MODEL 1
REMARK VINA RESULT:      -8.4      0.000      0.000
REMARK  13 active torsions:
REMARK  status: ('A' for Active; 'I' for Inactive)
REMARK    1  A    between atoms: C_2  and  O_12 
REMARK    2  A    between atoms: C_3  and  O_10 
REMARK    3  A    between atoms: C_4  and  O_8 
REMARK    4  A    between atoms: C_5  and  O_6 
REMARK    5  A    between atoms: C_22  and  C_23 
REMARK    6  A    between atoms: O_12  and  C_13 
REMARK    7  A    between atoms: C_13  and  C_14 
REMARK    8  A    between atoms: C_15  and  C_16 
REMARK    9  A    between atoms: C_23  and  O_24 
REMARK   10  A    between atoms: O_24  and  C_25 
REMARK   11  A    between atoms: C_26  and  O_34 
REMARK   12  A    between atoms: C_27  and  O_32 
REMARK   13  A    between atoms: C_28  and  O_30 
ROOT
ATOM      1  O   LIG     1      15.205  50.098  24.925  0.00  0.00    -0.341 OA
ATOM      2  C   LIG     1      15.253  51.372  24.286  0.00  0.00     0.282 C 
ATOM      3  C   LIG     1      14.844  51.249  22.817  0.00  0.00     0.201 C 
ATOM      4  C   LIG     1      13.485  50.566  22.673  0.00  0.00     0.179 C 
ATOM      5  C   LIG     1      13.419  49.284  23.502  0.00  0.00     0.177 C 
ATOM      6  C   LIG     1      13.890  49.539  24.936  0.00  0.00     0.178 C 
ENDROOT
BRANCH   6   7
ATOM      7  C   LIG     1      13.944  48.251  25.751  0.00  0.00     0.197 C 
BRANCH   7   8
ATOM      8  O   LIG     1      12.625  47.901  26.130  0.00  0.00    -0.346 OA
BRANCH   8   9
ATOM      9  C   LIG     1      12.303  48.383  27.430  0.00  0.00     0.281 C 
ATOM     10  O   LIG     1      12.032  47.317  28.346  0.00  0.00    -0.346 OA
ATOM     11  C   LIG     1      10.850  46.582  28.040  0.00  0.00     0.197 C 
ATOM     12  C   LIG     1       9.628  47.492  28.076  0.00  0.00     0.171 C 
ATOM     13  C   LIG     1       9.794  48.656  27.097  0.00  0.00     0.178 C 
ATOM     14  C   LIG     1      11.127  49.369  27.346  0.00  0.00     0.201 C 
BRANCH  12  15
ATOM     15  O   LIG     1       8.454  46.758  27.758  0.00  0.00    -0.387 OA
ATOM     16  H   LIG     1       8.440  45.967  28.323  0.00  0.00     0.210 HD
ENDBRANCH  12  15
BRANCH  13  17
ATOM     17  O   LIG     1       9.763  48.156  25.761  0.00  0.00    -0.386 OA
ATOM     18  H   LIG     1      10.681  48.115  25.442  0.00  0.00     0.210 HD
ENDBRANCH  13  17
BRANCH  14  19
ATOM     19  O   LIG     1      11.059  50.079  28.580  0.00  0.00    -0.384 OA
ATOM     20  H   LIG     1      11.352  50.993  28.426  0.00  0.00     0.210 HD
ENDBRANCH  14  19
ENDBRANCH   8   9
ENDBRANCH   7   8
ENDBRANCH   6   7
BRANCH   5  21
ATOM     21  O   LIG     1      12.077  48.805  23.525  0.00  0.00    -0.386 OA
ATOM     22  H   LIG     1      12.004  48.152  24.243  0.00  0.00     0.210 HD
ENDBRANCH   5  21
BRANCH   2  23
ATOM     23  O   LIG     1      16.583  51.884  24.332  0.00  0.00    -0.345 OA
BRANCH  23  24
ATOM     24  C   LIG     1      17.490  50.922  24.845  0.00  0.00     0.190 C 
BRANCH  24  25
ATOM     25  C   LIG     1      18.468  50.562  23.773  0.00  0.00     0.001 C 
ATOM     26  C   LIG     1      18.563  49.332  23.244  0.00  0.00     0.006 C 
BRANCH  26  27
ATOM     27  C   LIG     1      19.499  48.936  22.178  0.00  0.00    -0.025 A 
ATOM     28  C   LIG     1      19.150  49.148  20.854  0.00  0.00     0.008 A 
ATOM     29  C   LIG     1      20.037  48.773  19.845  0.00  0.00     0.001 A 
ATOM     30  C   LIG     1      21.261  48.190  20.173  0.00  0.00     0.000 A 
ATOM     31  C   LIG     1      21.599  47.983  21.510  0.00  0.00     0.001 A 
ATOM     32  C   LIG     1      20.712  48.358  22.519  0.00  0.00     0.008 A 
ENDBRANCH  26  27
ENDBRANCH  24  25
ENDBRANCH  23  24
ENDBRANCH   2  23
BRANCH   4  33
ATOM     33  O   LIG     1      13.270  50.218  21.304  0.00  0.00    -0.386 OA
ATOM     34  H   LIG     1      13.293  49.247  21.244  0.00  0.00     0.210 HD
ENDBRANCH   4  33
BRANCH   3  35
ATOM     35  O   LIG     1      14.776  52.562  22.262  0.00  0.00    -0.384 OA
ATOM     36  H   LIG     1      14.486  53.171  22.961  0.00  0.00     0.210 HD
ENDBRANCH   3  35
TORSDOF 13
ENDMDL
MODEL 2
REMARK VINA RESULT:      -8.2      2.013      3.097
REMARK  13 active torsions:
REMARK  status: ('A' for Active; 'I' for Inactive)
REMARK    1  A    between atoms: C_2  and  O_12 
REMARK    2  A    between atoms: C_3  and  O_10 
REMARK    3  A    between atoms: C_4  and  O_8 
REMARK    4  A    between atoms: C_5  and  O_6 
REMARK    5  A    between atoms: C_22  and  C_23 
REMARK    6  A    between atoms: O_12  and  C_13 
REMARK    7  A    between atoms: C_13  and  C_14 
REMARK    8  A    between atoms: C_15  and  C_16 
REMARK    9  A    between atoms: C_23  and  O_24 
REMARK   10  A    between atoms: O_24  and  C_25 
REMARK   11  A    between atoms: C_26  and  O_34 
REMARK   12  A    between atoms: C_27  and  O_32 
REMARK   13  A    between atoms: C_28  and  O_30 
ROOT
ATOM      1  O   LIG     1      14.309  50.385  23.865  0.00  0.00    -0.341 OA
ATOM      2  C   LIG     1      15.707  50.302  23.595  0.00  0.00     0.282 C 
ATOM      3  C   LIG     1      15.998  50.706  22.149  0.00  0.00     0.201 C 
ATOM      4  C   LIG     1      15.413  52.080  21.827  0.00  0.00     0.179 C 
ATOM      5  C   LIG     1      13.957  52.182  22.277  0.00  0.00     0.177 C 
ATOM      6  C   LIG     1      13.802  51.713  23.726  0.00  0.00     0.178 C 
ENDROOT
BRANCH   6   7
ATOM      7  C   LIG     1      12.340  51.695  24.162  0.00  0.00     0.197 C 
BRANCH   7   8
ATOM      8  O   LIG     1      12.216  50.848  25.290  0.00  0.00    -0.346 OA
BRANCH   8   9
ATOM      9  C   LIG     1      10.946  50.205  25.330  0.00  0.00     0.281 C 
ATOM     10  O   LIG     1      10.391  50.193  26.650  0.00  0.00    -0.346 OA
ATOM     11  C   LIG     1      11.121  49.389  27.573  0.00  0.00     0.197 C 
ATOM     12  C   LIG     1      11.152  47.937  27.114  0.00  0.00     0.171 C 
ATOM     13  C   LIG     1      11.767  47.826  25.718  0.00  0.00     0.178 C 
ATOM     14  C   LIG     1      11.061  48.785  24.753  0.00  0.00     0.201 C 
BRANCH  12  15
ATOM     15  O   LIG     1      11.890  47.142  28.031  0.00  0.00    -0.387 OA
ATOM     16  H   LIG     1      12.784  47.027  27.666  0.00  0.00     0.210 HD
ENDBRANCH  12  15
BRANCH  13  17
ATOM     17  O   LIG     1      13.154  48.153  25.787  0.00  0.00    -0.386 OA
ATOM     18  H   LIG     1      13.222  49.111  25.941  0.00  0.00     0.210 HD
ENDBRANCH  13  17
BRANCH  14  19
ATOM     19  O   LIG     1       9.744  48.308  24.491  0.00  0.00    -0.384 OA
ATOM     20  H   LIG     1       9.810  47.509  23.941  0.00  0.00     0.210 HD
ENDBRANCH  14  19
ENDBRANCH   8   9
ENDBRANCH   7   8
ENDBRANCH   6   7
BRANCH   5  21
ATOM     21  O   LIG     1      13.523  53.536  22.172  0.00  0.00    -0.386 OA
ATOM     22  H   LIG     1      14.285  54.074  21.894  0.00  0.00     0.210 HD
ENDBRANCH   5  21
BRANCH   2  23
ATOM     23  O   LIG     1      16.154  48.960  23.776  0.00  0.00    -0.345 OA
BRANCH  23  24
ATOM     24  C   LIG     1      16.532  48.718  25.122  0.00  0.00     0.190 C 
BRANCH  24  25
ATOM     25  C   LIG     1      18.003  48.458  25.170  0.00  0.00     0.001 C 
ATOM     26  C   LIG     1      18.771  48.360  24.073  0.00  0.00     0.006 C 
BRANCH  26  27
ATOM     27  C   LIG     1      20.224  48.119  24.073  0.00  0.00    -0.025 A 
ATOM     28  C   LIG     1      20.922  48.184  22.877  0.00  0.00     0.008 A 
ATOM     29  C   LIG     1      22.298  47.957  22.877  0.00  0.00     0.001 A 
ATOM     30  C   LIG     1      22.958  47.665  24.071  0.00  0.00     0.000 A 
ATOM     31  C   LIG     1      22.242  47.602  25.266  0.00  0.00     0.001 A 
ATOM     32  C   LIG     1      20.865  47.831  25.267  0.00  0.00     0.008 A 
ENDBRANCH  26  27
ENDBRANCH  24  25
ENDBRANCH  23  24
ENDBRANCH   2  23
BRANCH   4  33
ATOM     33  O   LIG     1      15.455  52.296  20.415  0.00  0.00    -0.386 OA
ATOM     34  H   LIG     1      15.424  51.423  19.987  0.00  0.00     0.210 HD
ENDBRANCH   4  33
BRANCH   3  35
ATOM     35  O   LIG     1      17.413  50.738  21.970  0.00  0.00    -0.384 OA
ATOM     36  H   LIG     1      17.710  49.839  21.753  0.00  0.00     0.210 HD
ENDBRANCH   3  35
TORSDOF 13
ENDMDL
MODEL 3
REMARK VINA RESULT:      -7.9      1.339      1.775
REMARK  13 active torsions:
REMARK  status: ('A' for Active; 'I' for Inactive)
REMARK    1  A    between atoms: C_2  and  O_12 
REMARK    2  A    between atoms: C_3  and  O_10 
REMARK    3  A    between atoms: C_4  and  O_8 
REMARK    4  A    between atoms: C_5  and  O_6 
REMARK    5  A    between atoms: C_22  and  C_23 
REMARK    6  A    between atoms: O_12  and  C_13 
REMARK    7  A    between atoms: C_13  and  C_14 
REMARK    8  A    between atoms: C_15  and  C_16 
REMARK    9  A    between atoms: C_23  and  O_24 
REMARK   10  A    between atoms: O_24  and  C_25 
REMARK   11  A    between atoms: C_26  and  O_34 
REMARK   12  A    between atoms: C_27  and  O_32 
REMARK   13  A    between atoms: C_28  and  O_30 
ROOT
ATOM      1  O   LIG     1      14.065  50.106  25.555  0.00  0.00    -0.341 OA
ATOM      2  C   LIG     1      14.549  50.476  24.266  0.00  0.00     0.282 C 
ATOM      3  C   LIG     1      14.039  49.502  23.203  0.00  0.00     0.201 C 
ATOM      4  C   LIG     1      12.517  49.374  23.250  0.00  0.00     0.179 C 
ATOM      5  C   LIG     1      12.025  49.136  24.676  0.00  0.00     0.177 C 
ATOM      6  C   LIG     1      12.640  50.154  25.641  0.00  0.00     0.178 C 
ENDROOT
BRANCH   6   7
ATOM      7  C   LIG     1      12.255  49.865  27.089  0.00  0.00     0.197 C 
BRANCH   7   8
ATOM      8  O   LIG     1      12.037  48.473  27.228  0.00  0.00    -0.346 OA
BRANCH   8   9
ATOM      9  C   LIG     1      11.739  48.117  28.573  0.00  0.00     0.281 C 
ATOM     10  O   LIG     1      11.718  46.697  28.761  0.00  0.00    -0.346 OA
ATOM     11  C   LIG     1      10.653  46.042  28.076  0.00  0.00     0.197 C 
ATOM     12  C   LIG     1       9.305  46.554  28.565  0.00  0.00     0.171 C 
ATOM     13  C   LIG     1       9.202  48.069  28.374  0.00  0.00     0.178 C 
ATOM     14  C   LIG     1      10.413  48.763  29.004  0.00  0.00     0.201 C 
BRANCH  12  15
ATOM     15  O   LIG     1       8.247  45.908  27.871  0.00  0.00    -0.387 OA
ATOM     16  H   LIG     1       8.497  45.861  26.932  0.00  0.00     0.210 HD
ENDBRANCH  12  15
BRANCH  13  17
ATOM     17  O   LIG     1       9.152  48.366  26.980  0.00  0.00    -0.386 OA
ATOM     18  H   LIG     1       8.690  47.631  26.540  0.00  0.00     0.210 HD
ENDBRANCH  13  17
BRANCH  14  19
ATOM     19  O   LIG     1      10.322  48.677  30.424  0.00  0.00    -0.384 OA
ATOM     20  H   LIG     1       9.561  48.116  30.650  0.00  0.00     0.210 HD
ENDBRANCH  14  19
ENDBRANCH   8   9
ENDBRANCH   7   8
ENDBRANCH   6   7
BRANCH   5  21
ATOM     21  O   LIG     1      10.605  49.252  24.711  0.00  0.00    -0.386 OA
ATOM     22  H   LIG     1      10.269  49.094  23.812  0.00  0.00     0.210 HD
ENDBRANCH   5  21
BRANCH   2  23
ATOM     23  O   LIG     1      15.975  50.434  24.256  0.00  0.00    -0.345 OA
BRANCH  23  24
ATOM     24  C   LIG     1      16.457  49.173  24.693  0.00  0.00     0.190 C 
BRANCH  24  25
ATOM     25  C   LIG     1      17.742  48.878  23.987  0.00  0.00     0.001 C 
ATOM     26  C   LIG     1      17.902  49.013  22.662  0.00  0.00     0.006 C 
BRANCH  26  27
ATOM     27  C   LIG     1      19.151  48.748  21.926  0.00  0.00    -0.025 A 
ATOM     28  C   LIG     1      20.274  48.330  22.622  0.00  0.00     0.008 A 
ATOM     29  C   LIG     1      21.455  48.080  21.925  0.00  0.00     0.001 A 
ATOM     30  C   LIG     1      21.499  48.252  20.542  0.00  0.00     0.000 A 
ATOM     31  C   LIG     1      20.362  48.673  19.854  0.00  0.00     0.001 A 
ATOM     32  C   LIG     1      19.179  48.924  20.552  0.00  0.00     0.008 A 
ENDBRANCH  26  27
ENDBRANCH  24  25
ENDBRANCH  23  24
ENDBRANCH   2  23
BRANCH   4  33
ATOM     33  O   LIG     1      12.109  48.262  22.450  0.00  0.00    -0.386 OA
ATOM     34  H   LIG     1      11.521  48.604  21.756  0.00  0.00     0.210 HD
ENDBRANCH   4  33
BRANCH   3  35
ATOM     35  O   LIG     1      14.435  49.992  21.922  0.00  0.00    -0.384 OA
ATOM     36  H   LIG     1      15.179  49.450  21.610  0.00  0.00     0.210 HD
ENDBRANCH   3  35
TORSDOF 13
ENDMDL
MODEL 4
REMARK VINA RESULT:      -7.9      1.988      5.921
REMARK  13 active torsions:
REMARK  status: ('A' for Active; 'I' for Inactive)
REMARK    1  A    between atoms: C_2  and  O_12 
REMARK    2  A    between atoms: C_3  and  O_10 
REMARK    3  A    between atoms: C_4  and  O_8 
REMARK    4  A    between atoms: C_5  and  O_6 
REMARK    5  A    between atoms: C_22  and  C_23 
REMARK    6  A    between atoms: O_12  and  C_13 
REMARK    7  A    between atoms: C_13  and  C_14 
REMARK    8  A    between atoms: C_15  and  C_16 
REMARK    9  A    between atoms: C_23  and  O_24 
REMARK   10  A    between atoms: O_24  and  C_25 
REMARK   11  A    between atoms: C_26  and  O_34 
REMARK   12  A    between atoms: C_27  and  O_32 
REMARK   13  A    between atoms: C_28  and  O_30 
ROOT
ATOM      1  O   LIG     1      12.604  49.537  26.270  0.00  0.00    -0.341 OA
ATOM      2  C   LIG     1      12.718  48.218  26.799  0.00  0.00     0.282 C 
ATOM      3  C   LIG     1      11.423  47.810  27.503  0.00  0.00     0.201 C 
ATOM      4  C   LIG     1      10.214  47.977  26.584  0.00  0.00     0.179 C 
ATOM      5  C   LIG     1      10.214  49.349  25.911  0.00  0.00     0.177 C 
ATOM      6  C   LIG     1      11.578  49.645  25.282  0.00  0.00     0.178 C 
ENDROOT
BRANCH   6   7
ATOM      7  C   LIG     1      11.641  51.056  24.705  0.00  0.00     0.197 C 
BRANCH   7   8
ATOM      8  O   LIG     1      12.970  51.316  24.292  0.00  0.00    -0.346 OA
BRANCH   8   9
ATOM      9  C   LIG     1      13.450  50.317  23.399  0.00  0.00     0.281 C 
ATOM     10  O   LIG     1      14.811  49.963  23.670  0.00  0.00    -0.346 OA
ATOM     11  C   LIG     1      15.740  51.013  23.412  0.00  0.00     0.197 C 
ATOM     12  C   LIG     1      15.693  51.423  21.946  0.00  0.00     0.171 C 
ATOM     13  C   LIG     1      14.281  51.861  21.553  0.00  0.00     0.178 C 
ATOM     14  C   LIG     1      13.266  50.782  21.946  0.00  0.00     0.201 C 
BRANCH  12  15
ATOM     15  O   LIG     1      16.612  52.478  21.696  0.00  0.00    -0.387 OA
ATOM     16  H   LIG     1      16.098  53.298  21.598  0.00  0.00     0.210 HD
ENDBRANCH  12  15
BRANCH  13  17
ATOM     17  O   LIG     1      13.963  53.081  22.221  0.00  0.00    -0.386 OA
ATOM     18  H   LIG     1      13.770  52.865  23.150  0.00  0.00     0.210 HD
ENDBRANCH  13  17
BRANCH  14  19
ATOM     19  O   LIG     1      13.429  49.649  21.097  0.00  0.00    -0.384 OA
ATOM     20  H   LIG     1      12.601  49.511  20.606  0.00  0.00     0.210 HD
ENDBRANCH  14  19
ENDBRANCH   8   9
ENDBRANCH   7   8
ENDBRANCH   6   7
BRANCH   5  21
ATOM     21  O   LIG     1       9.212  49.379  24.898  0.00  0.00    -0.386 OA
ATOM     22  H   LIG     1       8.343  49.379  25.337  0.00  0.00     0.210 HD
ENDBRANCH   5  21
BRANCH   2  23
ATOM     23  O   LIG     1      13.773  48.172  27.758  0.00  0.00    -0.345 OA
BRANCH  23  24
ATOM     24  C   LIG     1      14.750  49.168  27.498  0.00  0.00     0.190 C 
BRANCH  24  25
ATOM     25  C   LIG     1      15.860  48.558  26.705  0.00  0.00     0.001 C 
ATOM     26  C   LIG     1      17.007  49.198  26.429  0.00  0.00     0.006 C 
BRANCH  26  27
ATOM     27  C   LIG     1      18.133  48.633  25.665  0.00  0.00    -0.025 A 
ATOM     28  C   LIG     1      18.095  48.661  24.280  0.00  0.00     0.008 A 
ATOM     29  C   LIG     1      19.160  48.126  23.557  0.00  0.00     0.001 A 
ATOM     30  C   LIG     1      20.250  47.570  24.227  0.00  0.00     0.000 A 
ATOM     31  C   LIG     1      20.274  47.549  25.621  0.00  0.00     0.001 A 
ATOM     32  C   LIG     1      19.208  48.084  26.345  0.00  0.00     0.008 A 
ENDBRANCH  26  27
ENDBRANCH  24  25
ENDBRANCH  23  24
ENDBRANCH   2  23
BRANCH   4  33
ATOM     33  O   LIG     1       9.014  47.862  27.351  0.00  0.00    -0.386 OA
ATOM     34  H   LIG     1       8.329  47.494  26.767  0.00  0.00     0.210 HD
ENDBRANCH   4  33
BRANCH   3  35
ATOM     35  O   LIG     1      11.537  46.442  27.893  0.00  0.00    -0.384 OA
ATOM     36  H   LIG     1      11.712  45.915  27.095  0.00  0.00     0.210 HD
ENDBRANCH   3  35
TORSDOF 13
ENDMDL
MODEL 5
REMARK VINA RESULT:      -7.9      1.679      2.395
REMARK  13 active torsions:
REMARK  status: ('A' for Active; 'I' for Inactive)
REMARK    1  A    between atoms: C_2  and  O_12 
REMARK    2  A    between atoms: C_3  and  O_10 
REMARK    3  A    between atoms: C_4  and  O_8 
REMARK    4  A    between atoms: C_5  and  O_6 
REMARK    5  A    between atoms: C_22  and  C_23 
REMARK    6  A    between atoms: O_12  and  C_13 
REMARK    7  A    between atoms: C_13  and  C_14 
REMARK    8  A    between atoms: C_15  and  C_16 
REMARK    9  A    between atoms: C_23  and  O_24 
REMARK   10  A    between atoms: O_24  and  C_25 
REMARK   11  A    between atoms: C_26  and  O_34 
REMARK   12  A    between atoms: C_27  and  O_32 
REMARK   13  A    between atoms: C_28  and  O_30 
ROOT
ATOM      1  O   LIG     1      15.153  50.110  24.280  0.00  0.00    -0.341 OA
ATOM      2  C   LIG     1      15.742  51.294  23.747  0.00  0.00     0.282 C 
ATOM      3  C   LIG     1      16.300  51.030  22.348  0.00  0.00     0.201 C 
ATOM      4  C   LIG     1      15.237  50.431  21.428  0.00  0.00     0.179 C 
ATOM      5  C   LIG     1      14.518  49.262  22.100  0.00  0.00     0.177 C 
ATOM      6  C   LIG     1      14.046  49.650  23.504  0.00  0.00     0.178 C 
ENDROOT
BRANCH   6   7
ATOM      7  C   LIG     1      13.428  48.464  24.240  0.00  0.00     0.197 C 
BRANCH   7   8
ATOM      8  O   LIG     1      12.971  48.908  25.504  0.00  0.00    -0.346 OA
BRANCH   8   9
ATOM      9  C   LIG     1      11.711  49.564  25.410  0.00  0.00     0.281 C 
ATOM     10  O   LIG     1      11.513  50.501  26.474  0.00  0.00    -0.346 OA
ATOM     11  C   LIG     1      11.397  49.896  27.759  0.00  0.00     0.197 C 
ATOM     12  C   LIG     1      10.204  48.949  27.801  0.00  0.00     0.171 C 
ATOM     13  C   LIG     1      10.332  47.873  26.722  0.00  0.00     0.178 C 
ATOM     14  C   LIG     1      10.582  48.523  25.357  0.00  0.00     0.201 C 
BRANCH  12  15
ATOM     15  O   LIG     1      10.100  48.340  29.080  0.00  0.00    -0.387 OA
ATOM     16  H   LIG     1      10.881  48.603  29.596  0.00  0.00     0.210 HD
ENDBRANCH  12  15
BRANCH  13  17
ATOM     17  O   LIG     1      11.419  47.008  27.046  0.00  0.00    -0.386 OA
ATOM     18  H   LIG     1      11.366  46.237  26.455  0.00  0.00     0.210 HD
ENDBRANCH  13  17
BRANCH  14  19
ATOM     19  O   LIG     1       9.395  49.181  24.922  0.00  0.00    -0.384 OA
ATOM     20  H   LIG     1       9.012  49.656  25.679  0.00  0.00     0.210 HD
ENDBRANCH  14  19
ENDBRANCH   8   9
ENDBRANCH   7   8
ENDBRANCH   6   7
BRANCH   5  21
ATOM     21  O   LIG     1      13.393  48.884  21.312  0.00  0.00    -0.386 OA
ATOM     22  H   LIG     1      13.527  47.965  21.019  0.00  0.00     0.210 HD
ENDBRANCH   5  21
BRANCH   2  23
ATOM     23  O   LIG     1      16.820  51.714  24.580  0.00  0.00    -0.345 OA
BRANCH  23  24
ATOM     24  C   LIG     1      17.138  50.730  25.550  0.00  0.00     0.190 C 
BRANCH  24  25
ATOM     25  C   LIG     1      18.556  50.299  25.353  0.00  0.00     0.001 C 
ATOM     26  C   LIG     1      18.945  49.471  24.371  0.00  0.00     0.006 C 
BRANCH  26  27
ATOM     27  C   LIG     1      20.330  49.032  24.130  0.00  0.00    -0.025 A 
ATOM     28  C   LIG     1      20.587  48.119  23.119  0.00  0.00     0.008 A 
ATOM     29  C   LIG     1      21.898  47.704  22.891  0.00  0.00     0.001 A 
ATOM     30  C   LIG     1      22.936  48.205  23.677  0.00  0.00     0.000 A 
ATOM     31  C   LIG     1      22.662  49.122  24.691  0.00  0.00     0.001 A 
ATOM     32  C   LIG     1      21.350  49.538  24.919  0.00  0.00     0.008 A 
ENDBRANCH  26  27
ENDBRANCH  24  25
ENDBRANCH  23  24
ENDBRANCH   2  23
BRANCH   4  33
ATOM     33  O   LIG     1      15.859  49.941  20.238  0.00  0.00    -0.386 OA
ATOM     34  H   LIG     1      16.771  50.278  20.227  0.00  0.00     0.210 HD
ENDBRANCH   4  33
BRANCH   3  35
ATOM     35  O   LIG     1      16.752  52.271  21.806  0.00  0.00    -0.384 OA
ATOM     36  H   LIG     1      17.155  52.092  20.939  0.00  0.00     0.210 HD
ENDBRANCH   3  35
TORSDOF 13
ENDMDL
MODEL 6
REMARK VINA RESULT:      -7.7      2.313      3.470
REMARK  13 active torsions:
REMARK  status: ('A' for Active; 'I' for Inactive)
REMARK    1  A    between atoms: C_2  and  O_12 
REMARK    2  A    between atoms: C_3  and  O_10 
REMARK    3  A    between atoms: C_4  and  O_8 
REMARK    4  A    between atoms: C_5  and  O_6 
REMARK    5  A    between atoms: C_22  and  C_23 
REMARK    6  A    between atoms: O_12  and  C_13 
REMARK    7  A    between atoms: C_13  and  C_14 
REMARK    8  A    between atoms: C_15  and  C_16 
REMARK    9  A    between atoms: C_23  and  O_24 
REMARK   10  A    between atoms: O_24  and  C_25 
REMARK   11  A    between atoms: C_26  and  O_34 
REMARK   12  A    between atoms: C_27  and  O_32 
REMARK   13  A    between atoms: C_28  and  O_30 
ROOT
ATOM      1  O   LIG     1      15.918  49.323  23.651  0.00  0.00    -0.341 OA
ATOM      2  C   LIG     1      16.894  50.356  23.762  0.00  0.00     0.282 C 
ATOM      3  C   LIG     1      16.999  51.136  22.451  0.00  0.00     0.201 C 
ATOM      4  C   LIG     1      15.634  51.657  22.002  0.00  0.00     0.179 C 
ATOM      5  C   LIG     1      14.578  50.553  22.049  0.00  0.00     0.177 C 
ATOM      6  C   LIG     1      14.607  49.831  23.398  0.00  0.00     0.178 C 
ENDROOT
BRANCH   6   7
ATOM      7  C   LIG     1      13.642  48.649  23.428  0.00  0.00     0.197 C 
BRANCH   7   8
ATOM      8  O   LIG     1      12.972  48.646  24.675  0.00  0.00    -0.346 OA
BRANCH   8   9
ATOM      9  C   LIG     1      11.740  49.357  24.615  0.00  0.00     0.281 C 
ATOM     10  O   LIG     1      11.775  50.560  25.391  0.00  0.00    -0.346 OA
ATOM     11  C   LIG     1      11.879  50.335  26.795  0.00  0.00     0.197 C 
ATOM     12  C   LIG     1      10.683  49.539  27.301  0.00  0.00     0.171 C 
ATOM     13  C   LIG     1      10.571  48.205  26.561  0.00  0.00     0.178 C 
ATOM     14  C   LIG     1      10.585  48.439  25.047  0.00  0.00     0.201 C 
BRANCH  12  15
ATOM     15  O   LIG     1      10.796  49.308  28.698  0.00  0.00    -0.387 OA
ATOM     16  H   LIG     1      10.360  48.461  28.892  0.00  0.00     0.210 HD
ENDBRANCH  12  15
BRANCH  13  17
ATOM     17  O   LIG     1      11.668  47.370  26.926  0.00  0.00    -0.386 OA
ATOM     18  H   LIG     1      11.353  46.755  27.611  0.00  0.00     0.210 HD
ENDBRANCH  13  17
BRANCH  14  19
ATOM     19  O   LIG     1       9.362  49.055  24.652  0.00  0.00    -0.384 OA
ATOM     20  H   LIG     1       9.484  50.019  24.665  0.00  0.00     0.210 HD
ENDBRANCH  14  19
ENDBRANCH   8   9
ENDBRANCH   7   8
ENDBRANCH   6   7
BRANCH   5  21
ATOM     21  O   LIG     1      13.288  51.125  21.849  0.00  0.00    -0.386 OA
ATOM     22  H   LIG     1      13.402  52.084  21.725  0.00  0.00     0.210 HD
ENDBRANCH   5  21
BRANCH   2  23
ATOM     23  O   LIG     1      18.171  49.786  24.039  0.00  0.00    -0.345 OA
BRANCH  23  24
ATOM     24  C   LIG     1      18.425  48.660  23.215  0.00  0.00     0.190 C 
BRANCH  24  25
ATOM     25  C   LIG     1      19.683  47.998  23.676  0.00  0.00     0.001 C 
ATOM     26  C   LIG     1      20.585  48.599  24.468  0.00  0.00     0.006 C 
BRANCH  26  27
ATOM     27  C   LIG     1      21.829  47.983  24.958  0.00  0.00    -0.025 A 
ATOM     28  C   LIG     1      22.927  47.904  24.115  0.00  0.00     0.008 A 
ATOM     29  C   LIG     1      24.104  47.321  24.580  0.00  0.00     0.001 A 
ATOM     30  C   LIG     1      24.171  46.822  25.881  0.00  0.00     0.000 A 
ATOM     31  C   LIG     1      23.059  46.908  26.718  0.00  0.00     0.001 A 
ATOM     32  C   LIG     1      21.880  47.492  26.253  0.00  0.00     0.008 A 
ENDBRANCH  26  27
ENDBRANCH  24  25
ENDBRANCH  23  24
ENDBRANCH   2  23
BRANCH   4  33
ATOM     33  O   LIG     1      15.724  52.125  20.655  0.00  0.00    -0.386 OA
ATOM     34  H   LIG     1      14.865  52.518  20.426  0.00  0.00     0.210 HD
ENDBRANCH   4  33
BRANCH   3  35
ATOM     35  O   LIG     1      17.883  52.238  22.657  0.00  0.00    -0.384 OA
ATOM     36  H   LIG     1      17.844  52.807  21.870  0.00  0.00     0.210 HD
ENDBRANCH   3  35
TORSDOF 13
ENDMDL
MODEL 7
REMARK VINA RESULT:      -7.7      2.863      8.578
REMARK  13 active torsions:
REMARK  status: ('A' for Active; 'I' for Inactive)
REMARK    1  A    between atoms: C_2  and  O_12 
REMARK    2  A    between atoms: C_3  and  O_10 
REMARK    3  A    between atoms: C_4  and  O_8 
REMARK    4  A    between atoms: C_5  and  O_6 
REMARK    5  A    between atoms: C_22  and  C_23 
REMARK    6  A    between atoms: O_12  and  C_13 
REMARK    7  A    between atoms: C_13  and  C_14 
REMARK    8  A    between atoms: C_15  and  C_16 
REMARK    9  A    between atoms: C_23  and  O_24 
REMARK   10  A    between atoms: O_24  and  C_25 
REMARK   11  A    between atoms: C_26  and  O_34 
REMARK   12  A    between atoms: C_27  and  O_32 
REMARK   13  A    between atoms: C_28  and  O_30 
ROOT
ATOM      1  O   LIG     1      14.916  50.832  24.395  0.00  0.00    -0.341 OA
ATOM      2  C   LIG     1      14.026  50.319  23.406  0.00  0.00     0.282 C 
ATOM      3  C   LIG     1      14.135  51.131  22.114  0.00  0.00     0.201 C 
ATOM      4  C   LIG     1      15.581  51.208  21.626  0.00  0.00     0.179 C 
ATOM      5  C   LIG     1      16.527  51.608  22.758  0.00  0.00     0.177 C 
ATOM      6  C   LIG     1      16.285  50.744  23.999  0.00  0.00     0.178 C 
ENDROOT
BRANCH   6   7
ATOM      7  C   LIG     1      17.137  51.201  25.180  0.00  0.00     0.197 C 
BRANCH   7   8
ATOM      8  O   LIG     1      18.486  50.853  24.924  0.00  0.00    -0.346 OA
BRANCH   8   9
ATOM      9  C   LIG     1      18.957  49.864  25.832  0.00  0.00     0.281 C 
ATOM     10  O   LIG     1      20.320  50.090  26.212  0.00  0.00    -0.346 OA
ATOM     11  C   LIG     1      21.249  49.927  25.143  0.00  0.00     0.197 C 
ATOM     12  C   LIG     1      21.192  48.508  24.593  0.00  0.00     0.171 C 
ATOM     13  C   LIG     1      19.778  48.170  24.118  0.00  0.00     0.178 C 
ATOM     14  C   LIG     1      18.764  48.464  25.229  0.00  0.00     0.201 C 
BRANCH  12  15
ATOM     15  O   LIG     1      22.111  48.354  23.521  0.00  0.00    -0.387 OA
ATOM     16  H   LIG     1      22.747  47.664  23.775  0.00  0.00     0.210 HD
ENDBRANCH  12  15
BRANCH  13  17
ATOM     17  O   LIG     1      19.467  48.955  22.968  0.00  0.00    -0.386 OA
ATOM     18  H   LIG     1      18.939  48.400  22.369  0.00  0.00     0.210 HD
ENDBRANCH  13  17
BRANCH  14  19
ATOM     19  O   LIG     1      18.918  47.508  26.274  0.00  0.00    -0.384 OA
ATOM     20  H   LIG     1      19.831  47.555  26.603  0.00  0.00     0.210 HD
ENDBRANCH  14  19
ENDBRANCH   8   9
ENDBRANCH   7   8
ENDBRANCH   6   7
BRANCH   5  21
ATOM     21  O   LIG     1      17.875  51.446  22.326  0.00  0.00    -0.386 OA
ATOM     22  H   LIG     1      18.022  50.500  22.148  0.00  0.00     0.210 HD
ENDBRANCH   5  21
BRANCH   2  23
ATOM     23  O   LIG     1      12.682  50.412  23.872  0.00  0.00    -0.345 OA
BRANCH  23  24
ATOM     24  C   LIG     1      12.141  49.130  24.150  0.00  0.00     0.190 C 
BRANCH  24  25
ATOM     25  C   LIG     1      11.863  49.031  25.615  0.00  0.00     0.001 C 
ATOM     26  C   LIG     1      11.831  50.095  26.433  0.00  0.00     0.006 C 
BRANCH  26  27
ATOM     27  C   LIG     1      11.547  50.048  27.878  0.00  0.00    -0.025 A 
ATOM     28  C   LIG     1      12.171  50.953  28.722  0.00  0.00     0.008 A 
ATOM     29  C   LIG     1      11.901  50.907  30.089  0.00  0.00     0.001 A 
ATOM     30  C   LIG     1      11.014  49.958  30.596  0.00  0.00     0.000 A 
ATOM     31  C   LIG     1      10.394  49.054  29.734  0.00  0.00     0.001 A 
ATOM     32  C   LIG     1      10.663  49.099  28.365  0.00  0.00     0.008 A 
ENDBRANCH  26  27
ENDBRANCH  24  25
ENDBRANCH  23  24
ENDBRANCH   2  23
BRANCH   4  33
ATOM     33  O   LIG     1      15.683  52.194  20.597  0.00  0.00    -0.386 OA
ATOM     34  H   LIG     1      15.334  51.798  19.780  0.00  0.00     0.210 HD
ENDBRANCH   4  33
BRANCH   3  35
ATOM     35  O   LIG     1      13.332  50.497  21.119  0.00  0.00    -0.384 OA
ATOM     36  H   LIG     1      13.695  49.610  20.958  0.00  0.00     0.210 HD
ENDBRANCH   3  35
TORSDOF 13
ENDMDL
MODEL 8
REMARK VINA RESULT:      -7.6      3.476      9.588
REMARK  13 active torsions:
REMARK  status: ('A' for Active; 'I' for Inactive)
REMARK    1  A    between atoms: C_2  and  O_12 
REMARK    2  A    between atoms: C_3  and  O_10 
REMARK    3  A    between atoms: C_4  and  O_8 
REMARK    4  A    between atoms: C_5  and  O_6 
REMARK    5  A    between atoms: C_22  and  C_23 
REMARK    6  A    between atoms: O_12  and  C_13 
REMARK    7  A    between atoms: C_13  and  C_14 
REMARK    8  A    between atoms: C_15  and  C_16 
REMARK    9  A    between atoms: C_23  and  O_24 
REMARK   10  A    between atoms: O_24  and  C_25 
REMARK   11  A    between atoms: C_26  and  O_34 
REMARK   12  A    between atoms: C_27  and  O_32 
REMARK   13  A    between atoms: C_28  and  O_30 
ROOT
ATOM      1  O   LIG     1      12.292  49.966  26.804  0.00  0.00    -0.341 OA
ATOM      2  C   LIG     1      12.575  48.837  27.627  0.00  0.00     0.282 C 
ATOM      3  C   LIG     1      11.286  48.089  27.972  0.00  0.00     0.201 C 
ATOM      4  C   LIG     1      10.501  47.723  26.713  0.00  0.00     0.179 C 
ATOM      5  C   LIG     1      10.356  48.925  25.781  0.00  0.00     0.177 C 
ATOM      6  C   LIG     1      11.711  49.601  25.551  0.00  0.00     0.178 C 
ENDROOT
BRANCH   6   7
ATOM      7  C   LIG     1      11.574  50.872  24.718  0.00  0.00     0.197 C 
BRANCH   7   8
ATOM      8  O   LIG     1      12.857  51.241  24.246  0.00  0.00    -0.346 OA
BRANCH   8   9
ATOM      9  C   LIG     1      13.414  50.244  23.396  0.00  0.00     0.281 C 
ATOM     10  O   LIG     1      14.746  49.889  23.785  0.00  0.00    -0.346 OA
ATOM     11  C   LIG     1      15.694  50.939  23.611  0.00  0.00     0.197 C 
ATOM     12  C   LIG     1      15.775  51.352  22.147  0.00  0.00     0.171 C 
ATOM     13  C   LIG     1      14.403  51.791  21.634  0.00  0.00     0.178 C 
ATOM     14  C   LIG     1      13.358  50.712  21.934  0.00  0.00     0.201 C 
BRANCH  12  15
ATOM     15  O   LIG     1      16.713  52.407  21.981  0.00  0.00    -0.387 OA
ATOM     16  H   LIG     1      16.524  52.837  21.129  0.00  0.00     0.210 HD
ENDBRANCH  12  15
BRANCH  13  17
ATOM     17  O   LIG     1      14.028  53.010  22.273  0.00  0.00    -0.386 OA
ATOM     18  H   LIG     1      13.125  53.227  21.984  0.00  0.00     0.210 HD
ENDBRANCH  13  17
BRANCH  14  19
ATOM     19  O   LIG     1      13.594  49.581  21.099  0.00  0.00    -0.384 OA
ATOM     20  H   LIG     1      13.165  48.807  21.501  0.00  0.00     0.210 HD
ENDBRANCH  14  19
ENDBRANCH   8   9
ENDBRANCH   7   8
ENDBRANCH   6   7
BRANCH   5  21
ATOM     21  O   LIG     1       9.827  48.492  24.530  0.00  0.00    -0.386 OA
ATOM     22  H   LIG     1      10.439  47.833  24.158  0.00  0.00     0.210 HD
ENDBRANCH   5  21
BRANCH   2  23
ATOM     23  O   LIG     1      13.175  49.267  28.847  0.00  0.00    -0.345 OA
BRANCH  23  24
ATOM     24  C   LIG     1      12.871  50.625  29.122  0.00  0.00     0.190 C 
BRANCH  24  25
ATOM     25  C   LIG     1      11.906  50.681  30.262  0.00  0.00     0.001 C 
ATOM     26  C   LIG     1      12.166  51.312  31.417  0.00  0.00     0.006 C 
BRANCH  26  27
ATOM     27  C   LIG     1      11.242  51.406  32.561  0.00  0.00    -0.025 A 
ATOM     28  C   LIG     1      11.034  52.635  33.166  0.00  0.00     0.008 A 
ATOM     29  C   LIG     1      10.159  52.724  34.248  0.00  0.00     0.001 A 
ATOM     30  C   LIG     1       9.504  51.583  34.712  0.00  0.00     0.000 A 
ATOM     31  C   LIG     1       9.723  50.353  34.092  0.00  0.00     0.001 A 
ATOM     32  C   LIG     1      10.599  50.264  33.010  0.00  0.00     0.008 A 
ENDBRANCH  26  27
ENDBRANCH  24  25
ENDBRANCH  23  24
ENDBRANCH   2  23
BRANCH   4  33
ATOM     33  O   LIG     1       9.190  47.288  27.080  0.00  0.00    -0.386 OA
ATOM     34  H   LIG     1       8.953  47.744  27.905  0.00  0.00     0.210 HD
ENDBRANCH   4  33
BRANCH   3  35
ATOM     35  O   LIG     1      11.636  46.898  28.677  0.00  0.00    -0.384 OA
ATOM     36  H   LIG     1      12.383  46.483  28.215  0.00  0.00     0.210 HD
ENDBRANCH   3  35
TORSDOF 13
ENDMDL
