MODEL 1
REMARK VINA RESULT:      -7.7      0.000      0.000
REMARK  13 active torsions:
REMARK  status: ('A' for Active; 'I' for Inactive)
REMARK    1  A    between atoms: C_2  and  O_12 
REMARK    2  A    between atoms: C_3  and  O_10 
REMARK    3  A    between atoms: C_4  and  O_8 
REMARK    4  A    between atoms: C_5  and  O_6 
REMARK    5  A    between atoms: C_22  and  C_23 
REMARK    6  A    between atoms: O_12  and  C_13 
REMARK    7  A    between atoms: C_13  and  C_14 
REMARK    8  A    between atoms: C_15  and  C_16 
REMARK    9  A    between atoms: C_23  and  O_24 
REMARK   10  A    between atoms: O_24  and  C_25 
REMARK   11  A    between atoms: C_26  and  O_34 
REMARK   12  A    between atoms: C_27  and  O_32 
REMARK   13  A    between atoms: C_28  and  O_30 
ROOT
ATOM      1  O   LIG     1       7.013  44.151  21.181  0.00  0.00    -0.341 OA
ATOM      2  C   LIG     1       6.106  44.318  20.094  0.00  0.00     0.282 C 
ATOM      3  C   LIG     1       6.094  45.773  19.624  0.00  0.00     0.201 C 
ATOM      4  C   LIG     1       7.504  46.264  19.298  0.00  0.00     0.179 C 
ATOM      5  C   LIG     1       8.483  45.924  20.422  0.00  0.00     0.177 C 
ATOM      6  C   LIG     1       8.363  44.450  20.819  0.00  0.00     0.178 C 
ENDROOT
BRANCH   6   7
ATOM      7  C   LIG     1       9.246  44.114  22.017  0.00  0.00     0.197 C 
BRANCH   7   8
ATOM      8  O   LIG     1      10.595  44.087  21.588  0.00  0.00    -0.346 OA
BRANCH   8   9
ATOM      9  C   LIG     1      11.289  42.953  22.100  0.00  0.00     0.281 C 
ATOM     10  O   LIG     1      12.561  43.307  22.652  0.00  0.00    -0.346 OA
ATOM     11  C   LIG     1      13.499  43.772  21.684  0.00  0.00     0.197 C 
ATOM     12  C   LIG     1      13.773  42.695  20.642  0.00  0.00     0.171 C 
ATOM     13  C   LIG     1      12.476  42.267  19.955  0.00  0.00     0.178 C 
ATOM     14  C   LIG     1      11.425  41.886  21.003  0.00  0.00     0.201 C 
BRANCH  12  15
ATOM     15  O   LIG     1      14.699  43.168  19.673  0.00  0.00    -0.387 OA
ATOM     16  H   LIG     1      14.726  42.517  18.951  0.00  0.00     0.210 HD
ENDBRANCH  12  15
BRANCH  13  17
ATOM     17  O   LIG     1      11.986  43.344  19.158  0.00  0.00    -0.386 OA
ATOM     18  H   LIG     1      11.899  43.017  18.246  0.00  0.00     0.210 HD
ENDBRANCH  13  17
BRANCH  14  19
ATOM     19  O   LIG     1      11.802  40.660  21.626  0.00  0.00    -0.384 OA
ATOM     20  H   LIG     1      12.355  40.157  21.006  0.00  0.00     0.210 HD
ENDBRANCH  14  19
ENDBRANCH   8   9
ENDBRANCH   7   8
ENDBRANCH   6   7
BRANCH   5  21
ATOM     21  O   LIG     1       9.813  46.187  19.985  0.00  0.00    -0.386 OA
ATOM     22  H   LIG     1      10.398  45.519  20.383  0.00  0.00     0.210 HD
ENDBRANCH   5  21
BRANCH   2  23
ATOM     23  O   LIG     1       4.785  43.980  20.513  0.00  0.00    -0.345 OA
BRANCH  23  24
ATOM     24  C   LIG     1       4.338  44.833  21.554  0.00  0.00     0.190 C 
BRANCH  24  25
ATOM     25  C   LIG     1       3.807  43.994  22.671  0.00  0.00     0.001 C 
ATOM     26  C   LIG     1       3.487  42.698  22.531  0.00  0.00     0.006 C 
BRANCH  26  27
ATOM     27  C   LIG     1       2.974  41.829  23.605  0.00  0.00    -0.025 A 
ATOM     28  C   LIG     1       2.126  40.781  23.284  0.00  0.00     0.008 A 
ATOM     29  C   LIG     1       1.642  39.959  24.300  0.00  0.00     0.001 A 
ATOM     30  C   LIG     1       2.010  40.195  25.625  0.00  0.00     0.000 A 
ATOM     31  C   LIG     1       2.864  41.254  25.933  0.00  0.00     0.001 A 
ATOM     32  C   LIG     1       3.349  42.076  24.916  0.00  0.00     0.008 A 
ENDBRANCH  26  27
ENDBRANCH  24  25
ENDBRANCH  23  24
ENDBRANCH   2  23
BRANCH   4  33
ATOM     33  O   LIG     1       7.489  47.684  19.141  0.00  0.00    -0.386 OA
ATOM     34  H   LIG     1       7.784  48.073  19.982  0.00  0.00     0.210 HD
ENDBRANCH   4  33
BRANCH   3  35
ATOM     35  O   LIG     1       5.280  45.859  18.455  0.00  0.00    -0.384 OA
ATOM     36  H   LIG     1       5.217  44.971  18.066  0.00  0.00     0.210 HD
ENDBRANCH   3  35
TORSDOF 13
ENDMDL
MODEL 2
REMARK VINA RESULT:      -7.7      2.336      3.162
REMARK  13 active torsions:
REMARK  status: ('A' for Active; 'I' for Inactive)
REMARK    1  A    between atoms: C_2  and  O_12 
REMARK    2  A    between atoms: C_3  and  O_10 
REMARK    3  A    between atoms: C_4  and  O_8 
REMARK    4  A    between atoms: C_5  and  O_6 
REMARK    5  A    between atoms: C_22  and  C_23 
REMARK    6  A    between atoms: O_12  and  C_13 
REMARK    7  A    between atoms: C_13  and  C_14 
REMARK    8  A    between atoms: C_15  and  C_16 
REMARK    9  A    between atoms: C_23  and  O_24 
REMARK   10  A    between atoms: O_24  and  C_25 
REMARK   11  A    between atoms: C_26  and  O_34 
REMARK   12  A    between atoms: C_27  and  O_32 
REMARK   13  A    between atoms: C_28  and  O_30 
ROOT
ATOM      1  O   LIG     1       6.412  43.486  20.863  0.00  0.00    -0.341 OA
ATOM      2  C   LIG     1       5.472  43.668  19.806  0.00  0.00     0.282 C 
ATOM      3  C   LIG     1       5.846  44.888  18.962  0.00  0.00     0.201 C 
ATOM      4  C   LIG     1       7.288  44.800  18.464  0.00  0.00     0.179 C 
ATOM      5  C   LIG     1       8.246  44.445  19.601  0.00  0.00     0.177 C 
ATOM      6  C   LIG     1       7.734  43.234  20.384  0.00  0.00     0.178 C 
ENDROOT
BRANCH   6   7
ATOM      7  C   LIG     1       8.612  42.931  21.595  0.00  0.00     0.197 C 
BRANCH   7   8
ATOM      8  O   LIG     1       9.277  44.121  21.977  0.00  0.00    -0.346 OA
BRANCH   8   9
ATOM      9  C   LIG     1       8.731  44.671  23.172  0.00  0.00     0.281 C 
ATOM     10  O   LIG     1       9.050  46.059  23.319  0.00  0.00    -0.346 OA
ATOM     11  C   LIG     1      10.437  46.312  23.525  0.00  0.00     0.197 C 
ATOM     12  C   LIG     1      10.924  45.628  24.797  0.00  0.00     0.171 C 
ATOM     13  C   LIG     1      10.666  44.122  24.732  0.00  0.00     0.178 C 
ATOM     14  C   LIG     1       9.198  43.852  24.385  0.00  0.00     0.201 C 
BRANCH  12  15
ATOM     15  O   LIG     1      12.310  45.873  24.992  0.00  0.00    -0.387 OA
ATOM     16  H   LIG     1      12.549  46.649  24.457  0.00  0.00     0.210 HD
ENDBRANCH  12  15
BRANCH  13  17
ATOM     17  O   LIG     1      11.507  43.543  23.735  0.00  0.00    -0.386 OA
ATOM     18  H   LIG     1      11.534  42.584  23.895  0.00  0.00     0.210 HD
ENDBRANCH  13  17
BRANCH  14  19
ATOM     19  O   LIG     1       8.378  44.204  25.497  0.00  0.00    -0.384 OA
ATOM     20  H   LIG     1       8.943  44.593  26.185  0.00  0.00     0.210 HD
ENDBRANCH  14  19
ENDBRANCH   8   9
ENDBRANCH   7   8
ENDBRANCH   6   7
BRANCH   5  21
ATOM     21  O   LIG     1       9.530  44.148  19.060  0.00  0.00    -0.386 OA
ATOM     22  H   LIG     1      10.198  44.588  19.614  0.00  0.00     0.210 HD
ENDBRANCH   5  21
BRANCH   2  23
ATOM     23  O   LIG     1       4.172  43.889  20.349  0.00  0.00    -0.345 OA
BRANCH  23  24
ATOM     24  C   LIG     1       3.300  42.808  20.059  0.00  0.00     0.190 C 
BRANCH  24  25
ATOM     25  C   LIG     1       3.049  42.041  21.317  0.00  0.00     0.001 C 
ATOM     26  C   LIG     1       3.157  42.579  22.542  0.00  0.00     0.006 C 
BRANCH  26  27
ATOM     27  C   LIG     1       2.905  41.867  23.807  0.00  0.00    -0.025 A 
ATOM     28  C   LIG     1       3.486  42.332  24.975  0.00  0.00     0.008 A 
ATOM     29  C   LIG     1       3.248  41.658  26.172  0.00  0.00     0.001 A 
ATOM     30  C   LIG     1       2.433  40.526  26.186  0.00  0.00     0.000 A 
ATOM     31  C   LIG     1       1.855  40.069  25.002  0.00  0.00     0.001 A 
ATOM     32  C   LIG     1       2.094  40.743  23.804  0.00  0.00     0.008 A 
ENDBRANCH  26  27
ENDBRANCH  24  25
ENDBRANCH  23  24
ENDBRANCH   2  23
BRANCH   4  33
ATOM     33  O   LIG     1       7.685  46.065  17.931  0.00  0.00    -0.386 OA
ATOM     34  H   LIG     1       7.254  46.754  18.464  0.00  0.00     0.210 HD
ENDBRANCH   4  33
BRANCH   3  35
ATOM     35  O   LIG     1       4.960  44.946  17.844  0.00  0.00    -0.384 OA
ATOM     36  H   LIG     1       4.138  44.489  18.087  0.00  0.00     0.210 HD
ENDBRANCH   3  35
TORSDOF 13
ENDMDL
MODEL 3
REMARK VINA RESULT:      -7.7      2.069      8.571
REMARK  13 active torsions:
REMARK  status: ('A' for Active; 'I' for Inactive)
REMARK    1  A    between atoms: C_2  and  O_12 
REMARK    2  A    between atoms: C_3  and  O_10 
REMARK    3  A    between atoms: C_4  and  O_8 
REMARK    4  A    between atoms: C_5  and  O_6 
REMARK    5  A    between atoms: C_22  and  C_23 
REMARK    6  A    between atoms: O_12  and  C_13 
REMARK    7  A    between atoms: C_13  and  C_14 
REMARK    8  A    between atoms: C_15  and  C_16 
REMARK    9  A    between atoms: C_23  and  O_24 
REMARK   10  A    between atoms: O_24  and  C_25 
REMARK   11  A    between atoms: C_26  and  O_34 
REMARK   12  A    between atoms: C_27  and  O_32 
REMARK   13  A    between atoms: C_28  and  O_30 
ROOT
ATOM      1  O   LIG     1       7.864  43.771  19.801  0.00  0.00    -0.341 OA
ATOM      2  C   LIG     1       8.639  44.612  20.653  0.00  0.00     0.282 C 
ATOM      3  C   LIG     1       8.758  46.015  20.056  0.00  0.00     0.201 C 
ATOM      4  C   LIG     1       7.385  46.602  19.735  0.00  0.00     0.179 C 
ATOM      5  C   LIG     1       6.525  45.607  18.957  0.00  0.00     0.177 C 
ATOM      6  C   LIG     1       6.524  44.238  19.642  0.00  0.00     0.178 C 
ENDROOT
BRANCH   6   7
ATOM      7  C   LIG     1       5.768  43.196  18.822  0.00  0.00     0.197 C 
BRANCH   7   8
ATOM      8  O   LIG     1       4.694  42.703  19.602  0.00  0.00    -0.346 OA
BRANCH   8   9
ATOM      9  C   LIG     1       4.760  43.166  20.946  0.00  0.00     0.281 C 
ATOM     10  O   LIG     1       5.018  42.102  21.869  0.00  0.00    -0.346 OA
ATOM     11  C   LIG     1       3.954  41.158  21.970  0.00  0.00     0.197 C 
ATOM     12  C   LIG     1       2.679  41.837  22.452  0.00  0.00     0.171 C 
ATOM     13  C   LIG     1       2.285  42.976  21.510  0.00  0.00     0.178 C 
ATOM     14  C   LIG     1       3.471  43.923  21.302  0.00  0.00     0.201 C 
BRANCH  12  15
ATOM     15  O   LIG     1       1.619  40.895  22.540  0.00  0.00    -0.387 OA
ATOM     16  H   LIG     1       1.457  40.550  21.645  0.00  0.00     0.210 HD
ENDBRANCH  12  15
BRANCH  13  17
ATOM     17  O   LIG     1       1.884  42.431  20.254  0.00  0.00    -0.386 OA
ATOM     18  H   LIG     1       1.819  43.167  19.622  0.00  0.00     0.210 HD
ENDBRANCH  13  17
BRANCH  14  19
ATOM     19  O   LIG     1       3.707  44.654  22.503  0.00  0.00    -0.384 OA
ATOM     20  H   LIG     1       2.944  44.533  23.092  0.00  0.00     0.210 HD
ENDBRANCH  14  19
ENDBRANCH   8   9
ENDBRANCH   7   8
ENDBRANCH   6   7
BRANCH   5  21
ATOM     21  O   LIG     1       5.189  46.097  18.879  0.00  0.00    -0.386 OA
ATOM     22  H   LIG     1       4.588  45.331  18.884  0.00  0.00     0.210 HD
ENDBRANCH   5  21
BRANCH   2  23
ATOM     23  O   LIG     1       9.955  44.078  20.790  0.00  0.00    -0.345 OA
BRANCH  23  24
ATOM     24  C   LIG     1      10.437  43.569  19.557  0.00  0.00     0.190 C 
BRANCH  24  25
ATOM     25  C   LIG     1      11.745  42.885  19.797  0.00  0.00     0.001 C 
ATOM     26  C   LIG     1      12.220  42.613  21.022  0.00  0.00     0.006 C 
BRANCH  26  27
ATOM     27  C   LIG     1      13.494  41.930  21.306  0.00  0.00    -0.025 A 
ATOM     28  C   LIG     1      14.637  42.309  20.620  0.00  0.00     0.008 A 
ATOM     29  C   LIG     1      15.842  41.662  20.890  0.00  0.00     0.001 A 
ATOM     30  C   LIG     1      15.889  40.643  21.841  0.00  0.00     0.000 A 
ATOM     31  C   LIG     1      14.731  40.271  22.523  0.00  0.00     0.001 A 
ATOM     32  C   LIG     1      13.526  40.919  22.254  0.00  0.00     0.008 A 
ENDBRANCH  26  27
ENDBRANCH  24  25
ENDBRANCH  23  24
ENDBRANCH   2  23
BRANCH   4  33
ATOM     33  O   LIG     1       7.543  47.772  18.930  0.00  0.00    -0.386 OA
ATOM     34  H   LIG     1       7.015  48.479  19.338  0.00  0.00     0.210 HD
ENDBRANCH   4  33
BRANCH   3  35
ATOM     35  O   LIG     1       9.422  46.849  21.005  0.00  0.00    -0.384 OA
ATOM     36  H   LIG     1       9.914  46.277  21.617  0.00  0.00     0.210 HD
ENDBRANCH   3  35
TORSDOF 13
ENDMDL
MODEL 4
REMARK VINA RESULT:      -7.6      2.089      3.169
REMARK  13 active torsions:
REMARK  status: ('A' for Active; 'I' for Inactive)
REMARK    1  A    between atoms: C_2  and  O_12 
REMARK    2  A    between atoms: C_3  and  O_10 
REMARK    3  A    between atoms: C_4  and  O_8 
REMARK    4  A    between atoms: C_5  and  O_6 
REMARK    5  A    between atoms: C_22  and  C_23 
REMARK    6  A    between atoms: O_12  and  C_13 
REMARK    7  A    between atoms: C_13  and  C_14 
REMARK    8  A    between atoms: C_15  and  C_16 
REMARK    9  A    between atoms: C_23  and  O_24 
REMARK   10  A    between atoms: O_24  and  C_25 
REMARK   11  A    between atoms: C_26  and  O_34 
REMARK   12  A    between atoms: C_27  and  O_32 
REMARK   13  A    between atoms: C_28  and  O_30 
ROOT
ATOM      1  O   LIG     1       7.100  44.411  21.056  0.00  0.00    -0.341 OA
ATOM      2  C   LIG     1       5.874  45.088  20.786  0.00  0.00     0.282 C 
ATOM      3  C   LIG     1       6.141  46.541  20.390  0.00  0.00     0.201 C 
ATOM      4  C   LIG     1       7.134  46.629  19.232  0.00  0.00     0.179 C 
ATOM      5  C   LIG     1       8.365  45.762  19.490  0.00  0.00     0.177 C 
ATOM      6  C   LIG     1       7.955  44.349  19.914  0.00  0.00     0.178 C 
ENDROOT
BRANCH   6   7
ATOM      7  C   LIG     1       9.165  43.499  20.291  0.00  0.00     0.197 C 
BRANCH   7   8
ATOM      8  O   LIG     1       9.117  43.237  21.681  0.00  0.00    -0.346 OA
BRANCH   8   9
ATOM      9  C   LIG     1      10.250  43.770  22.359  0.00  0.00     0.281 C 
ATOM     10  O   LIG     1      10.719  42.895  23.391  0.00  0.00    -0.346 OA
ATOM     11  C   LIG     1       9.809  42.750  24.479  0.00  0.00     0.197 C 
ATOM     12  C   LIG     1       9.551  44.094  25.147  0.00  0.00     0.171 C 
ATOM     13  C   LIG     1       9.006  45.103  24.135  0.00  0.00     0.178 C 
ATOM     14  C   LIG     1       9.921  45.167  22.908  0.00  0.00     0.201 C 
BRANCH  12  15
ATOM     15  O   LIG     1       8.635  43.946  26.222  0.00  0.00    -0.387 OA
ATOM     16  H   LIG     1       8.809  43.086  26.641  0.00  0.00     0.210 HD
ENDBRANCH  12  15
BRANCH  13  17
ATOM     17  O   LIG     1       7.696  44.707  23.734  0.00  0.00    -0.386 OA
ATOM     18  H   LIG     1       7.233  45.502  23.417  0.00  0.00     0.210 HD
ENDBRANCH  13  17
BRANCH  14  19
ATOM     19  O   LIG     1      11.148  45.800  23.265  0.00  0.00    -0.384 OA
ATOM     20  H   LIG     1      11.006  46.306  24.083  0.00  0.00     0.210 HD
ENDBRANCH  14  19
ENDBRANCH   8   9
ENDBRANCH   7   8
ENDBRANCH   6   7
BRANCH   5  21
ATOM     21  O   LIG     1       9.149  45.689  18.303  0.00  0.00    -0.386 OA
ATOM     22  H   LIG     1       8.610  46.025  17.566  0.00  0.00     0.210 HD
ENDBRANCH   5  21
BRANCH   2  23
ATOM     23  O   LIG     1       5.058  45.093  21.955  0.00  0.00    -0.345 OA
BRANCH  23  24
ATOM     24  C   LIG     1       3.899  44.294  21.780  0.00  0.00     0.190 C 
BRANCH  24  25
ATOM     25  C   LIG     1       3.707  43.449  22.998  0.00  0.00     0.001 C 
ATOM     26  C   LIG     1       2.844  42.423  23.055  0.00  0.00     0.006 C 
BRANCH  26  27
ATOM     27  C   LIG     1       2.632  41.555  24.227  0.00  0.00    -0.025 A 
ATOM     28  C   LIG     1       1.877  40.402  24.090  0.00  0.00     0.008 A 
ATOM     29  C   LIG     1       1.677  39.581  25.199  0.00  0.00     0.001 A 
ATOM     30  C   LIG     1       2.234  39.924  26.431  0.00  0.00     0.000 A 
ATOM     31  C   LIG     1       2.992  41.088  26.554  0.00  0.00     0.001 A 
ATOM     32  C   LIG     1       3.192  41.909  25.444  0.00  0.00     0.008 A 
ENDBRANCH  26  27
ENDBRANCH  24  25
ENDBRANCH  23  24
ENDBRANCH   2  23
BRANCH   4  33
ATOM     33  O   LIG     1       7.570  47.981  19.081  0.00  0.00    -0.386 OA
ATOM     34  H   LIG     1       7.976  48.251  19.922  0.00  0.00     0.210 HD
ENDBRANCH   4  33
BRANCH   3  35
ATOM     35  O   LIG     1       4.902  47.132  19.999  0.00  0.00    -0.384 OA
ATOM     36  H   LIG     1       4.978  48.094  20.114  0.00  0.00     0.210 HD
ENDBRANCH   3  35
TORSDOF 13
ENDMDL
MODEL 5
REMARK VINA RESULT:      -7.5      1.919      2.816
REMARK  13 active torsions:
REMARK  status: ('A' for Active; 'I' for Inactive)
REMARK    1  A    between atoms: C_2  and  O_12 
REMARK    2  A    between atoms: C_3  and  O_10 
REMARK    3  A    between atoms: C_4  and  O_8 
REMARK    4  A    between atoms: C_5  and  O_6 
REMARK    5  A    between atoms: C_22  and  C_23 
REMARK    6  A    between atoms: O_12  and  C_13 
REMARK    7  A    between atoms: C_13  and  C_14 
REMARK    8  A    between atoms: C_15  and  C_16 
REMARK    9  A    between atoms: C_23  and  O_24 
REMARK   10  A    between atoms: O_24  and  C_25 
REMARK   11  A    between atoms: C_26  and  O_34 
REMARK   12  A    between atoms: C_27  and  O_32 
REMARK   13  A    between atoms: C_28  and  O_30 
ROOT
ATOM      1  O   LIG     1       6.203  43.295  20.857  0.00  0.00    -0.341 OA
ATOM      2  C   LIG     1       5.286  43.614  19.813  0.00  0.00     0.282 C 
ATOM      3  C   LIG     1       5.723  44.887  19.087  0.00  0.00     0.201 C 
ATOM      4  C   LIG     1       7.166  44.780  18.596  0.00  0.00     0.179 C 
ATOM      5  C   LIG     1       8.093  44.282  19.703  0.00  0.00     0.177 C 
ATOM      6  C   LIG     1       7.519  43.029  20.369  0.00  0.00     0.178 C 
ENDROOT
BRANCH   6   7
ATOM      7  C   LIG     1       8.367  42.580  21.555  0.00  0.00     0.197 C 
BRANCH   7   8
ATOM      8  O   LIG     1       8.863  43.730  22.216  0.00  0.00    -0.346 OA
BRANCH   8   9
ATOM      9  C   LIG     1      10.157  43.507  22.765  0.00  0.00     0.281 C 
ATOM     10  O   LIG     1      10.153  43.583  24.195  0.00  0.00    -0.346 OA
ATOM     11  C   LIG     1       9.877  44.887  24.701  0.00  0.00     0.197 C 
ATOM     12  C   LIG     1      10.928  45.882  24.225  0.00  0.00     0.171 C 
ATOM     13  C   LIG     1      10.991  45.911  22.697  0.00  0.00     0.178 C 
ATOM     14  C   LIG     1      11.164  44.490  22.149  0.00  0.00     0.201 C 
BRANCH  12  15
ATOM     15  O   LIG     1      10.641  47.182  24.721  0.00  0.00    -0.387 OA
ATOM     16  H   LIG     1      10.767  47.810  23.989  0.00  0.00     0.210 HD
ENDBRANCH  12  15
BRANCH  13  17
ATOM     17  O   LIG     1       9.785  46.476  22.187  0.00  0.00    -0.386 OA
ATOM     18  H   LIG     1       9.781  47.420  22.423  0.00  0.00     0.210 HD
ENDBRANCH  13  17
BRANCH  14  19
ATOM     19  O   LIG     1      12.477  44.024  22.451  0.00  0.00    -0.384 OA
ATOM     20  H   LIG     1      12.693  43.298  21.842  0.00  0.00     0.210 HD
ENDBRANCH  14  19
ENDBRANCH   8   9
ENDBRANCH   7   8
ENDBRANCH   6   7
BRANCH   5  21
ATOM     21  O   LIG     1       9.370  43.978  19.149  0.00  0.00    -0.386 OA
ATOM     22  H   LIG     1       9.315  43.100  18.733  0.00  0.00     0.210 HD
ENDBRANCH   5  21
BRANCH   2  23
ATOM     23  O   LIG     1       3.990  43.842  20.362  0.00  0.00    -0.345 OA
BRANCH  23  24
ATOM     24  C   LIG     1       3.114  42.760  20.088  0.00  0.00     0.190 C 
BRANCH  24  25
ATOM     25  C   LIG     1       2.941  41.954  21.335  0.00  0.00     0.001 C 
ATOM     26  C   LIG     1       2.882  42.496  22.561  0.00  0.00     0.006 C 
BRANCH  26  27
ATOM     27  C   LIG     1       2.698  41.744  23.815  0.00  0.00    -0.025 A 
ATOM     28  C   LIG     1       1.935  40.587  23.807  0.00  0.00     0.008 A 
ATOM     29  C   LIG     1       1.762  39.875  24.993  0.00  0.00     0.001 A 
ATOM     30  C   LIG     1       2.352  40.330  26.173  0.00  0.00     0.000 A 
ATOM     31  C   LIG     1       3.116  41.496  26.166  0.00  0.00     0.001 A 
ATOM     32  C   LIG     1       3.290  42.208  24.978  0.00  0.00     0.008 A 
ENDBRANCH  26  27
ENDBRANCH  24  25
ENDBRANCH  23  24
ENDBRANCH   2  23
BRANCH   4  33
ATOM     33  O   LIG     1       7.624  46.069  18.183  0.00  0.00    -0.386 OA
ATOM     34  H   LIG     1       7.136  46.307  17.376  0.00  0.00     0.210 HD
ENDBRANCH   4  33
BRANCH   3  35
ATOM     35  O   LIG     1       4.855  45.085  17.971  0.00  0.00    -0.384 OA
ATOM     36  H   LIG     1       4.526  44.216  17.687  0.00  0.00     0.210 HD
ENDBRANCH   3  35
TORSDOF 13
ENDMDL
MODEL 6
REMARK VINA RESULT:      -7.4      1.597      2.302
REMARK  13 active torsions:
REMARK  status: ('A' for Active; 'I' for Inactive)
REMARK    1  A    between atoms: C_2  and  O_12 
REMARK    2  A    between atoms: C_3  and  O_10 
REMARK    3  A    between atoms: C_4  and  O_8 
REMARK    4  A    between atoms: C_5  and  O_6 
REMARK    5  A    between atoms: C_22  and  C_23 
REMARK    6  A    between atoms: O_12  and  C_13 
REMARK    7  A    between atoms: C_13  and  C_14 
REMARK    8  A    between atoms: C_15  and  C_16 
REMARK    9  A    between atoms: C_23  and  O_24 
REMARK   10  A    between atoms: O_24  and  C_25 
REMARK   11  A    between atoms: C_26  and  O_34 
REMARK   12  A    between atoms: C_27  and  O_32 
REMARK   13  A    between atoms: C_28  and  O_30 
ROOT
ATOM      1  O   LIG     1       8.581  44.733  21.160  0.00  0.00    -0.341 OA
ATOM      2  C   LIG     1       7.668  45.175  20.159  0.00  0.00     0.282 C 
ATOM      3  C   LIG     1       8.425  45.670  18.926  0.00  0.00     0.201 C 
ATOM      4  C   LIG     1       9.402  44.614  18.411  0.00  0.00     0.179 C 
ATOM      5  C   LIG     1      10.255  44.049  19.546  0.00  0.00     0.177 C 
ATOM      6  C   LIG     1       9.378  43.629  20.728  0.00  0.00     0.178 C 
ENDROOT
BRANCH   6   7
ATOM      7  C   LIG     1      10.215  43.170  21.918  0.00  0.00     0.197 C 
BRANCH   7   8
ATOM      8  O   LIG     1      11.539  43.642  21.747  0.00  0.00    -0.346 OA
BRANCH   8   9
ATOM      9  C   LIG     1      12.390  43.223  22.808  0.00  0.00     0.281 C 
ATOM     10  O   LIG     1      13.606  43.977  22.850  0.00  0.00    -0.346 OA
ATOM     11  C   LIG     1      14.459  43.758  21.728  0.00  0.00     0.197 C 
ATOM     12  C   LIG     1      14.871  42.293  21.646  0.00  0.00     0.171 C 
ATOM     13  C   LIG     1      13.639  41.391  21.557  0.00  0.00     0.178 C 
ATOM     14  C   LIG     1      12.664  41.715  22.694  0.00  0.00     0.201 C 
BRANCH  12  15
ATOM     15  O   LIG     1      15.710  42.077  20.521  0.00  0.00    -0.387 OA
ATOM     16  H   LIG     1      16.497  42.638  20.628  0.00  0.00     0.210 HD
ENDBRANCH  12  15
BRANCH  13  17
ATOM     17  O   LIG     1      12.994  41.596  20.302  0.00  0.00    -0.386 OA
ATOM     18  H   LIG     1      12.512  42.439  20.355  0.00  0.00     0.210 HD
ENDBRANCH  13  17
BRANCH  14  19
ATOM     19  O   LIG     1      13.217  41.273  23.931  0.00  0.00    -0.384 OA
ATOM     20  H   LIG     1      12.752  41.724  24.655  0.00  0.00     0.210 HD
ENDBRANCH  14  19
ENDBRANCH   8   9
ENDBRANCH   7   8
ENDBRANCH   6   7
BRANCH   5  21
ATOM     21  O   LIG     1      10.982  42.918  19.073  0.00  0.00    -0.386 OA
ATOM     22  H   LIG     1      10.459  42.121  19.272  0.00  0.00     0.210 HD
ENDBRANCH   5  21
BRANCH   2  23
ATOM     23  O   LIG     1       6.888  46.258  20.661  0.00  0.00    -0.345 OA
BRANCH  23  24
ATOM     24  C   LIG     1       5.552  46.197  20.187  0.00  0.00     0.190 C 
BRANCH  24  25
ATOM     25  C   LIG     1       4.896  44.978  20.752  0.00  0.00     0.001 C 
ATOM     26  C   LIG     1       4.273  44.960  21.940  0.00  0.00     0.006 C 
BRANCH  26  27
ATOM     27  C   LIG     1       3.601  43.789  22.529  0.00  0.00    -0.025 A 
ATOM     28  C   LIG     1       2.617  43.135  21.804  0.00  0.00     0.008 A 
ATOM     29  C   LIG     1       1.981  42.026  22.362  0.00  0.00     0.001 A 
ATOM     30  C   LIG     1       2.336  41.586  23.637  0.00  0.00     0.000 A 
ATOM     31  C   LIG     1       3.328  42.254  24.354  0.00  0.00     0.001 A 
ATOM     32  C   LIG     1       3.964  43.363  23.796  0.00  0.00     0.008 A 
ENDBRANCH  26  27
ENDBRANCH  24  25
ENDBRANCH  23  24
ENDBRANCH   2  23
BRANCH   4  33
ATOM     33  O   LIG     1      10.280  45.205  17.451  0.00  0.00    -0.386 OA
ATOM     34  H   LIG     1      10.779  44.485  17.031  0.00  0.00     0.210 HD
ENDBRANCH   4  33
BRANCH   3  35
ATOM     35  O   LIG     1       7.471  45.970  17.907  0.00  0.00    -0.384 OA
ATOM     36  H   LIG     1       7.804  45.612  17.067  0.00  0.00     0.210 HD
ENDBRANCH   3  35
TORSDOF 13
ENDMDL
MODEL 7
REMARK VINA RESULT:      -7.4      2.690      5.141
REMARK  13 active torsions:
REMARK  status: ('A' for Active; 'I' for Inactive)
REMARK    1  A    between atoms: C_2  and  O_12 
REMARK    2  A    between atoms: C_3  and  O_10 
REMARK    3  A    between atoms: C_4  and  O_8 
REMARK    4  A    between atoms: C_5  and  O_6 
REMARK    5  A    between atoms: C_22  and  C_23 
REMARK    6  A    between atoms: O_12  and  C_13 
REMARK    7  A    between atoms: C_13  and  C_14 
REMARK    8  A    between atoms: C_15  and  C_16 
REMARK    9  A    between atoms: C_23  and  O_24 
REMARK   10  A    between atoms: O_24  and  C_25 
REMARK   11  A    between atoms: C_26  and  O_34 
REMARK   12  A    between atoms: C_27  and  O_32 
REMARK   13  A    between atoms: C_28  and  O_30 
ROOT
ATOM      1  O   LIG     1      10.824  44.026  19.922  0.00  0.00    -0.341 OA
ATOM      2  C   LIG     1      10.428  44.447  18.619  0.00  0.00     0.282 C 
ATOM      3  C   LIG     1      11.591  45.135  17.903  0.00  0.00     0.201 C 
ATOM      4  C   LIG     1      12.837  44.251  17.887  0.00  0.00     0.179 C 
ATOM      5  C   LIG     1      13.136  43.690  19.276  0.00  0.00     0.177 C 
ATOM      6  C   LIG     1      11.881  43.066  19.891  0.00  0.00     0.178 C 
ENDROOT
BRANCH   6   7
ATOM      7  C   LIG     1      12.124  42.603  21.325  0.00  0.00     0.197 C 
BRANCH   7   8
ATOM      8  O   LIG     1      11.060  43.068  22.135  0.00  0.00    -0.346 OA
BRANCH   8   9
ATOM      9  C   LIG     1      11.535  43.665  23.337  0.00  0.00     0.281 C 
ATOM     10  O   LIG     1      10.716  43.329  24.463  0.00  0.00    -0.346 OA
ATOM     11  C   LIG     1       9.401  43.876  24.401  0.00  0.00     0.197 C 
ATOM     12  C   LIG     1       9.454  45.397  24.355  0.00  0.00     0.171 C 
ATOM     13  C   LIG     1      10.279  45.872  23.157  0.00  0.00     0.178 C 
ATOM     14  C   LIG     1      11.649  45.186  23.156  0.00  0.00     0.201 C 
BRANCH  12  15
ATOM     15  O   LIG     1       8.142  45.937  24.281  0.00  0.00    -0.387 OA
ATOM     16  H   LIG     1       7.919  46.041  23.339  0.00  0.00     0.210 HD
ENDBRANCH  12  15
BRANCH  13  17
ATOM     17  O   LIG     1       9.585  45.554  21.952  0.00  0.00    -0.386 OA
ATOM     18  H   LIG     1       9.225  44.656  22.049  0.00  0.00     0.210 HD
ENDBRANCH  13  17
BRANCH  14  19
ATOM     19  O   LIG     1      12.435  45.700  24.228  0.00  0.00    -0.384 OA
ATOM     20  H   LIG     1      12.955  46.451  23.896  0.00  0.00     0.210 HD
ENDBRANCH  14  19
ENDBRANCH   8   9
ENDBRANCH   7   8
ENDBRANCH   6   7
BRANCH   5  21
ATOM     21  O   LIG     1      14.155  42.698  19.176  0.00  0.00    -0.386 OA
ATOM     22  H   LIG     1      13.914  41.961  19.763  0.00  0.00     0.210 HD
ENDBRANCH   5  21
BRANCH   2  23
ATOM     23  O   LIG     1       9.356  45.382  18.718  0.00  0.00    -0.345 OA
BRANCH  23  24
ATOM     24  C   LIG     1       8.179  44.886  18.101  0.00  0.00     0.190 C 
BRANCH  24  25
ATOM     25  C   LIG     1       7.151  44.635  19.157  0.00  0.00     0.001 C 
ATOM     26  C   LIG     1       5.844  44.482  18.893  0.00  0.00     0.006 C 
BRANCH  26  27
ATOM     27  C   LIG     1       4.799  44.219  19.897  0.00  0.00    -0.025 A 
ATOM     28  C   LIG     1       4.567  45.151  20.896  0.00  0.00     0.008 A 
ATOM     29  C   LIG     1       3.578  44.902  21.846  0.00  0.00     0.001 A 
ATOM     30  C   LIG     1       2.834  43.724  21.787  0.00  0.00     0.000 A 
ATOM     31  C   LIG     1       3.078  42.794  20.776  0.00  0.00     0.001 A 
ATOM     32  C   LIG     1       4.068  43.044  19.825  0.00  0.00     0.008 A 
ENDBRANCH  26  27
ENDBRANCH  24  25
ENDBRANCH  23  24
ENDBRANCH   2  23
BRANCH   4  33
ATOM     33  O   LIG     1      13.964  45.025  17.471  0.00  0.00    -0.386 OA
ATOM     34  H   LIG     1      14.245  44.686  16.604  0.00  0.00     0.210 HD
ENDBRANCH   4  33
BRANCH   3  35
ATOM     35  O   LIG     1      11.189  45.413  16.562  0.00  0.00    -0.384 OA
ATOM     36  H   LIG     1      10.974  44.569  16.130  0.00  0.00     0.210 HD
ENDBRANCH   3  35
TORSDOF 13
ENDMDL
MODEL 8
REMARK VINA RESULT:      -7.3      2.498      4.311
REMARK  13 active torsions:
REMARK  status: ('A' for Active; 'I' for Inactive)
REMARK    1  A    between atoms: C_2  and  O_12 
REMARK    2  A    between atoms: C_3  and  O_10 
REMARK    3  A    between atoms: C_4  and  O_8 
REMARK    4  A    between atoms: C_5  and  O_6 
REMARK    5  A    between atoms: C_22  and  C_23 
REMARK    6  A    between atoms: O_12  and  C_13 
REMARK    7  A    between atoms: C_13  and  C_14 
REMARK    8  A    between atoms: C_15  and  C_16 
REMARK    9  A    between atoms: C_23  and  O_24 
REMARK   10  A    between atoms: O_24  and  C_25 
REMARK   11  A    between atoms: C_26  and  O_34 
REMARK   12  A    between atoms: C_27  and  O_32 
REMARK   13  A    between atoms: C_28  and  O_30 
ROOT
ATOM      1  O   LIG     1       7.740  46.192  20.974  0.00  0.00    -0.341 OA
ATOM      2  C   LIG     1       6.938  45.795  19.865  0.00  0.00     0.282 C 
ATOM      3  C   LIG     1       7.771  45.769  18.583  0.00  0.00     0.201 C 
ATOM      4  C   LIG     1       9.021  44.906  18.749  0.00  0.00     0.179 C 
ATOM      5  C   LIG     1       9.769  45.255  20.035  0.00  0.00     0.177 C 
ATOM      6  C   LIG     1       8.812  45.283  21.229  0.00  0.00     0.178 C 
ENDROOT
BRANCH   6   7
ATOM      7  C   LIG     1       9.513  45.743  22.504  0.00  0.00     0.197 C 
BRANCH   7   8
ATOM      8  O   LIG     1       8.862  45.151  23.614  0.00  0.00    -0.346 OA
BRANCH   8   9
ATOM      9  C   LIG     1       8.474  43.808  23.345  0.00  0.00     0.281 C 
ATOM     10  O   LIG     1       7.069  43.608  23.530  0.00  0.00    -0.346 OA
ATOM     11  C   LIG     1       6.644  43.736  24.885  0.00  0.00     0.197 C 
ATOM     12  C   LIG     1       7.339  42.705  25.765  0.00  0.00     0.171 C 
ATOM     13  C   LIG     1       8.858  42.854  25.674  0.00  0.00     0.178 C 
ATOM     14  C   LIG     1       9.302  42.842  24.207  0.00  0.00     0.201 C 
BRANCH  12  15
ATOM     15  O   LIG     1       6.921  42.844  27.116  0.00  0.00    -0.387 OA
ATOM     16  H   LIG     1       6.301  43.593  27.156  0.00  0.00     0.210 HD
ENDBRANCH  12  15
BRANCH  13  17
ATOM     17  O   LIG     1       9.248  44.085  26.280  0.00  0.00    -0.386 OA
ATOM     18  H   LIG     1      10.215  44.160  26.196  0.00  0.00     0.210 HD
ENDBRANCH  13  17
BRANCH  14  19
ATOM     19  O   LIG     1       9.141  41.529  23.676  0.00  0.00    -0.384 OA
ATOM     20  H   LIG     1      10.021  41.144  23.535  0.00  0.00     0.210 HD
ENDBRANCH  14  19
ENDBRANCH   8   9
ENDBRANCH   7   8
ENDBRANCH   6   7
BRANCH   5  21
ATOM     21  O   LIG     1      10.786  44.284  20.268  0.00  0.00    -0.386 OA
ATOM     22  H   LIG     1      10.656  43.923  21.162  0.00  0.00     0.210 HD
ENDBRANCH   5  21
BRANCH   2  23
ATOM     23  O   LIG     1       5.874  46.727  19.680  0.00  0.00    -0.345 OA
BRANCH  23  24
ATOM     24  C   LIG     1       4.948  46.674  20.753  0.00  0.00     0.190 C 
BRANCH  24  25
ATOM     25  C   LIG     1       4.543  45.251  20.969  0.00  0.00     0.001 C 
ATOM     26  C   LIG     1       3.591  44.880  21.840  0.00  0.00     0.006 C 
BRANCH  26  27
ATOM     27  C   LIG     1       3.149  43.495  22.075  0.00  0.00    -0.025 A 
ATOM     28  C   LIG     1       3.371  42.912  23.313  0.00  0.00     0.008 A 
ATOM     29  C   LIG     1       2.953  41.601  23.536  0.00  0.00     0.001 A 
ATOM     30  C   LIG     1       2.319  40.888  22.518  0.00  0.00     0.000 A 
ATOM     31  C   LIG     1       2.103  41.487  21.278  0.00  0.00     0.001 A 
ATOM     32  C   LIG     1       2.521  42.799  21.055  0.00  0.00     0.008 A 
ENDBRANCH  26  27
ENDBRANCH  24  25
ENDBRANCH  23  24
ENDBRANCH   2  23
BRANCH   4  33
ATOM     33  O   LIG     1       9.904  45.131  17.649  0.00  0.00    -0.386 OA
ATOM     34  H   LIG     1      10.714  45.536  18.004  0.00  0.00     0.210 HD
ENDBRANCH   4  33
BRANCH   3  35
ATOM     35  O   LIG     1       6.962  45.237  17.534  0.00  0.00    -0.384 OA
ATOM     36  H   LIG     1       6.487  44.464  17.883  0.00  0.00     0.210 HD
ENDBRANCH   3  35
TORSDOF 13
ENDMDL
MODEL 9
REMARK VINA RESULT:      -7.3      2.429      8.891
REMARK  13 active torsions:
REMARK  status: ('A' for Active; 'I' for Inactive)
REMARK    1  A    between atoms: C_2  and  O_12 
REMARK    2  A    between atoms: C_3  and  O_10 
REMARK    3  A    between atoms: C_4  and  O_8 
REMARK    4  A    between atoms: C_5  and  O_6 
REMARK    5  A    between atoms: C_22  and  C_23 
REMARK    6  A    between atoms: O_12  and  C_13 
REMARK    7  A    between atoms: C_13  and  C_14 
REMARK    8  A    between atoms: C_15  and  C_16 
REMARK    9  A    between atoms: C_23  and  O_24 
REMARK   10  A    between atoms: O_24  and  C_25 
REMARK   11  A    between atoms: C_26  and  O_34 
REMARK   12  A    between atoms: C_27  and  O_32 
REMARK   13  A    between atoms: C_28  and  O_30 
ROOT
ATOM      1  O   LIG     1       9.707  43.348  20.485  0.00  0.00    -0.341 OA
ATOM      2  C   LIG     1      10.547  43.967  19.514  0.00  0.00     0.282 C 
ATOM      3  C   LIG     1       9.713  44.512  18.354  0.00  0.00     0.201 C 
ATOM      4  C   LIG     1       8.604  45.437  18.853  0.00  0.00     0.179 C 
ATOM      5  C   LIG     1       7.826  44.799  20.003  0.00  0.00     0.177 C 
ATOM      6  C   LIG     1       8.781  44.263  21.073  0.00  0.00     0.178 C 
ENDROOT
BRANCH   6   7
ATOM      7  C   LIG     1       8.033  43.518  22.175  0.00  0.00     0.197 C 
BRANCH   7   8
ATOM      8  O   LIG     1       6.711  43.269  21.734  0.00  0.00    -0.346 OA
BRANCH   8   9
ATOM      9  C   LIG     1       5.821  43.058  22.825  0.00  0.00     0.281 C 
ATOM     10  O   LIG     1       5.165  41.787  22.744  0.00  0.00    -0.346 OA
ATOM     11  C   LIG     1       4.263  41.675  21.646  0.00  0.00     0.197 C 
ATOM     12  C   LIG     1       3.157  42.717  21.751  0.00  0.00     0.171 C 
ATOM     13  C   LIG     1       3.748  44.127  21.805  0.00  0.00     0.178 C 
ATOM     14  C   LIG     1       4.810  44.211  22.907  0.00  0.00     0.201 C 
BRANCH  12  15
ATOM     15  O   LIG     1       2.268  42.609  20.648  0.00  0.00    -0.387 OA
ATOM     16  H   LIG     1       1.369  42.778  20.978  0.00  0.00     0.210 HD
ENDBRANCH  12  15
BRANCH  13  17
ATOM     17  O   LIG     1       4.341  44.438  20.546  0.00  0.00    -0.386 OA
ATOM     18  H   LIG     1       4.303  43.635  19.998  0.00  0.00     0.210 HD
ENDBRANCH  13  17
BRANCH  14  19
ATOM     19  O   LIG     1       4.174  44.151  24.181  0.00  0.00    -0.384 OA
ATOM     20  H   LIG     1       4.831  43.869  24.840  0.00  0.00     0.210 HD
ENDBRANCH  14  19
ENDBRANCH   8   9
ENDBRANCH   7   8
ENDBRANCH   6   7
BRANCH   5  21
ATOM     21  O   LIG     1       6.963  45.772  20.586  0.00  0.00    -0.386 OA
ATOM     22  H   LIG     1       6.309  45.303  21.133  0.00  0.00     0.210 HD
ENDBRANCH   5  21
BRANCH   2  23
ATOM     23  O   LIG     1      11.462  43.008  18.987  0.00  0.00    -0.345 OA
BRANCH  23  24
ATOM     24  C   LIG     1      12.803  43.457  19.100  0.00  0.00     0.190 C 
BRANCH  24  25
ATOM     25  C   LIG     1      13.617  42.387  19.752  0.00  0.00     0.001 C 
ATOM     26  C   LIG     1      14.582  42.638  20.650  0.00  0.00     0.006 C 
BRANCH  26  27
ATOM     27  C   LIG     1      15.398  41.616  21.328  0.00  0.00    -0.025 A 
ATOM     28  C   LIG     1      14.803  40.777  22.256  0.00  0.00     0.008 A 
ATOM     29  C   LIG     1      15.576  39.810  22.897  0.00  0.00     0.001 A 
ATOM     30  C   LIG     1      16.934  39.694  22.604  0.00  0.00     0.000 A 
ATOM     31  C   LIG     1      17.520  40.546  21.667  0.00  0.00     0.001 A 
ATOM     32  C   LIG     1      16.747  41.513  21.025  0.00  0.00     0.008 A 
ENDBRANCH  26  27
ENDBRANCH  24  25
ENDBRANCH  23  24
ENDBRANCH   2  23
BRANCH   4  33
ATOM     33  O   LIG     1       7.686  45.695  17.788  0.00  0.00    -0.386 OA
ATOM     34  H   LIG     1       6.971  46.247  18.148  0.00  0.00     0.210 HD
ENDBRANCH   4  33
BRANCH   3  35
ATOM     35  O   LIG     1      10.581  45.238  17.483  0.00  0.00    -0.384 OA
ATOM     36  H   LIG     1      11.352  45.528  17.999  0.00  0.00     0.210 HD
ENDBRANCH   3  35
TORSDOF 13
ENDMDL
