MODEL 1
REMARK VINA RESULT:      -8.4      0.000      0.000
REMARK  21 active torsions:
REMARK  status: ('A' for Active; 'I' for Inactive)
REMARK    1  A    between atoms: C_2  and  O_11 
REMARK    2  A    between atoms: C_3  and  O_7 
REMARK    3  A    between atoms: C_4  and  O_42 
REMARK    4  A    between atoms: C_5  and  O_9 
REMARK    5  A    between atoms: C_6  and  C_26 
REMARK    6  A    between atoms: O_11  and  C_12 
REMARK    7  A    between atoms: C_12  and  C_14 
REMARK    8  A    between atoms: C_16  and  O_20 
REMARK    9  A    between atoms: C_17  and  O_22 
REMARK   10  A    between atoms: C_18  and  O_24 
REMARK   11  A    between atoms: C_26  and  O_27 
REMARK   12  A    between atoms: O_27  and  C_28 
REMARK   13  A    between atoms: C_28  and  C_30 
REMARK   14  A    between atoms: C_32  and  O_36 
REMARK   15  A    between atoms: C_33  and  O_38 
REMARK   16  A    between atoms: C_34  and  O_40 
REMARK   17  A    between atoms: O_42  and  C_43 
REMARK   18  A    between atoms: C_43  and  C_45 
REMARK   19  A    between atoms: C_47  and  O_51 
REMARK   20  A    between atoms: C_48  and  O_53 
REMARK   21  A    between atoms: C_49  and  O_55 
ROOT
ATOM      1  O   UNL     1     182.873 182.874 172.583  0.00  0.00    -0.330 OA
ATOM      2  C   UNL     1     181.713 183.039 173.395  0.00  0.00     0.344 C 
ATOM      3  C   UNL     1     180.852 184.190 172.873  0.00  0.00     0.226 C 
ATOM      4  C   UNL     1     180.516 184.005 171.393  0.00  0.00     0.242 C 
ATOM      5  C   UNL     1     181.766 183.672 170.578  0.00  0.00     0.190 C 
ATOM      6  C   UNL     1     182.552 182.533 171.233  0.00  0.00     0.192 C 
ENDROOT
BRANCH   6   7
ATOM      7  C   UNL     1     183.863 182.260 170.503  0.00  0.00     0.266 C 
BRANCH   7   8
ATOM      8  O   UNL     1     184.361 183.487 169.999  0.00  0.00    -0.458 OA
BRANCH   8   9
ATOM      9  C   UNL     1     185.663 183.488 169.593  0.00  0.00     0.340 C 
ATOM     10  O   UNL     1     186.162 182.713 168.791  0.00  0.00    -0.245 OA
BRANCH   9  11
ATOM     11  C   UNL     1     186.428 184.572 170.260  0.00  0.00     0.066 A 
ATOM     12  C   UNL     1     187.810 184.656 170.090  0.00  0.00     0.064 A 
ATOM     13  C   UNL     1     188.529 185.675 170.714  0.00  0.00     0.163 A 
ATOM     14  C   UNL     1     187.866 186.610 171.508  0.00  0.00     0.201 A 
ATOM     15  C   UNL     1     186.484 186.527 171.678  0.00  0.00     0.163 A 
ATOM     16  C   UNL     1     185.766 185.508 171.054  0.00  0.00     0.064 A 
BRANCH  13  17
ATOM     17  O   UNL     1     189.879 185.747 170.540  0.00  0.00    -0.503 OA
ATOM     18  H   UNL     1     190.103 186.605 170.141  0.00  0.00     0.292 HD
ENDBRANCH  13  17
BRANCH  14  19
ATOM     19  O   UNL     1     188.568 187.607 172.120  0.00  0.00    -0.501 OA
ATOM     20  H   UNL     1     188.249 187.688 173.036  0.00  0.00     0.292 HD
ENDBRANCH  14  19
BRANCH  15  21
ATOM     21  O   UNL     1     185.824 187.434 172.450  0.00  0.00    -0.503 OA
ATOM     22  H   UNL     1     185.010 187.027 172.793  0.00  0.00     0.292 HD
ENDBRANCH  15  21
ENDBRANCH   9  11
ENDBRANCH   8   9
ENDBRANCH   7   8
ENDBRANCH   6   7
BRANCH   5  23
ATOM     23  O   UNL     1     181.382 183.284 169.263  0.00  0.00    -0.385 OA
ATOM     24  H   UNL     1     182.041 183.635 168.640  0.00  0.00     0.210 HD
ENDBRANCH   5  23
BRANCH   4  25
ATOM     25  O   UNL     1     179.963 185.217 170.877  0.00  0.00    -0.452 OA
BRANCH  25  26
ATOM     26  C   UNL     1     178.894 185.074 170.050  0.00  0.00     0.340 C 
ATOM     27  O   UNL     1     178.425 184.019 169.654  0.00  0.00    -0.245 OA
BRANCH  26  28
ATOM     28  C   UNL     1     178.349 186.402 169.670  0.00  0.00     0.066 A 
ATOM     29  C   UNL     1     178.906 187.564 170.205  0.00  0.00     0.064 A 
ATOM     30  C   UNL     1     178.396 188.812 169.846  0.00  0.00     0.163 A 
ATOM     31  C   UNL     1     177.328 188.898 168.954  0.00  0.00     0.201 A 
ATOM     32  C   UNL     1     176.770 187.736 168.419  0.00  0.00     0.163 A 
ATOM     33  C   UNL     1     177.281 186.488 168.778  0.00  0.00     0.064 A 
BRANCH  30  34
ATOM     34  O   UNL     1     178.949 189.939 170.375  0.00  0.00    -0.503 OA
ATOM     35  H   UNL     1     178.639 190.046 171.291  0.00  0.00     0.292 HD
ENDBRANCH  30  34
BRANCH  31  36
ATOM     36  O   UNL     1     176.827 190.117 168.605  0.00  0.00    -0.501 OA
ATOM     37  H   UNL     1     176.220 190.411 169.306  0.00  0.00     0.292 HD
ENDBRANCH  31  36
BRANCH  32  38
ATOM     38  O   UNL     1     175.726 187.806 167.547  0.00  0.00    -0.503 OA
ATOM     39  H   UNL     1     175.108 188.496 167.845  0.00  0.00     0.292 HD
ENDBRANCH  32  38
ENDBRANCH  26  28
ENDBRANCH  25  26
ENDBRANCH   4  25
BRANCH   2  40
ATOM     40  O   UNL     1     182.102 183.353 174.732  0.00  0.00    -0.429 OA
BRANCH  40  41
ATOM     41  C   UNL     1     183.152 182.645 175.225  0.00  0.00     0.342 C 
ATOM     42  O   UNL     1     183.100 181.533 175.728  0.00  0.00    -0.245 OA
BRANCH  41  43
ATOM     43  C   UNL     1     184.415 183.412 175.074  0.00  0.00     0.066 A 
ATOM     44  C   UNL     1     185.573 182.770 174.638  0.00  0.00     0.064 A 
ATOM     45  C   UNL     1     186.760 183.490 174.498  0.00  0.00     0.163 A 
ATOM     46  C   UNL     1     186.788 184.852 174.795  0.00  0.00     0.201 A 
ATOM     47  C   UNL     1     185.628 185.495 175.231  0.00  0.00     0.163 A 
ATOM     48  C   UNL     1     184.442 184.775 175.371  0.00  0.00     0.064 A 
BRANCH  45  49
ATOM     49  O   UNL     1     187.884 182.850 174.072  0.00  0.00    -0.503 OA
ATOM     50  H   UNL     1     188.440 182.637 174.840  0.00  0.00     0.292 HD
ENDBRANCH  45  49
BRANCH  46  51
ATOM     51  O   UNL     1     187.946 185.556 174.658  0.00  0.00    -0.501 OA
ATOM     52  H   UNL     1     188.663 185.053 175.083  0.00  0.00     0.292 HD
ENDBRANCH  46  51
BRANCH  47  53
ATOM     53  O   UNL     1     185.643 186.825 175.525  0.00  0.00    -0.503 OA
ATOM     54  H   UNL     1     184.748 187.105 175.782  0.00  0.00     0.292 HD
ENDBRANCH  47  53
ENDBRANCH  41  43
ENDBRANCH  40  41
ENDBRANCH   2  40
BRANCH   3  55
ATOM     55  O   UNL     1     179.644 184.225 173.632  0.00  0.00    -0.382 OA
ATOM     56  H   UNL     1     179.876 184.395 174.561  0.00  0.00     0.210 HD
ENDBRANCH   3  55
TORSDOF 21
ENDMDL
MODEL 2
REMARK VINA RESULT:      -8.4      5.124     10.096
REMARK  21 active torsions:
REMARK  status: ('A' for Active; 'I' for Inactive)
REMARK    1  A    between atoms: C_2  and  O_11 
REMARK    2  A    between atoms: C_3  and  O_7 
REMARK    3  A    between atoms: C_4  and  O_42 
REMARK    4  A    between atoms: C_5  and  O_9 
REMARK    5  A    between atoms: C_6  and  C_26 
REMARK    6  A    between atoms: O_11  and  C_12 
REMARK    7  A    between atoms: C_12  and  C_14 
REMARK    8  A    between atoms: C_16  and  O_20 
REMARK    9  A    between atoms: C_17  and  O_22 
REMARK   10  A    between atoms: C_18  and  O_24 
REMARK   11  A    between atoms: C_26  and  O_27 
REMARK   12  A    between atoms: O_27  and  C_28 
REMARK   13  A    between atoms: C_28  and  C_30 
REMARK   14  A    between atoms: C_32  and  O_36 
REMARK   15  A    between atoms: C_33  and  O_38 
REMARK   16  A    between atoms: C_34  and  O_40 
REMARK   17  A    between atoms: O_42  and  C_43 
REMARK   18  A    between atoms: C_43  and  C_45 
REMARK   19  A    between atoms: C_47  and  O_51 
REMARK   20  A    between atoms: C_48  and  O_53 
REMARK   21  A    between atoms: C_49  and  O_55 
ROOT
ATOM      1  O   UNL     1     180.606 180.777 171.285  0.00  0.00    -0.330 OA
ATOM      2  C   UNL     1     181.216 180.563 172.556  0.00  0.00     0.344 C 
ATOM      3  C   UNL     1     182.503 181.379 172.677  0.00  0.00     0.226 C 
ATOM      4  C   UNL     1     182.254 182.858 172.382  0.00  0.00     0.242 C 
ATOM      5  C   UNL     1     181.457 183.039 171.090  0.00  0.00     0.190 C 
ATOM      6  C   UNL     1     180.219 182.138 171.085  0.00  0.00     0.192 C 
ENDROOT
BRANCH   6   7
ATOM      7  C   UNL     1     179.472 182.214 169.758  0.00  0.00     0.266 C 
BRANCH   7   8
ATOM      8  O   UNL     1     178.371 181.326 169.810  0.00  0.00    -0.458 OA
BRANCH   8   9
ATOM      9  C   UNL     1     178.392 180.285 168.928  0.00  0.00     0.340 C 
ATOM     10  O   UNL     1     179.012 180.254 167.875  0.00  0.00    -0.245 OA
BRANCH   9  11
ATOM     11  C   UNL     1     177.545 179.163 169.407  0.00  0.00     0.066 A 
ATOM     12  C   UNL     1     176.420 179.424 170.189  0.00  0.00     0.064 A 
ATOM     13  C   UNL     1     175.623 178.371 170.637  0.00  0.00     0.163 A 
ATOM     14  C   UNL     1     175.951 177.057 170.304  0.00  0.00     0.201 A 
ATOM     15  C   UNL     1     177.077 176.797 169.523  0.00  0.00     0.163 A 
ATOM     16  C   UNL     1     177.873 177.850 169.074  0.00  0.00     0.064 A 
BRANCH  13  17
ATOM     17  O   UNL     1     174.526 178.638 171.400  0.00  0.00    -0.503 OA
ATOM     18  H   UNL     1     174.275 177.836 171.889  0.00  0.00     0.292 HD
ENDBRANCH  13  17
BRANCH  14  19
ATOM     19  O   UNL     1     175.174 176.027 170.744  0.00  0.00    -0.501 OA
ATOM     20  H   UNL     1     175.543 175.195 170.397  0.00  0.00     0.292 HD
ENDBRANCH  14  19
BRANCH  15  21
ATOM     21  O   UNL     1     177.409 175.518 169.189  0.00  0.00    -0.503 OA
ATOM     22  H   UNL     1     177.203 174.931 169.936  0.00  0.00     0.292 HD
ENDBRANCH  15  21
ENDBRANCH   9  11
ENDBRANCH   8   9
ENDBRANCH   7   8
ENDBRANCH   6   7
BRANCH   5  23
ATOM     23  O   UNL     1     181.050 184.399 170.974  0.00  0.00    -0.385 OA
ATOM     24  H   UNL     1     180.498 184.481 170.178  0.00  0.00     0.210 HD
ENDBRANCH   5  23
BRANCH   4  25
ATOM     25  O   UNL     1     183.505 183.529 172.228  0.00  0.00    -0.452 OA
BRANCH  25  26
ATOM     26  C   UNL     1     183.642 184.693 172.915  0.00  0.00     0.340 C 
ATOM     27  O   UNL     1     182.912 185.668 172.833  0.00  0.00    -0.245 OA
BRANCH  26  28
ATOM     28  C   UNL     1     184.828 184.635 173.806  0.00  0.00     0.066 A 
ATOM     29  C   UNL     1     185.836 183.703 173.566  0.00  0.00     0.064 A 
ATOM     30  C   UNL     1     186.952 183.651 174.402  0.00  0.00     0.163 A 
ATOM     31  C   UNL     1     187.058 184.530 175.479  0.00  0.00     0.201 A 
ATOM     32  C   UNL     1     186.048 185.463 175.720  0.00  0.00     0.163 A 
ATOM     33  C   UNL     1     184.933 185.515 174.883  0.00  0.00     0.064 A 
BRANCH  30  34
ATOM     34  O   UNL     1     187.931 182.736 174.156  0.00  0.00    -0.503 OA
ATOM     35  H   UNL     1     187.579 182.043 173.571  0.00  0.00     0.292 HD
ENDBRANCH  30  34
BRANCH  31  36
ATOM     36  O   UNL     1     188.147 184.478 176.298  0.00  0.00    -0.501 OA
ATOM     37  H   UNL     1     188.735 185.220 176.074  0.00  0.00     0.292 HD
ENDBRANCH  31  36
BRANCH  32  38
ATOM     38  O   UNL     1     186.139 186.328 176.769  0.00  0.00    -0.503 OA
ATOM     39  H   UNL     1     186.228 185.819 177.593  0.00  0.00     0.292 HD
ENDBRANCH  32  38
ENDBRANCH  26  28
ENDBRANCH  25  26
ENDBRANCH   4  25
BRANCH   2  40
ATOM     40  O   UNL     1     181.554 179.184 172.702  0.00  0.00    -0.429 OA
BRANCH  40  41
ATOM     41  C   UNL     1     180.575 178.298 172.384  0.00  0.00     0.342 C 
ATOM     42  O   UNL     1     179.394 178.388 172.684  0.00  0.00    -0.245 OA
BRANCH  41  43
ATOM     43  C   UNL     1     181.130 177.166 171.599  0.00  0.00     0.066 A 
ATOM     44  C   UNL     1     180.292 176.139 171.167  0.00  0.00     0.064 A 
ATOM     45  C   UNL     1     180.816 175.074 170.431  0.00  0.00     0.163 A 
ATOM     46  C   UNL     1     182.176 175.038 170.128  0.00  0.00     0.201 A 
ATOM     47  C   UNL     1     183.014 176.067 170.560  0.00  0.00     0.163 A 
ATOM     48  C   UNL     1     182.492 177.130 171.296  0.00  0.00     0.064 A 
BRANCH  45  49
ATOM     49  O   UNL     1     179.985 174.077 170.016  0.00  0.00    -0.503 OA
ATOM     50  H   UNL     1     180.174 173.272 170.529  0.00  0.00     0.292 HD
ENDBRANCH  45  49
BRANCH  46  51
ATOM     51  O   UNL     1     182.686 173.999 169.409  0.00  0.00    -0.501 OA
ATOM     52  H   UNL     1     183.023 173.331 170.031  0.00  0.00     0.292 HD
ENDBRANCH  46  51
BRANCH  47  53
ATOM     53  O   UNL     1     184.345 176.042 170.271  0.00  0.00    -0.503 OA
ATOM     54  H   UNL     1     184.671 175.129 170.343  0.00  0.00     0.292 HD
ENDBRANCH  47  53
ENDBRANCH  41  43
ENDBRANCH  40  41
ENDBRANCH   2  40
BRANCH   3  55
ATOM     55  O   UNL     1     182.998 181.238 174.008  0.00  0.00    -0.382 OA
ATOM     56  H   UNL     1     183.745 181.850 174.119  0.00  0.00     0.210 HD
ENDBRANCH   3  55
TORSDOF 21
ENDMDL
MODEL 3
REMARK VINA RESULT:      -8.4      5.242      9.855
REMARK  21 active torsions:
REMARK  status: ('A' for Active; 'I' for Inactive)
REMARK    1  A    between atoms: C_2  and  O_11 
REMARK    2  A    between atoms: C_3  and  O_7 
REMARK    3  A    between atoms: C_4  and  O_42 
REMARK    4  A    between atoms: C_5  and  O_9 
REMARK    5  A    between atoms: C_6  and  C_26 
REMARK    6  A    between atoms: O_11  and  C_12 
REMARK    7  A    between atoms: C_12  and  C_14 
REMARK    8  A    between atoms: C_16  and  O_20 
REMARK    9  A    between atoms: C_17  and  O_22 
REMARK   10  A    between atoms: C_18  and  O_24 
REMARK   11  A    between atoms: C_26  and  O_27 
REMARK   12  A    between atoms: O_27  and  C_28 
REMARK   13  A    between atoms: C_28  and  C_30 
REMARK   14  A    between atoms: C_32  and  O_36 
REMARK   15  A    between atoms: C_33  and  O_38 
REMARK   16  A    between atoms: C_34  and  O_40 
REMARK   17  A    between atoms: O_42  and  C_43 
REMARK   18  A    between atoms: C_43  and  C_45 
REMARK   19  A    between atoms: C_47  and  O_51 
REMARK   20  A    between atoms: C_48  and  O_53 
REMARK   21  A    between atoms: C_49  and  O_55 
ROOT
ATOM      1  O   UNL     1     180.921 180.484 171.107  0.00  0.00    -0.330 OA
ATOM      2  C   UNL     1     181.324 180.405 172.472  0.00  0.00     0.344 C 
ATOM      3  C   UNL     1     182.612 181.197 172.698  0.00  0.00     0.226 C 
ATOM      4  C   UNL     1     182.473 182.637 172.204  0.00  0.00     0.242 C 
ATOM      5  C   UNL     1     181.888 182.686 170.793  0.00  0.00     0.190 C 
ATOM      6  C   UNL     1     180.628 181.822 170.699  0.00  0.00     0.192 C 
ENDROOT
BRANCH   6   7
ATOM      7  C   UNL     1     180.092 181.760 169.272  0.00  0.00     0.266 C 
BRANCH   7   8
ATOM      8  O   UNL     1     179.134 180.720 169.196  0.00  0.00    -0.458 OA
BRANCH   8   9
ATOM      9  C   UNL     1     179.223 179.896 168.112  0.00  0.00     0.340 C 
ATOM     10  O   UNL     1     179.427 180.250 166.961  0.00  0.00    -0.245 OA
BRANCH   9  11
ATOM     11  C   UNL     1     179.035 178.476 168.506  0.00  0.00     0.066 A 
ATOM     12  C   UNL     1     177.984 178.121 169.351  0.00  0.00     0.064 A 
ATOM     13  C   UNL     1     177.805 176.788 169.719  0.00  0.00     0.163 A 
ATOM     14  C   UNL     1     178.676 175.810 169.242  0.00  0.00     0.201 A 
ATOM     15  C   UNL     1     179.728 176.165 168.397  0.00  0.00     0.163 A 
ATOM     16  C   UNL     1     179.906 177.498 168.029  0.00  0.00     0.064 A 
BRANCH  13  17
ATOM     17  O   UNL     1     176.774 176.453 170.545  0.00  0.00    -0.503 OA
ATOM     18  H   UNL     1     176.719 177.105 171.266  0.00  0.00     0.292 HD
ENDBRANCH  13  17
BRANCH  14  19
ATOM     19  O   UNL     1     178.503 174.506 169.602  0.00  0.00    -0.501 OA
ATOM     20  H   UNL     1     178.903 173.943 168.916  0.00  0.00     0.292 HD
ENDBRANCH  14  19
BRANCH  15  21
ATOM     21  O   UNL     1     180.586 175.219 167.922  0.00  0.00    -0.503 OA
ATOM     22  H   UNL     1     180.201 174.339 168.069  0.00  0.00     0.292 HD
ENDBRANCH  15  21
ENDBRANCH   9  11
ENDBRANCH   8   9
ENDBRANCH   7   8
ENDBRANCH   6   7
BRANCH   5  23
ATOM     23  O   UNL     1     181.562 184.032 170.464  0.00  0.00    -0.385 OA
ATOM     24  H   UNL     1     181.115 184.032 169.600  0.00  0.00     0.210 HD
ENDBRANCH   5  23
BRANCH   4  25
ATOM     25  O   UNL     1     183.761 183.254 172.170  0.00  0.00    -0.452 OA
BRANCH  25  26
ATOM     26  C   UNL     1     183.863 184.449 172.808  0.00  0.00     0.340 C 
ATOM     27  O   UNL     1     183.133 185.415 172.649  0.00  0.00    -0.245 OA
BRANCH  26  28
ATOM     28  C   UNL     1     185.008 184.440 173.752  0.00  0.00     0.066 A 
ATOM     29  C   UNL     1     185.003 185.281 174.864  0.00  0.00     0.064 A 
ATOM     30  C   UNL     1     186.078 185.270 175.753  0.00  0.00     0.163 A 
ATOM     31  C   UNL     1     187.159 184.418 175.529  0.00  0.00     0.201 A 
ATOM     32  C   UNL     1     187.165 183.576 174.416  0.00  0.00     0.163 A 
ATOM     33  C   UNL     1     186.089 183.587 173.528  0.00  0.00     0.064 A 
BRANCH  30  34
ATOM     34  O   UNL     1     186.060 186.096 176.837  0.00  0.00    -0.503 OA
ATOM     35  H   UNL     1     186.975 186.270 177.119  0.00  0.00     0.292 HD
ENDBRANCH  30  34
BRANCH  31  36
ATOM     36  O   UNL     1     188.211 184.408 176.396  0.00  0.00    -0.501 OA
ATOM     37  H   UNL     1     188.562 183.501 176.442  0.00  0.00     0.292 HD
ENDBRANCH  31  36
BRANCH  32  38
ATOM     38  O   UNL     1     188.214 182.739 174.186  0.00  0.00    -0.503 OA
ATOM     39  H   UNL     1     188.731 183.077 173.434  0.00  0.00     0.292 HD
ENDBRANCH  32  38
ENDBRANCH  26  28
ENDBRANCH  25  26
ENDBRANCH   4  25
BRANCH   2  40
ATOM     40  O   UNL     1     181.577 179.045 172.822  0.00  0.00    -0.429 OA
BRANCH  40  41
ATOM     41  C   UNL     1     180.603 178.158 172.492  0.00  0.00     0.342 C 
ATOM     42  O   UNL     1     179.399 178.330 172.611  0.00  0.00    -0.245 OA
BRANCH  41  43
ATOM     43  C   UNL     1     181.196 176.909 171.950  0.00  0.00     0.066 A 
ATOM     44  C   UNL     1     180.630 175.674 172.265  0.00  0.00     0.064 A 
ATOM     45  C   UNL     1     181.189 174.500 171.757  0.00  0.00     0.163 A 
ATOM     46  C   UNL     1     182.314 174.562 170.936  0.00  0.00     0.201 A 
ATOM     47  C   UNL     1     182.881 175.799 170.621  0.00  0.00     0.163 A 
ATOM     48  C   UNL     1     182.322 176.971 171.129  0.00  0.00     0.064 A 
BRANCH  45  49
ATOM     49  O   UNL     1     180.626 173.301 172.073  0.00  0.00    -0.503 OA
ATOM     50  H   UNL     1     179.861 173.146 171.493  0.00  0.00     0.292 HD
ENDBRANCH  45  49
BRANCH  46  51
ATOM     51  O   UNL     1     182.859 173.417 170.439  0.00  0.00    -0.501 OA
ATOM     52  H   UNL     1     183.828 173.489 170.493  0.00  0.00     0.292 HD
ENDBRANCH  46  51
BRANCH  47  53
ATOM     53  O   UNL     1     183.980 175.872 169.821  0.00  0.00    -0.503 OA
ATOM     54  H   UNL     1     184.090 175.028 169.351  0.00  0.00     0.292 HD
ENDBRANCH  47  53
ENDBRANCH  41  43
ENDBRANCH  40  41
ENDBRANCH   2  40
BRANCH   3  55
ATOM     55  O   UNL     1     182.896 181.201 174.097  0.00  0.00    -0.382 OA
ATOM     56  H   UNL     1     182.587 180.357 174.470  0.00  0.00     0.210 HD
ENDBRANCH   3  55
TORSDOF 21
ENDMDL
MODEL 4
REMARK VINA RESULT:      -8.3      5.527     10.070
REMARK  21 active torsions:
REMARK  status: ('A' for Active; 'I' for Inactive)
REMARK    1  A    between atoms: C_2  and  O_11 
REMARK    2  A    between atoms: C_3  and  O_7 
REMARK    3  A    between atoms: C_4  and  O_42 
REMARK    4  A    between atoms: C_5  and  O_9 
REMARK    5  A    between atoms: C_6  and  C_26 
REMARK    6  A    between atoms: O_11  and  C_12 
REMARK    7  A    between atoms: C_12  and  C_14 
REMARK    8  A    between atoms: C_16  and  O_20 
REMARK    9  A    between atoms: C_17  and  O_22 
REMARK   10  A    between atoms: C_18  and  O_24 
REMARK   11  A    between atoms: C_26  and  O_27 
REMARK   12  A    between atoms: O_27  and  C_28 
REMARK   13  A    between atoms: C_28  and  C_30 
REMARK   14  A    between atoms: C_32  and  O_36 
REMARK   15  A    between atoms: C_33  and  O_38 
REMARK   16  A    between atoms: C_34  and  O_40 
REMARK   17  A    between atoms: O_42  and  C_43 
REMARK   18  A    between atoms: C_43  and  C_45 
REMARK   19  A    between atoms: C_47  and  O_51 
REMARK   20  A    between atoms: C_48  and  O_53 
REMARK   21  A    between atoms: C_49  and  O_55 
ROOT
ATOM      1  O   UNL     1     181.047 180.116 171.361  0.00  0.00    -0.330 OA
ATOM      2  C   UNL     1     181.679 180.088 172.639  0.00  0.00     0.344 C 
ATOM      3  C   UNL     1     182.826 181.097 172.692  0.00  0.00     0.226 C 
ATOM      4  C   UNL     1     182.354 182.496 172.297  0.00  0.00     0.242 C 
ATOM      5  C   UNL     1     181.544 182.462 171.001  0.00  0.00     0.190 C 
ATOM      6  C   UNL     1     180.458 181.385 171.069  0.00  0.00     0.192 C 
ENDROOT
BRANCH   6   7
ATOM      7  C   UNL     1     179.712 181.252 169.746  0.00  0.00     0.266 C 
BRANCH   7   8
ATOM      8  O   UNL     1     179.693 179.885 169.375  0.00  0.00    -0.458 OA
BRANCH   8   9
ATOM      9  C   UNL     1     178.461 179.316 169.231  0.00  0.00     0.340 C 
ATOM     10  O   UNL     1     177.405 179.919 169.118  0.00  0.00    -0.245 OA
BRANCH   9  11
ATOM     11  C   UNL     1     178.557 177.834 169.228  0.00  0.00     0.066 A 
ATOM     12  C   UNL     1     179.626 177.206 168.589  0.00  0.00     0.064 A 
ATOM     13  C   UNL     1     179.717 175.814 168.588  0.00  0.00     0.163 A 
ATOM     14  C   UNL     1     178.741 175.051 169.227  0.00  0.00     0.201 A 
ATOM     15  C   UNL     1     177.672 175.679 169.866  0.00  0.00     0.163 A 
ATOM     16  C   UNL     1     177.580 177.070 169.866  0.00  0.00     0.064 A 
BRANCH  13  17
ATOM     17  O   UNL     1     180.766 175.212 167.961  0.00  0.00    -0.503 OA
ATOM     18  H   UNL     1     181.275 174.700 168.613  0.00  0.00     0.292 HD
ENDBRANCH  13  17
BRANCH  14  19
ATOM     19  O   UNL     1     178.828 173.690 169.225  0.00  0.00    -0.501 OA
ATOM     20  H   UNL     1     178.040 173.332 168.780  0.00  0.00     0.292 HD
ENDBRANCH  14  19
BRANCH  15  21
ATOM     21  O   UNL     1     176.710 174.945 170.494  0.00  0.00    -0.503 OA
ATOM     22  H   UNL     1     175.886 174.996 169.981  0.00  0.00     0.292 HD
ENDBRANCH  15  21
ENDBRANCH   9  11
ENDBRANCH   8   9
ENDBRANCH   7   8
ENDBRANCH   6   7
BRANCH   5  23
ATOM     23  O   UNL     1     180.934 183.732 170.793  0.00  0.00    -0.385 OA
ATOM     24  H   UNL     1     181.641 184.395 170.702  0.00  0.00     0.210 HD
ENDBRANCH   5  23
BRANCH   4  25
ATOM     25  O   UNL     1     183.489 183.338 172.086  0.00  0.00    -0.452 OA
BRANCH  25  26
ATOM     26  C   UNL     1     183.515 184.488 172.808  0.00  0.00     0.340 C 
ATOM     27  O   UNL     1     182.695 185.391 172.756  0.00  0.00    -0.245 OA
BRANCH  26  28
ATOM     28  C   UNL     1     184.705 184.518 173.696  0.00  0.00     0.066 A 
ATOM     29  C   UNL     1     184.768 185.432 174.748  0.00  0.00     0.064 A 
ATOM     30  C   UNL     1     185.884 185.457 175.584  0.00  0.00     0.163 A 
ATOM     31  C   UNL     1     186.938 184.570 175.367  0.00  0.00     0.201 A 
ATOM     32  C   UNL     1     186.876 183.656 174.315  0.00  0.00     0.163 A 
ATOM     33  C   UNL     1     185.759 183.630 173.479  0.00  0.00     0.064 A 
BRANCH  30  34
ATOM     34  O   UNL     1     185.933 186.354 176.609  0.00  0.00    -0.503 OA
ATOM     35  H   UNL     1     186.179 185.889 177.427  0.00  0.00     0.292 HD
ENDBRANCH  30  34
BRANCH  31  36
ATOM     36  O   UNL     1     188.030 184.596 176.183  0.00  0.00    -0.501 OA
ATOM     37  H   UNL     1     188.020 183.795 176.735  0.00  0.00     0.292 HD
ENDBRANCH  31  36
BRANCH  32  38
ATOM     38  O   UNL     1     187.898 182.784 174.092  0.00  0.00    -0.503 OA
ATOM     39  H   UNL     1     188.004 182.213 174.873  0.00  0.00     0.292 HD
ENDBRANCH  32  38
ENDBRANCH  26  28
ENDBRANCH  25  26
ENDBRANCH   4  25
BRANCH   2  40
ATOM     40  O   UNL     1     182.223 178.790 172.879  0.00  0.00    -0.429 OA
BRANCH  40  41
ATOM     41  C   UNL     1     182.540 178.068 171.773  0.00  0.00     0.342 C 
ATOM     42  O   UNL     1     183.239 178.440 170.843  0.00  0.00    -0.245 OA
BRANCH  41  43
ATOM     43  C   UNL     1     181.911 176.723 171.831  0.00  0.00     0.066 A 
ATOM     44  C   UNL     1     180.739 176.532 172.561  0.00  0.00     0.064 A 
ATOM     45  C   UNL     1     180.151 175.268 172.617  0.00  0.00     0.163 A 
ATOM     46  C   UNL     1     180.734 174.196 171.943  0.00  0.00     0.201 A 
ATOM     47  C   UNL     1     181.908 174.388 171.212  0.00  0.00     0.163 A 
ATOM     48  C   UNL     1     182.496 175.651 171.156  0.00  0.00     0.064 A 
BRANCH  45  49
ATOM     49  O   UNL     1     179.006 175.095 173.335  0.00  0.00    -0.503 OA
ATOM     50  H   UNL     1     178.982 175.745 174.057  0.00  0.00     0.292 HD
ENDBRANCH  45  49
BRANCH  46  51
ATOM     51  O   UNL     1     180.159 172.962 171.997  0.00  0.00    -0.501 OA
ATOM     52  H   UNL     1     179.737 172.783 171.138  0.00  0.00     0.292 HD
ENDBRANCH  46  51
BRANCH  47  53
ATOM     53  O   UNL     1     182.488 173.349 170.549  0.00  0.00    -0.503 OA
ATOM     54  H   UNL     1     183.243 173.681 170.035  0.00  0.00     0.292 HD
ENDBRANCH  47  53
ENDBRANCH  41  43
ENDBRANCH  40  41
ENDBRANCH   2  40
BRANCH   3  55
ATOM     55  O   UNL     1     183.333 181.127 174.027  0.00  0.00    -0.382 OA
ATOM     56  H   UNL     1     183.842 181.949 174.138  0.00  0.00     0.210 HD
ENDBRANCH   3  55
TORSDOF 21
ENDMDL
MODEL 5
REMARK VINA RESULT:      -8.3      2.118      4.801
REMARK  21 active torsions:
REMARK  status: ('A' for Active; 'I' for Inactive)
REMARK    1  A    between atoms: C_2  and  O_11 
REMARK    2  A    between atoms: C_3  and  O_7 
REMARK    3  A    between atoms: C_4  and  O_42 
REMARK    4  A    between atoms: C_5  and  O_9 
REMARK    5  A    between atoms: C_6  and  C_26 
REMARK    6  A    between atoms: O_11  and  C_12 
REMARK    7  A    between atoms: C_12  and  C_14 
REMARK    8  A    between atoms: C_16  and  O_20 
REMARK    9  A    between atoms: C_17  and  O_22 
REMARK   10  A    between atoms: C_18  and  O_24 
REMARK   11  A    between atoms: C_26  and  O_27 
REMARK   12  A    between atoms: O_27  and  C_28 
REMARK   13  A    between atoms: C_28  and  C_30 
REMARK   14  A    between atoms: C_32  and  O_36 
REMARK   15  A    between atoms: C_33  and  O_38 
REMARK   16  A    between atoms: C_34  and  O_40 
REMARK   17  A    between atoms: O_42  and  C_43 
REMARK   18  A    between atoms: C_43  and  C_45 
REMARK   19  A    between atoms: C_47  and  O_51 
REMARK   20  A    between atoms: C_48  and  O_53 
REMARK   21  A    between atoms: C_49  and  O_55 
ROOT
ATOM      1  O   UNL     1     181.734 185.893 171.476  0.00  0.00    -0.330 OA
ATOM      2  C   UNL     1     182.613 186.850 170.889  0.00  0.00     0.344 C 
ATOM      3  C   UNL     1     182.060 187.333 169.547  0.00  0.00     0.226 C 
ATOM      4  C   UNL     1     180.630 187.853 169.690  0.00  0.00     0.242 C 
ATOM      5  C   UNL     1     179.756 186.867 170.465  0.00  0.00     0.190 C 
ATOM      6  C   UNL     1     180.444 186.438 171.764  0.00  0.00     0.192 C 
ENDROOT
BRANCH   6   7
ATOM      7  C   UNL     1     179.646 185.366 172.498  0.00  0.00     0.266 C 
BRANCH   7   8
ATOM      8  O   UNL     1     180.403 184.169 172.508  0.00  0.00    -0.458 OA
BRANCH   8   9
ATOM      9  C   UNL     1     180.602 183.591 173.728  0.00  0.00     0.340 C 
ATOM     10  O   UNL     1     179.749 183.422 174.586  0.00  0.00    -0.245 OA
BRANCH   9  11
ATOM     11  C   UNL     1     182.020 183.184 173.899  0.00  0.00     0.066 A 
ATOM     12  C   UNL     1     182.896 183.237 172.814  0.00  0.00     0.064 A 
ATOM     13  C   UNL     1     184.227 182.856 172.975  0.00  0.00     0.163 A 
ATOM     14  C   UNL     1     184.684 182.423 174.219  0.00  0.00     0.201 A 
ATOM     15  C   UNL     1     183.809 182.370 175.303  0.00  0.00     0.163 A 
ATOM     16  C   UNL     1     182.477 182.751 175.143  0.00  0.00     0.064 A 
BRANCH  13  17
ATOM     17  O   UNL     1     185.073 182.912 171.908  0.00  0.00    -0.503 OA
ATOM     18  H   UNL     1     185.354 182.010 171.676  0.00  0.00     0.292 HD
ENDBRANCH  13  17
BRANCH  14  19
ATOM     19  O   UNL     1     185.987 182.049 174.376  0.00  0.00    -0.501 OA
ATOM     20  H   UNL     1     186.354 182.533 175.137  0.00  0.00     0.292 HD
ENDBRANCH  14  19
BRANCH  15  21
ATOM     21  O   UNL     1     184.242 181.950 176.525  0.00  0.00    -0.503 OA
ATOM     22  H   UNL     1     185.181 182.181 176.626  0.00  0.00     0.292 HD
ENDBRANCH  15  21
ENDBRANCH   9  11
ENDBRANCH   8   9
ENDBRANCH   7   8
ENDBRANCH   6   7
BRANCH   5  23
ATOM     23  O   UNL     1     178.510 187.483 170.774  0.00  0.00    -0.385 OA
ATOM     24  H   UNL     1     177.804 186.965 170.349  0.00  0.00     0.210 HD
ENDBRANCH   5  23
BRANCH   4  25
ATOM     25  O   UNL     1     180.056 188.026 168.393  0.00  0.00    -0.452 OA
BRANCH  25  26
ATOM     26  C   UNL     1     179.520 189.248 168.141  0.00  0.00     0.340 C 
ATOM     27  O   UNL     1     180.139 190.286 167.968  0.00  0.00    -0.245 OA
BRANCH  26  28
ATOM     28  C   UNL     1     178.038 189.169 168.104  0.00  0.00     0.066 A 
ATOM     29  C   UNL     1     177.269 190.223 168.597  0.00  0.00     0.064 A 
ATOM     30  C   UNL     1     175.877 190.149 168.558  0.00  0.00     0.163 A 
ATOM     31  C   UNL     1     175.253 189.019 168.029  0.00  0.00     0.201 A 
ATOM     32  C   UNL     1     176.021 187.964 167.536  0.00  0.00     0.163 A 
ATOM     33  C   UNL     1     177.414 188.039 167.574  0.00  0.00     0.064 A 
BRANCH  30  34
ATOM     34  O   UNL     1     175.137 191.186 169.042  0.00  0.00    -0.503 OA
ATOM     35  H   UNL     1     175.377 191.340 169.973  0.00  0.00     0.292 HD
ENDBRANCH  30  34
BRANCH  31  36
ATOM     36  O   UNL     1     173.892 188.945 167.993  0.00  0.00    -0.501 OA
ATOM     37  H   UNL     1     173.598 188.359 168.712  0.00  0.00     0.292 HD
ENDBRANCH  31  36
BRANCH  32  38
ATOM     38  O   UNL     1     175.425 186.855 167.016  0.00  0.00    -0.503 OA
ATOM     39  H   UNL     1     175.461 186.901 166.045  0.00  0.00     0.292 HD
ENDBRANCH  32  38
ENDBRANCH  26  28
ENDBRANCH  25  26
ENDBRANCH   4  25
BRANCH   2  40
ATOM     40  O   UNL     1     183.886 186.252 170.650  0.00  0.00    -0.429 OA
BRANCH  40  41
ATOM     41  C   UNL     1     184.962 186.952 171.096  0.00  0.00     0.342 C 
ATOM     42  O   UNL     1     185.515 187.874 170.515  0.00  0.00    -0.245 OA
BRANCH  41  43
ATOM     43  C   UNL     1     185.402 186.445 172.421  0.00  0.00     0.066 A 
ATOM     44  C   UNL     1     186.652 185.843 172.557  0.00  0.00     0.064 A 
ATOM     45  C   UNL     1     187.064 185.364 173.802  0.00  0.00     0.163 A 
ATOM     46  C   UNL     1     186.226 185.488 174.909  0.00  0.00     0.201 A 
ATOM     47  C   UNL     1     184.974 186.091 174.772  0.00  0.00     0.163 A 
ATOM     48  C   UNL     1     184.563 186.569 173.529  0.00  0.00     0.064 A 
BRANCH  45  49
ATOM     49  O   UNL     1     188.288 184.777 173.921  0.00  0.00    -0.503 OA
ATOM     50  H   UNL     1     188.878 185.371 174.415  0.00  0.00     0.292 HD
ENDBRANCH  45  49
BRANCH  46  51
ATOM     51  O   UNL     1     186.629 185.022 176.125  0.00  0.00    -0.501 OA
ATOM     52  H   UNL     1     186.434 184.069 176.167  0.00  0.00     0.292 HD
ENDBRANCH  46  51
BRANCH  47  53
ATOM     53  O   UNL     1     184.146 186.217 175.846  0.00  0.00    -0.503 OA
ATOM     54  H   UNL     1     183.613 185.409 175.935  0.00  0.00     0.292 HD
ENDBRANCH  47  53
ENDBRANCH  41  43
ENDBRANCH  40  41
ENDBRANCH   2  40
BRANCH   3  55
ATOM     55  O   UNL     1     182.901 188.383 169.069  0.00  0.00    -0.382 OA
ATOM     56  H   UNL     1     182.401 189.215 169.118  0.00  0.00     0.210 HD
ENDBRANCH   3  55
TORSDOF 21
ENDMDL
MODEL 6
REMARK VINA RESULT:      -8.2      5.033     10.409
REMARK  21 active torsions:
REMARK  status: ('A' for Active; 'I' for Inactive)
REMARK    1  A    between atoms: C_2  and  O_11 
REMARK    2  A    between atoms: C_3  and  O_7 
REMARK    3  A    between atoms: C_4  and  O_42 
REMARK    4  A    between atoms: C_5  and  O_9 
REMARK    5  A    between atoms: C_6  and  C_26 
REMARK    6  A    between atoms: O_11  and  C_12 
REMARK    7  A    between atoms: C_12  and  C_14 
REMARK    8  A    between atoms: C_16  and  O_20 
REMARK    9  A    between atoms: C_17  and  O_22 
REMARK   10  A    between atoms: C_18  and  O_24 
REMARK   11  A    between atoms: C_26  and  O_27 
REMARK   12  A    between atoms: O_27  and  C_28 
REMARK   13  A    between atoms: C_28  and  C_30 
REMARK   14  A    between atoms: C_32  and  O_36 
REMARK   15  A    between atoms: C_33  and  O_38 
REMARK   16  A    between atoms: C_34  and  O_40 
REMARK   17  A    between atoms: O_42  and  C_43 
REMARK   18  A    between atoms: C_43  and  C_45 
REMARK   19  A    between atoms: C_47  and  O_51 
REMARK   20  A    between atoms: C_48  and  O_53 
REMARK   21  A    between atoms: C_49  and  O_55 
ROOT
ATOM      1  O   UNL     1     180.830 180.292 171.508  0.00  0.00    -0.330 OA
ATOM      2  C   UNL     1     180.546 181.570 170.942  0.00  0.00     0.344 C 
ATOM      3  C   UNL     1     180.926 182.684 171.918  0.00  0.00     0.226 C 
ATOM      4  C   UNL     1     182.379 182.550 172.376  0.00  0.00     0.242 C 
ATOM      5  C   UNL     1     182.688 181.123 172.827  0.00  0.00     0.190 C 
ATOM      6  C   UNL     1     182.221 180.110 171.778  0.00  0.00     0.192 C 
ENDROOT
BRANCH   6   7
ATOM      7  C   UNL     1     182.413 178.674 172.256  0.00  0.00     0.266 C 
BRANCH   7   8
ATOM      8  O   UNL     1     181.195 178.222 172.820  0.00  0.00    -0.458 OA
BRANCH   8   9
ATOM      9  C   UNL     1     180.966 176.878 172.764  0.00  0.00     0.340 C 
ATOM     10  O   UNL     1     181.566 176.024 173.399  0.00  0.00    -0.245 OA
BRANCH   9  11
ATOM     11  C   UNL     1     179.873 176.564 171.809  0.00  0.00     0.066 A 
ATOM     12  C   UNL     1     178.755 175.850 172.240  0.00  0.00     0.064 A 
ATOM     13  C   UNL     1     177.727 175.557 171.345  0.00  0.00     0.163 A 
ATOM     14  C   UNL     1     177.816 175.978 170.019  0.00  0.00     0.201 A 
ATOM     15  C   UNL     1     178.934 176.691 169.587  0.00  0.00     0.163 A 
ATOM     16  C   UNL     1     179.962 176.985 170.483  0.00  0.00     0.064 A 
BRANCH  13  17
ATOM     17  O   UNL     1     176.639 174.859 171.778  0.00  0.00    -0.503 OA
ATOM     18  H   UNL     1     175.831 175.310 171.477  0.00  0.00     0.292 HD
ENDBRANCH  13  17
BRANCH  14  19
ATOM     19  O   UNL     1     176.811 175.690 169.142  0.00  0.00    -0.501 OA
ATOM     20  H   UNL     1     176.294 174.948 169.501  0.00  0.00     0.292 HD
ENDBRANCH  14  19
BRANCH  15  21
ATOM     21  O   UNL     1     179.034 177.109 168.294  0.00  0.00    -0.503 OA
ATOM     22  H   UNL     1     178.254 176.804 167.801  0.00  0.00     0.292 HD
ENDBRANCH  15  21
ENDBRANCH   9  11
ENDBRANCH   8   9
ENDBRANCH   7   8
ENDBRANCH   6   7
BRANCH   5  23
ATOM     23  O   UNL     1     184.091 180.984 173.024  0.00  0.00    -0.385 OA
ATOM     24  H   UNL     1     184.325 181.435 173.854  0.00  0.00     0.210 HD
ENDBRANCH   5  23
BRANCH   4  25
ATOM     25  O   UNL     1     182.609 183.423 173.483  0.00  0.00    -0.452 OA
BRANCH  25  26
ATOM     26  C   UNL     1     183.350 184.531 173.220  0.00  0.00     0.340 C 
ATOM     27  O   UNL     1     183.053 185.430 172.448  0.00  0.00    -0.245 OA
BRANCH  26  28
ATOM     28  C   UNL     1     184.608 184.516 174.008  0.00  0.00     0.066 A 
ATOM     29  C   UNL     1     184.740 185.337 175.127  0.00  0.00     0.064 A 
ATOM     30  C   UNL     1     185.921 185.320 175.870  0.00  0.00     0.163 A 
ATOM     31  C   UNL     1     186.971 184.484 175.491  0.00  0.00     0.201 A 
ATOM     32  C   UNL     1     186.839 183.663 174.370  0.00  0.00     0.163 A 
ATOM     33  C   UNL     1     185.657 183.679 173.629  0.00  0.00     0.064 A 
BRANCH  30  34
ATOM     34  O   UNL     1     186.037 186.127 176.962  0.00  0.00    -0.503 OA
ATOM     35  H   UNL     1     185.227 186.657 177.054  0.00  0.00     0.292 HD
ENDBRANCH  30  34
BRANCH  31  36
ATOM     36  O   UNL     1     188.126 184.469 176.214  0.00  0.00    -0.501 OA
ATOM     37  H   UNL     1     188.010 185.045 176.990  0.00  0.00     0.292 HD
ENDBRANCH  31  36
BRANCH  32  38
ATOM     38  O   UNL     1     187.857 182.841 173.990  0.00  0.00    -0.503 OA
ATOM     39  H   UNL     1     187.632 181.925 174.228  0.00  0.00     0.292 HD
ENDBRANCH  32  38
ENDBRANCH  26  28
ENDBRANCH  25  26
ENDBRANCH   4  25
BRANCH   2  40
ATOM     40  O   UNL     1     179.149 181.678 170.674  0.00  0.00    -0.429 OA
BRANCH  40  41
ATOM     41  C   UNL     1     178.674 180.884 169.679  0.00  0.00     0.342 C 
ATOM     42  O   UNL     1     179.088 180.840 168.531  0.00  0.00    -0.245 OA
BRANCH  41  43
ATOM     43  C   UNL     1     177.551 180.046 170.173  0.00  0.00     0.066 A 
ATOM     44  C   UNL     1     177.528 179.621 171.500  0.00  0.00     0.064 A 
ATOM     45  C   UNL     1     176.474 178.831 171.962  0.00  0.00     0.163 A 
ATOM     46  C   UNL     1     175.443 178.469 171.097  0.00  0.00     0.201 A 
ATOM     47  C   UNL     1     175.466 178.895 169.768  0.00  0.00     0.163 A 
ATOM     48  C   UNL     1     176.519 179.683 169.306  0.00  0.00     0.064 A 
BRANCH  45  49
ATOM     49  O   UNL     1     176.466 178.422 173.262  0.00  0.00    -0.503 OA
ATOM     50  H   UNL     1     175.547 178.278 173.543  0.00  0.00     0.292 HD
ENDBRANCH  45  49
BRANCH  46  51
ATOM     51  O   UNL     1     174.413 177.699 171.548  0.00  0.00    -0.501 OA
ATOM     52  H   UNL     1     173.891 177.404 170.782  0.00  0.00     0.292 HD
ENDBRANCH  46  51
BRANCH  47  53
ATOM     53  O   UNL     1     174.465 178.547 168.912  0.00  0.00    -0.503 OA
ATOM     54  H   UNL     1     174.036 179.353 168.578  0.00  0.00     0.292 HD
ENDBRANCH  47  53
ENDBRANCH  41  43
ENDBRANCH  40  41
ENDBRANCH   2  40
BRANCH   3  55
ATOM     55  O   UNL     1     180.752 183.937 171.255  0.00  0.00    -0.382 OA
ATOM     56  H   UNL     1     181.478 184.525 171.526  0.00  0.00     0.210 HD
ENDBRANCH   3  55
TORSDOF 21
ENDMDL
MODEL 7
REMARK VINA RESULT:      -8.2      1.212      2.430
REMARK  21 active torsions:
REMARK  status: ('A' for Active; 'I' for Inactive)
REMARK    1  A    between atoms: C_2  and  O_11 
REMARK    2  A    between atoms: C_3  and  O_7 
REMARK    3  A    between atoms: C_4  and  O_42 
REMARK    4  A    between atoms: C_5  and  O_9 
REMARK    5  A    between atoms: C_6  and  C_26 
REMARK    6  A    between atoms: O_11  and  C_12 
REMARK    7  A    between atoms: C_12  and  C_14 
REMARK    8  A    between atoms: C_16  and  O_20 
REMARK    9  A    between atoms: C_17  and  O_22 
REMARK   10  A    between atoms: C_18  and  O_24 
REMARK   11  A    between atoms: C_26  and  O_27 
REMARK   12  A    between atoms: O_27  and  C_28 
REMARK   13  A    between atoms: C_28  and  C_30 
REMARK   14  A    between atoms: C_32  and  O_36 
REMARK   15  A    between atoms: C_33  and  O_38 
REMARK   16  A    between atoms: C_34  and  O_40 
REMARK   17  A    between atoms: O_42  and  C_43 
REMARK   18  A    between atoms: C_43  and  C_45 
REMARK   19  A    between atoms: C_47  and  O_51 
REMARK   20  A    between atoms: C_48  and  O_53 
REMARK   21  A    between atoms: C_49  and  O_55 
ROOT
ATOM      1  O   UNL     1     182.710 182.588 172.748  0.00  0.00    -0.330 OA
ATOM      2  C   UNL     1     181.632 182.864 173.641  0.00  0.00     0.344 C 
ATOM      3  C   UNL     1     180.754 183.988 173.090  0.00  0.00     0.226 C 
ATOM      4  C   UNL     1     180.281 183.678 171.670  0.00  0.00     0.242 C 
ATOM      5  C   UNL     1     181.443 183.233 170.783  0.00  0.00     0.190 C 
ATOM      6  C   UNL     1     182.260 182.135 171.470  0.00  0.00     0.192 C 
ENDROOT
BRANCH   6   7
ATOM      7  C   UNL     1     183.493 181.756 170.656  0.00  0.00     0.266 C 
BRANCH   7   8
ATOM      8  O   UNL     1     184.543 182.644 170.992  0.00  0.00    -0.458 OA
BRANCH   8   9
ATOM      9  C   UNL     1     185.020 183.425 169.979  0.00  0.00     0.340 C 
ATOM     10  O   UNL     1     184.786 183.274 168.790  0.00  0.00    -0.245 OA
BRANCH   9  11
ATOM     11  C   UNL     1     185.884 184.512 170.507  0.00  0.00     0.066 A 
ATOM     12  C   UNL     1     185.321 185.555 171.242  0.00  0.00     0.064 A 
ATOM     13  C   UNL     1     186.132 186.574 171.739  0.00  0.00     0.163 A 
ATOM     14  C   UNL     1     187.506 186.551 171.503  0.00  0.00     0.201 A 
ATOM     15  C   UNL     1     188.069 185.508 170.767  0.00  0.00     0.163 A 
ATOM     16  C   UNL     1     187.258 184.489 170.270  0.00  0.00     0.064 A 
BRANCH  13  17
ATOM     17  O   UNL     1     185.570 187.588 172.457  0.00  0.00    -0.503 OA
ATOM     18  H   UNL     1     186.076 188.405 172.303  0.00  0.00     0.292 HD
ENDBRANCH  13  17
BRANCH  14  19
ATOM     19  O   UNL     1     188.300 187.548 171.987  0.00  0.00    -0.501 OA
ATOM     20  H   UNL     1     189.173 187.479 171.562  0.00  0.00     0.292 HD
ENDBRANCH  14  19
BRANCH  15  21
ATOM     21  O   UNL     1     189.410 185.472 170.529  0.00  0.00    -0.503 OA
ATOM     22  H   UNL     1     189.593 185.908 169.679  0.00  0.00     0.292 HD
ENDBRANCH  15  21
ENDBRANCH   9  11
ENDBRANCH   8   9
ENDBRANCH   7   8
ENDBRANCH   6   7
BRANCH   5  23
ATOM     23  O   UNL     1     180.933 182.738 169.549  0.00  0.00    -0.385 OA
ATOM     24  H   UNL     1     179.970 182.879 169.543  0.00  0.00     0.210 HD
ENDBRANCH   5  23
BRANCH   4  25
ATOM     25  O   UNL     1     179.710 184.854 171.093  0.00  0.00    -0.452 OA
BRANCH  25  26
ATOM     26  C   UNL     1     180.509 185.952 171.076  0.00  0.00     0.340 C 
ATOM     27  O   UNL     1     181.729 185.956 171.027  0.00  0.00    -0.245 OA
BRANCH  26  28
ATOM     28  C   UNL     1     179.692 187.191 171.128  0.00  0.00     0.066 A 
ATOM     29  C   UNL     1     179.587 188.006 170.001  0.00  0.00     0.064 A 
ATOM     30  C   UNL     1     178.816 189.168 170.050  0.00  0.00     0.163 A 
ATOM     31  C   UNL     1     178.153 189.516 171.226  0.00  0.00     0.201 A 
ATOM     32  C   UNL     1     178.258 188.701 172.354  0.00  0.00     0.163 A 
ATOM     33  C   UNL     1     179.028 187.538 172.305  0.00  0.00     0.064 A 
BRANCH  30  34
ATOM     34  O   UNL     1     178.721 189.955 168.942  0.00  0.00    -0.503 OA
ATOM     35  H   UNL     1     177.817 189.899 168.588  0.00  0.00     0.292 HD
ENDBRANCH  30  34
BRANCH  31  36
ATOM     36  O   UNL     1     177.402 190.653 171.275  0.00  0.00    -0.501 OA
ATOM     37  H   UNL     1     176.480 190.420 171.066  0.00  0.00     0.292 HD
ENDBRANCH  31  36
BRANCH  32  38
ATOM     38  O   UNL     1     177.615 189.030 173.509  0.00  0.00    -0.503 OA
ATOM     39  H   UNL     1     177.114 188.257 173.824  0.00  0.00     0.292 HD
ENDBRANCH  32  38
ENDBRANCH  26  28
ENDBRANCH  25  26
ENDBRANCH   4  25
BRANCH   2  40
ATOM     40  O   UNL     1     182.148 183.287 174.903  0.00  0.00    -0.429 OA
BRANCH  40  41
ATOM     41  C   UNL     1     183.222 182.595 175.365  0.00  0.00     0.342 C 
ATOM     42  O   UNL     1     183.199 181.492 175.890  0.00  0.00    -0.245 OA
BRANCH  41  43
ATOM     43  C   UNL     1     184.473 183.367 175.148  0.00  0.00     0.066 A 
ATOM     44  C   UNL     1     184.505 184.734 175.420  0.00  0.00     0.064 A 
ATOM     45  C   UNL     1     185.679 185.459 175.214  0.00  0.00     0.163 A 
ATOM     46  C   UNL     1     186.821 184.816 174.735  0.00  0.00     0.201 A 
ATOM     47  C   UNL     1     186.788 183.448 174.462  0.00  0.00     0.163 A 
ATOM     48  C   UNL     1     185.614 182.723 174.668  0.00  0.00     0.064 A 
BRANCH  45  49
ATOM     49  O   UNL     1     185.697 186.794 175.484  0.00  0.00    -0.503 OA
ATOM     50  H   UNL     1     185.853 187.283 174.658  0.00  0.00     0.292 HD
ENDBRANCH  45  49
BRANCH  46  51
ATOM     51  O   UNL     1     187.967 185.524 174.535  0.00  0.00    -0.501 OA
ATOM     52  H   UNL     1     188.553 185.004 173.957  0.00  0.00     0.292 HD
ENDBRANCH  46  51
BRANCH  47  53
ATOM     53  O   UNL     1     187.896 182.809 173.994  0.00  0.00    -0.503 OA
ATOM     54  H   UNL     1     188.476 183.455 173.556  0.00  0.00     0.292 HD
ENDBRANCH  47  53
ENDBRANCH  41  43
ENDBRANCH  40  41
ENDBRANCH   2  40
BRANCH   3  55
ATOM     55  O   UNL     1     179.621 184.129 173.947  0.00  0.00    -0.382 OA
ATOM     56  H   UNL     1     179.943 184.313 174.846  0.00  0.00     0.210 HD
ENDBRANCH   3  55
TORSDOF 21
ENDMDL
MODEL 8
REMARK VINA RESULT:      -8.2      4.860     10.019
REMARK  21 active torsions:
REMARK  status: ('A' for Active; 'I' for Inactive)
REMARK    1  A    between atoms: C_2  and  O_11 
REMARK    2  A    between atoms: C_3  and  O_7 
REMARK    3  A    between atoms: C_4  and  O_42 
REMARK    4  A    between atoms: C_5  and  O_9 
REMARK    5  A    between atoms: C_6  and  C_26 
REMARK    6  A    between atoms: O_11  and  C_12 
REMARK    7  A    between atoms: C_12  and  C_14 
REMARK    8  A    between atoms: C_16  and  O_20 
REMARK    9  A    between atoms: C_17  and  O_22 
REMARK   10  A    between atoms: C_18  and  O_24 
REMARK   11  A    between atoms: C_26  and  O_27 
REMARK   12  A    between atoms: O_27  and  C_28 
REMARK   13  A    between atoms: C_28  and  C_30 
REMARK   14  A    between atoms: C_32  and  O_36 
REMARK   15  A    between atoms: C_33  and  O_38 
REMARK   16  A    between atoms: C_34  and  O_40 
REMARK   17  A    between atoms: O_42  and  C_43 
REMARK   18  A    between atoms: C_43  and  C_45 
REMARK   19  A    between atoms: C_47  and  O_51 
REMARK   20  A    between atoms: C_48  and  O_53 
REMARK   21  A    between atoms: C_49  and  O_55 
ROOT
ATOM      1  O   UNL     1     180.879 180.426 171.495  0.00  0.00    -0.330 OA
ATOM      2  C   UNL     1     180.601 181.671 170.857  0.00  0.00     0.344 C 
ATOM      3  C   UNL     1     180.967 182.837 171.776  0.00  0.00     0.226 C 
ATOM      4  C   UNL     1     182.414 182.730 172.259  0.00  0.00     0.242 C 
ATOM      5  C   UNL     1     182.718 181.330 172.790  0.00  0.00     0.190 C 
ATOM      6  C   UNL     1     182.267 180.261 171.792  0.00  0.00     0.192 C 
ENDROOT
BRANCH   6   7
ATOM      7  C   UNL     1     182.453 178.854 172.349  0.00  0.00     0.266 C 
BRANCH   7   8
ATOM      8  O   UNL     1     181.253 178.461 172.991  0.00  0.00    -0.458 OA
BRANCH   8   9
ATOM      9  C   UNL     1     180.987 177.123 173.006  0.00  0.00     0.340 C 
ATOM     10  O   UNL     1     180.861 176.432 174.006  0.00  0.00    -0.245 OA
BRANCH   9  11
ATOM     11  C   UNL     1     180.869 176.588 171.626  0.00  0.00     0.066 A 
ATOM     12  C   UNL     1     181.827 175.699 171.138  0.00  0.00     0.064 A 
ATOM     13  C   UNL     1     181.715 175.195 169.844  0.00  0.00     0.163 A 
ATOM     14  C   UNL     1     180.645 175.577 169.036  0.00  0.00     0.201 A 
ATOM     15  C   UNL     1     179.686 176.465 169.524  0.00  0.00     0.163 A 
ATOM     16  C   UNL     1     179.798 176.970 170.819  0.00  0.00     0.064 A 
BRANCH  13  17
ATOM     17  O   UNL     1     182.658 174.328 169.378  0.00  0.00    -0.503 OA
ATOM     18  H   UNL     1     182.215 173.566 168.966  0.00  0.00     0.292 HD
ENDBRANCH  13  17
BRANCH  14  19
ATOM     19  O   UNL     1     180.535 175.085 167.769  0.00  0.00    -0.501 OA
ATOM     20  H   UNL     1     180.515 175.836 167.149  0.00  0.00     0.292 HD
ENDBRANCH  14  19
BRANCH  15  21
ATOM     21  O   UNL     1     178.634 176.847 168.746  0.00  0.00    -0.503 OA
ATOM     22  H   UNL     1     178.718 176.429 167.872  0.00  0.00     0.292 HD
ENDBRANCH  15  21
ENDBRANCH   9  11
ENDBRANCH   8   9
ENDBRANCH   7   8
ENDBRANCH   6   7
BRANCH   5  23
ATOM     23  O   UNL     1     184.120 181.205 173.013  0.00  0.00    -0.385 OA
ATOM     24  H   UNL     1     184.532 180.915 172.181  0.00  0.00     0.210 HD
ENDBRANCH   5  23
BRANCH   4  25
ATOM     25  O   UNL     1     182.629 183.662 173.320  0.00  0.00    -0.452 OA
BRANCH  25  26
ATOM     26  C   UNL     1     183.434 184.717 173.028  0.00  0.00     0.340 C 
ATOM     27  O   UNL     1     183.217 185.580 172.192  0.00  0.00    -0.245 OA
BRANCH  26  28
ATOM     28  C   UNL     1     184.654 184.690 173.874  0.00  0.00     0.066 A 
ATOM     29  C   UNL     1     184.773 185.563 174.954  0.00  0.00     0.064 A 
ATOM     30  C   UNL     1     185.918 185.536 175.751  0.00  0.00     0.163 A 
ATOM     31  C   UNL     1     186.945 184.637 175.465  0.00  0.00     0.201 A 
ATOM     32  C   UNL     1     186.827 183.763 174.383  0.00  0.00     0.163 A 
ATOM     33  C   UNL     1     185.681 183.790 173.587  0.00  0.00     0.064 A 
BRANCH  30  34
ATOM     34  O   UNL     1     186.022 186.394 176.805  0.00  0.00    -0.503 OA
ATOM     35  H   UNL     1     185.233 186.962 176.831  0.00  0.00     0.292 HD
ENDBRANCH  30  34
BRANCH  31  36
ATOM     36  O   UNL     1     188.066 184.611 176.242  0.00  0.00    -0.501 OA
ATOM     37  H   UNL     1     187.941 185.232 176.980  0.00  0.00     0.292 HD
ENDBRANCH  31  36
BRANCH  32  38
ATOM     38  O   UNL     1     187.823 182.880 174.093  0.00  0.00    -0.503 OA
ATOM     39  H   UNL     1     187.546 181.988 174.368  0.00  0.00     0.292 HD
ENDBRANCH  32  38
ENDBRANCH  26  28
ENDBRANCH  25  26
ENDBRANCH   4  25
BRANCH   2  40
ATOM     40  O   UNL     1     179.206 181.762 170.566  0.00  0.00    -0.429 OA
BRANCH  40  41
ATOM     41  C   UNL     1     178.748 180.928 169.596  0.00  0.00     0.342 C 
ATOM     42  O   UNL     1     179.167 180.854 168.451  0.00  0.00    -0.245 OA
BRANCH  41  43
ATOM     43  C   UNL     1     177.638 180.087 170.113  0.00  0.00     0.066 A 
ATOM     44  C   UNL     1     176.599 179.707 169.265  0.00  0.00     0.064 A 
ATOM     45  C   UNL     1     175.555 178.919 169.752  0.00  0.00     0.163 A 
ATOM     46  C   UNL     1     175.552 178.511 171.085  0.00  0.00     0.201 A 
ATOM     47  C   UNL     1     176.593 178.891 171.933  0.00  0.00     0.163 A 
ATOM     48  C   UNL     1     177.636 179.679 171.447  0.00  0.00     0.064 A 
BRANCH  45  49
ATOM     49  O   UNL     1     174.545 178.555 168.913  0.00  0.00    -0.503 OA
ATOM     50  H   UNL     1     174.159 177.719 169.223  0.00  0.00     0.292 HD
ENDBRANCH  45  49
BRANCH  46  51
ATOM     51  O   UNL     1     174.533 177.740 171.559  0.00  0.00    -0.501 OA
ATOM     52  H   UNL     1     174.727 177.511 172.485  0.00  0.00     0.292 HD
ENDBRANCH  46  51
BRANCH  47  53
ATOM     53  O   UNL     1     176.601 178.500 173.238  0.00  0.00    -0.503 OA
ATOM     54  H   UNL     1     177.402 177.975 173.408  0.00  0.00     0.292 HD
ENDBRANCH  47  53
ENDBRANCH  41  43
ENDBRANCH  40  41
ENDBRANCH   2  40
BRANCH   3  55
ATOM     55  O   UNL     1     180.800 184.052 171.044  0.00  0.00    -0.382 OA
ATOM     56  H   UNL     1     181.522 184.655 171.292  0.00  0.00     0.210 HD
ENDBRANCH   3  55
TORSDOF 21
ENDMDL
MODEL 9
REMARK VINA RESULT:      -8.2      1.194      2.086
REMARK  21 active torsions:
REMARK  status: ('A' for Active; 'I' for Inactive)
REMARK    1  A    between atoms: C_2  and  O_11 
REMARK    2  A    between atoms: C_3  and  O_7 
REMARK    3  A    between atoms: C_4  and  O_42 
REMARK    4  A    between atoms: C_5  and  O_9 
REMARK    5  A    between atoms: C_6  and  C_26 
REMARK    6  A    between atoms: O_11  and  C_12 
REMARK    7  A    between atoms: C_12  and  C_14 
REMARK    8  A    between atoms: C_16  and  O_20 
REMARK    9  A    between atoms: C_17  and  O_22 
REMARK   10  A    between atoms: C_18  and  O_24 
REMARK   11  A    between atoms: C_26  and  O_27 
REMARK   12  A    between atoms: O_27  and  C_28 
REMARK   13  A    between atoms: C_28  and  C_30 
REMARK   14  A    between atoms: C_32  and  O_36 
REMARK   15  A    between atoms: C_33  and  O_38 
REMARK   16  A    between atoms: C_34  and  O_40 
REMARK   17  A    between atoms: O_42  and  C_43 
REMARK   18  A    between atoms: C_43  and  C_45 
REMARK   19  A    between atoms: C_47  and  O_51 
REMARK   20  A    between atoms: C_48  and  O_53 
REMARK   21  A    between atoms: C_49  and  O_55 
ROOT
ATOM      1  O   UNL     1     182.572 183.113 172.111  0.00  0.00    -0.330 OA
ATOM      2  C   UNL     1     181.463 183.269 172.994  0.00  0.00     0.344 C 
ATOM      3  C   UNL     1     180.721 184.572 172.696  0.00  0.00     0.226 C 
ATOM      4  C   UNL     1     180.321 184.660 171.223  0.00  0.00     0.242 C 
ATOM      5  C   UNL     1     181.500 184.329 170.308  0.00  0.00     0.190 C 
ATOM      6  C   UNL     1     182.174 183.025 170.741  0.00  0.00     0.192 C 
ENDROOT
BRANCH   6   7
ATOM      7  C   UNL     1     183.424 182.735 169.917  0.00  0.00     0.266 C 
BRANCH   7   8
ATOM      8  O   UNL     1     184.554 183.188 170.639  0.00  0.00    -0.458 OA
BRANCH   8   9
ATOM      9  C   UNL     1     185.667 183.471 169.902  0.00  0.00     0.340 C 
ATOM     10  O   UNL     1     186.001 182.910 168.869  0.00  0.00    -0.245 OA
BRANCH   9  11
ATOM     11  C   UNL     1     186.450 184.571 170.520  0.00  0.00     0.066 A 
ATOM     12  C   UNL     1     185.816 185.497 171.349  0.00  0.00     0.064 A 
ATOM     13  C   UNL     1     186.551 186.529 171.932  0.00  0.00     0.163 A 
ATOM     14  C   UNL     1     187.919 186.635 171.688  0.00  0.00     0.201 A 
ATOM     15  C   UNL     1     188.553 185.709 170.859  0.00  0.00     0.163 A 
ATOM     16  C   UNL     1     187.819 184.677 170.276  0.00  0.00     0.064 A 
BRANCH  13  17
ATOM     17  O   UNL     1     185.920 187.427 172.740  0.00  0.00    -0.503 OA
ATOM     18  H   UNL     1     186.300 187.373 173.633  0.00  0.00     0.292 HD
ENDBRANCH  13  17
BRANCH  14  19
ATOM     19  O   UNL     1     188.639 187.644 172.256  0.00  0.00    -0.501 OA
ATOM     20  H   UNL     1     188.201 188.488 172.048  0.00  0.00     0.292 HD
ENDBRANCH  14  19
BRANCH  15  21
ATOM     21  O   UNL     1     189.891 185.800 170.612  0.00  0.00    -0.503 OA
ATOM     22  H   UNL     1     190.071 186.631 170.142  0.00  0.00     0.292 HD
ENDBRANCH  15  21
ENDBRANCH   9  11
ENDBRANCH   8   9
ENDBRANCH   7   8
ENDBRANCH   6   7
BRANCH   5  23
ATOM     23  O   UNL     1     181.035 184.197 168.968  0.00  0.00    -0.385 OA
ATOM     24  H   UNL     1     180.554 183.354 168.898  0.00  0.00     0.210 HD
ENDBRANCH   5  23
BRANCH   4  25
ATOM     25  O   UNL     1     179.890 185.989 170.926  0.00  0.00    -0.452 OA
BRANCH  25  26
ATOM     26  C   UNL     1     178.854 186.095 170.054  0.00  0.00     0.340 C 
ATOM     27  O   UNL     1     177.879 185.362 170.000  0.00  0.00    -0.245 OA
BRANCH  26  28
ATOM     28  C   UNL     1     179.057 187.248 169.142  0.00  0.00     0.066 A 
ATOM     29  C   UNL     1     178.843 187.101 167.772  0.00  0.00     0.064 A 
ATOM     30  C   UNL     1     179.031 188.186 166.915  0.00  0.00     0.163 A 
ATOM     31  C   UNL     1     179.436 189.417 167.429  0.00  0.00     0.201 A 
ATOM     32  C   UNL     1     179.652 189.565 168.799  0.00  0.00     0.163 A 
ATOM     33  C   UNL     1     179.462 188.480 169.656  0.00  0.00     0.064 A 
BRANCH  30  34
ATOM     34  O   UNL     1     178.817 188.029 165.579  0.00  0.00    -0.503 OA
ATOM     35  H   UNL     1     179.674 187.938 165.128  0.00  0.00     0.292 HD
ENDBRANCH  30  34
BRANCH  31  36
ATOM     36  O   UNL     1     179.623 190.478 166.592  0.00  0.00    -0.501 OA
ATOM     37  H   UNL     1     179.004 190.391 165.845  0.00  0.00     0.292 HD
ENDBRANCH  31  36
BRANCH  32  38
ATOM     38  O   UNL     1     180.047 190.763 169.314  0.00  0.00    -0.503 OA
ATOM     39  H   UNL     1     180.133 190.681 170.280  0.00  0.00     0.292 HD
ENDBRANCH  32  38
ENDBRANCH  26  28
ENDBRANCH  25  26
ENDBRANCH   4  25
BRANCH   2  40
ATOM     40  O   UNL     1     181.926 183.325 174.343  0.00  0.00    -0.429 OA
BRANCH  40  41
ATOM     41  C   UNL     1     182.958 182.497 174.649  0.00  0.00     0.342 C 
ATOM     42  O   UNL     1     182.887 181.291 174.831  0.00  0.00    -0.245 OA
BRANCH  41  43
ATOM     43  C   UNL     1     184.229 183.260 174.742  0.00  0.00     0.066 A 
ATOM     44  C   UNL     1     185.424 182.677 174.321  0.00  0.00     0.064 A 
ATOM     45  C   UNL     1     186.618 183.394 174.410  0.00  0.00     0.163 A 
ATOM     46  C   UNL     1     186.617 184.692 174.919  0.00  0.00     0.201 A 
ATOM     47  C   UNL     1     185.421 185.274 175.340  0.00  0.00     0.163 A 
ATOM     48  C   UNL     1     184.227 184.558 175.252  0.00  0.00     0.064 A 
BRANCH  45  49
ATOM     49  O   UNL     1     187.779 182.812 173.996  0.00  0.00    -0.503 OA
ATOM     50  H   UNL     1     187.923 181.995 174.501  0.00  0.00     0.292 HD
ENDBRANCH  45  49
BRANCH  46  51
ATOM     51  O   UNL     1     187.783 185.391 175.005  0.00  0.00    -0.501 OA
ATOM     52  H   UNL     1     188.444 184.833 175.451  0.00  0.00     0.292 HD
ENDBRANCH  46  51
BRANCH  47  53
ATOM     53  O   UNL     1     185.406 186.541 175.840  0.00  0.00    -0.503 OA
ATOM     54  H   UNL     1     184.566 186.690 176.308  0.00  0.00     0.292 HD
ENDBRANCH  47  53
ENDBRANCH  41  43
ENDBRANCH  40  41
ENDBRANCH   2  40
BRANCH   3  55
ATOM     55  O   UNL     1     179.548 184.613 173.509  0.00  0.00    -0.382 OA
ATOM     56  H   UNL     1     179.505 183.787 174.019  0.00  0.00     0.210 HD
ENDBRANCH   3  55
TORSDOF 21
ENDMDL
MODEL 10
REMARK VINA RESULT:      -8.2      5.275     10.248
REMARK  21 active torsions:
REMARK  status: ('A' for Active; 'I' for Inactive)
REMARK    1  A    between atoms: C_2  and  O_11 
REMARK    2  A    between atoms: C_3  and  O_7 
REMARK    3  A    between atoms: C_4  and  O_42 
REMARK    4  A    between atoms: C_5  and  O_9 
REMARK    5  A    between atoms: C_6  and  C_26 
REMARK    6  A    between atoms: O_11  and  C_12 
REMARK    7  A    between atoms: C_12  and  C_14 
REMARK    8  A    between atoms: C_16  and  O_20 
REMARK    9  A    between atoms: C_17  and  O_22 
REMARK   10  A    between atoms: C_18  and  O_24 
REMARK   11  A    between atoms: C_26  and  O_27 
REMARK   12  A    between atoms: O_27  and  C_28 
REMARK   13  A    between atoms: C_28  and  C_30 
REMARK   14  A    between atoms: C_32  and  O_36 
REMARK   15  A    between atoms: C_33  and  O_38 
REMARK   16  A    between atoms: C_34  and  O_40 
REMARK   17  A    between atoms: O_42  and  C_43 
REMARK   18  A    between atoms: C_43  and  C_45 
REMARK   19  A    between atoms: C_47  and  O_51 
REMARK   20  A    between atoms: C_48  and  O_53 
REMARK   21  A    between atoms: C_49  and  O_55 
ROOT
ATOM      1  O   UNL     1     180.611 180.513 171.626  0.00  0.00    -0.330 OA
ATOM      2  C   UNL     1     181.415 180.353 172.792  0.00  0.00     0.344 C 
ATOM      3  C   UNL     1     182.631 181.279 172.736  0.00  0.00     0.226 C 
ATOM      4  C   UNL     1     182.214 182.730 172.500  0.00  0.00     0.242 C 
ATOM      5  C   UNL     1     181.226 182.841 171.339  0.00  0.00     0.190 C 
ATOM      6  C   UNL     1     180.083 181.835 171.501  0.00  0.00     0.192 C 
ENDROOT
BRANCH   6   7
ATOM      7  C   UNL     1     179.147 181.846 170.297  0.00  0.00     0.266 C 
BRANCH   7   8
ATOM      8  O   UNL     1     178.711 180.520 170.055  0.00  0.00    -0.458 OA
BRANCH   8   9
ATOM      9  C   UNL     1     177.361 180.324 170.036  0.00  0.00     0.340 C 
ATOM     10  O   UNL     1     176.528 181.125 169.639  0.00  0.00    -0.245 OA
BRANCH   9  11
ATOM     11  C   UNL     1     177.010 178.984 170.571  0.00  0.00     0.066 A 
ATOM     12  C   UNL     1     176.403 178.040 169.743  0.00  0.00     0.064 A 
ATOM     13  C   UNL     1     176.075 176.780 170.244  0.00  0.00     0.163 A 
ATOM     14  C   UNL     1     176.356 176.464 171.573  0.00  0.00     0.201 A 
ATOM     15  C   UNL     1     176.963 177.408 172.401  0.00  0.00     0.163 A 
ATOM     16  C   UNL     1     177.291 178.667 171.900  0.00  0.00     0.064 A 
BRANCH  13  17
ATOM     17  O   UNL     1     175.482 175.866 169.426  0.00  0.00    -0.503 OA
ATOM     18  H   UNL     1     175.640 174.974 169.779  0.00  0.00     0.292 HD
ENDBRANCH  13  17
BRANCH  14  19
ATOM     19  O   UNL     1     176.035 175.233 172.065  0.00  0.00    -0.501 OA
ATOM     20  H   UNL     1     176.826 174.858 172.491  0.00  0.00     0.292 HD
ENDBRANCH  14  19
BRANCH  15  21
ATOM     21  O   UNL     1     177.244 177.112 173.701  0.00  0.00    -0.503 OA
ATOM     22  H   UNL     1     176.528 176.563 174.063  0.00  0.00     0.292 HD
ENDBRANCH  15  21
ENDBRANCH   9  11
ENDBRANCH   8   9
ENDBRANCH   7   8
ENDBRANCH   6   7
BRANCH   5  23
ATOM     23  O   UNL     1     180.690 184.160 171.301  0.00  0.00    -0.385 OA
ATOM     24  H   UNL     1     181.231 184.688 170.689  0.00  0.00     0.210 HD
ENDBRANCH   5  23
BRANCH   4  25
ATOM     25  O   UNL     1     183.367 183.509 172.175  0.00  0.00    -0.452 OA
BRANCH  25  26
ATOM     26  C   UNL     1     183.501 184.680 172.851  0.00  0.00     0.340 C 
ATOM     27  O   UNL     1     182.761 185.648 172.769  0.00  0.00    -0.245 OA
BRANCH  26  28
ATOM     28  C   UNL     1     184.697 184.639 173.730  0.00  0.00     0.066 A 
ATOM     29  C   UNL     1     184.800 185.517 174.809  0.00  0.00     0.064 A 
ATOM     30  C   UNL     1     185.923 185.477 175.636  0.00  0.00     0.163 A 
ATOM     31  C   UNL     1     186.943 184.561 175.382  0.00  0.00     0.201 A 
ATOM     32  C   UNL     1     186.841 183.683 174.302  0.00  0.00     0.163 A 
ATOM     33  C   UNL     1     185.717 183.723 173.476  0.00  0.00     0.064 A 
BRANCH  30  34
ATOM     34  O   UNL     1     186.011 186.339 176.687  0.00  0.00    -0.503 OA
ATOM     35  H   UNL     1     186.328 187.201 176.366  0.00  0.00     0.292 HD
ENDBRANCH  30  34
BRANCH  31  36
ATOM     36  O   UNL     1     188.042 184.523 176.188  0.00  0.00    -0.501 OA
ATOM     37  H   UNL     1     188.836 184.580 175.628  0.00  0.00     0.292 HD
ENDBRANCH  31  36
BRANCH  32  38
ATOM     38  O   UNL     1     187.830 182.783 174.044  0.00  0.00    -0.503 OA
ATOM     39  H   UNL     1     188.316 183.064 173.249  0.00  0.00     0.292 HD
ENDBRANCH  32  38
ENDBRANCH  26  28
ENDBRANCH  25  26
ENDBRANCH   4  25
BRANCH   2  40
ATOM     40  O   UNL     1     181.889 179.009 172.870  0.00  0.00    -0.429 OA
BRANCH  40  41
ATOM     41  C   UNL     1     182.030 178.362 171.683  0.00  0.00     0.342 C 
ATOM     42  O   UNL     1     182.765 178.691 170.764  0.00  0.00    -0.245 OA
BRANCH  41  43
ATOM     43  C   UNL     1     181.154 177.164 171.635  0.00  0.00     0.066 A 
ATOM     44  C   UNL     1     180.539 176.797 170.439  0.00  0.00     0.064 A 
ATOM     45  C   UNL     1     179.714 175.672 170.395  0.00  0.00     0.163 A 
ATOM     46  C   UNL     1     179.504 174.916 171.547  0.00  0.00     0.201 A 
ATOM     47  C   UNL     1     180.119 175.283 172.744  0.00  0.00     0.163 A 
ATOM     48  C   UNL     1     180.944 176.407 172.789  0.00  0.00     0.064 A 
BRANCH  45  49
ATOM     49  O   UNL     1     179.119 175.326 169.219  0.00  0.00    -0.503 OA
ATOM     50  H   UNL     1     179.756 174.838 168.672  0.00  0.00     0.292 HD
ENDBRANCH  45  49
BRANCH  46  51
ATOM     51  O   UNL     1     178.699 173.817 171.504  0.00  0.00    -0.501 OA
ATOM     52  H   UNL     1     177.802 174.103 171.255  0.00  0.00     0.292 HD
ENDBRANCH  46  51
BRANCH  47  53
ATOM     53  O   UNL     1     179.922 174.553 173.877  0.00  0.00    -0.503 OA
ATOM     54  H   UNL     1     180.459 173.743 173.832  0.00  0.00     0.292 HD
ENDBRANCH  47  53
ENDBRANCH  41  43
ENDBRANCH  40  41
ENDBRANCH   2  40
BRANCH   3  55
ATOM     55  O   UNL     1     183.325 181.181 173.980  0.00  0.00    -0.382 OA
ATOM     56  H   UNL     1     183.824 180.346 173.983  0.00  0.00     0.210 HD
ENDBRANCH   3  55
TORSDOF 21
ENDMDL
