MODEL 1
REMARK VINA RESULT:      -9.0      0.000      0.000
REMARK  13 active torsions:
REMARK  status: ('A' for Active; 'I' for Inactive)
REMARK    1  A    between atoms: C_2  and  O_3 
REMARK    2  A    between atoms: C_15  and  O_16 
REMARK    3  A    between atoms: C_28  and  O_29 
REMARK    4  A    between atoms: C_41  and  O_42 
REMARK    5  A    between atoms: C_54  and  C_55 
REMARK    6  A    between atoms: O_3  and  C_4 
REMARK    7  A    between atoms: C_4  and  C_6 
REMARK    8  A    between atoms: O_16  and  C_17 
REMARK    9  A    between atoms: C_17  and  C_19 
REMARK   10  A    between atoms: O_29  and  C_30 
REMARK   11  A    between atoms: C_30  and  C_32 
REMARK   12  A    between atoms: O_42  and  C_43 
REMARK   13  A    between atoms: C_43  and  C_45 
ROOT
ATOM      1  O   LIG     1     174.441 173.109 170.234  0.00  0.00    -0.314 OA
ATOM      2  C   LIG     1     175.174 172.837 171.448  0.00  0.00     0.335 C 
ATOM      3  C   LIG     1     176.421 173.757 171.574  0.00  0.00     0.282 C 
ATOM      4  C   LIG     1     175.998 175.248 171.407  0.00  0.00     0.257 C 
ATOM      5  C   LIG     1     175.158 175.455 170.113  0.00  0.00     0.242 C 
ATOM      6  C   LIG     1     173.961 174.457 170.083  0.00  0.00     0.195 C 
ENDROOT
BRANCH   2   7
ATOM      7  O   LIG     1     175.576 171.466 171.338  0.00  0.00    -0.417 OA
BRANCH   7   8
ATOM      8  C   LIG     1     175.049 170.490 172.131  0.00  0.00     0.343 C 
ATOM      9  O   LIG     1     174.101 169.818 171.658  0.00  0.00    -0.245 OA
BRANCH   8  10
ATOM     10  C   LIG     1     175.607 170.218 173.410  0.00  0.00     0.082 A 
ATOM     11  C   LIG     1     175.110 170.856 174.573  0.00  0.00     0.052 A 
ATOM     12  C   LIG     1     175.584 170.510 175.854  0.00  0.00     0.238 A 
ATOM     13  C   LIG     1     176.568 169.511 175.991  0.00  0.00     0.273 A 
ATOM     14  O   LIG     1     175.084 171.127 176.953  0.00  0.00    -0.283 OA
ATOM     15  C   LIG     1     177.096 168.887 174.846  0.00  0.00     0.238 A 
ATOM     16  O   LIG     1     177.016 169.131 177.215  0.00  0.00    -0.280 OA
ATOM     17  C   LIG     1     176.631 169.249 173.567  0.00  0.00     0.052 A 
ATOM     18  O   LIG     1     178.043 167.925 174.982  0.00  0.00    -0.283 OA
ENDBRANCH   8  10
ENDBRANCH   7   8
ENDBRANCH   2   7
BRANCH   3  19
ATOM     19  O   LIG     1     177.069 173.612 172.850  0.00  0.00    -0.439 OA
BRANCH  19  20
ATOM     20  C   LIG     1     178.314 173.095 173.066  0.00  0.00     0.342 C 
ATOM     21  O   LIG     1     178.355 172.070 173.787  0.00  0.00    -0.245 OA
BRANCH  20  22
ATOM     22  C   LIG     1     179.502 173.711 172.585  0.00  0.00     0.082 A 
ATOM     23  C   LIG     1     180.041 174.854 173.224  0.00  0.00     0.052 A 
ATOM     24  C   LIG     1     181.216 175.470 172.750  0.00  0.00     0.238 A 
ATOM     25  O   LIG     1     181.688 176.563 173.402  0.00  0.00    -0.283 OA
ATOM     26  C   LIG     1     181.876 174.952 171.618  0.00  0.00     0.273 A 
ATOM     27  O   LIG     1     183.008 175.556 171.169  0.00  0.00    -0.280 OA
ATOM     28  C   LIG     1     181.354 173.816 170.967  0.00  0.00     0.238 A 
ATOM     29  C   LIG     1     180.180 173.203 171.452  0.00  0.00     0.052 A 
ATOM     30  O   LIG     1     181.983 173.318 169.873  0.00  0.00    -0.283 OA
ENDBRANCH  20  22
ENDBRANCH  19  20
ENDBRANCH   3  19
BRANCH   4  31
ATOM     31  O   LIG     1     177.148 176.116 171.347  0.00  0.00    -0.441 OA
BRANCH  31  32
ATOM     32  C   LIG     1     177.383 177.235 172.100  0.00  0.00     0.342 C 
ATOM     33  O   LIG     1     176.637 177.390 173.094  0.00  0.00    -0.245 OA
BRANCH  32  34
ATOM     34  C   LIG     1     178.468 178.129 171.876  0.00  0.00     0.082 A 
ATOM     35  C   LIG     1     178.504 179.407 172.486  0.00  0.00     0.052 A 
ATOM     36  C   LIG     1     179.590 180.281 172.277  0.00  0.00     0.238 A 
ATOM     37  C   LIG     1     180.663 179.886 171.457  0.00  0.00     0.273 A 
ATOM     38  O   LIG     1     179.610 181.506 172.863  0.00  0.00    -0.283 OA
ATOM     39  O   LIG     1     181.709 180.730 171.270  0.00  0.00    -0.280 OA
ATOM     40  C   LIG     1     180.640 178.622 170.835  0.00  0.00     0.238 A 
ATOM     41  O   LIG     1     181.664 178.249 170.027  0.00  0.00    -0.283 OA
ATOM     42  C   LIG     1     179.556 177.751 171.055  0.00  0.00     0.052 A 
ENDBRANCH  32  34
ENDBRANCH  31  32
ENDBRANCH   4  31
BRANCH   6  43
ATOM     43  C   LIG     1     173.162 174.517 168.757  0.00  0.00     0.215 C 
ATOM     44  O   LIG     1     171.915 175.178 168.952  0.00  0.00    -0.218 OA
ENDBRANCH   6  43
BRANCH   5  45
ATOM     45  O   LIG     1     174.633 176.798 170.072  0.00  0.00    -0.443 OA
BRANCH  45  46
ATOM     46  C   LIG     1     174.789 177.751 169.102  0.00  0.00     0.341 C 
ATOM     47  O   LIG     1     173.853 177.830 168.274  0.00  0.00    -0.245 OA
BRANCH  46  48
ATOM     48  C   LIG     1     175.946 178.552 168.928  0.00  0.00     0.082 A 
ATOM     49  C   LIG     1     177.023 178.020 168.104  0.00  0.00     0.052 A 
ATOM     50  C   LIG     1     178.194 178.795 167.953  0.00  0.00     0.238 A 
ATOM     51  O   LIG     1     179.220 178.317 167.206  0.00  0.00    -0.283 OA
ATOM     52  C   LIG     1     178.339 180.065 168.558  0.00  0.00     0.273 A 
ATOM     53  O   LIG     1     179.487 180.771 168.364  0.00  0.00    -0.280 OA
ATOM     54  C   LIG     1     177.244 180.568 169.370  0.00  0.00     0.238 A 
ATOM     55  O   LIG     1     177.501 181.830 169.911  0.00  0.00    -0.283 OA
ATOM     56  C   LIG     1     175.990 179.833 169.608  0.00  0.00     0.052 A 
ENDBRANCH  46  48
ENDBRANCH  45  46
ENDBRANCH   5  45
TORSDOF 13
ENDMDL
MODEL 2
REMARK VINA RESULT:      -8.8      0.998      8.138
REMARK  13 active torsions:
REMARK  status: ('A' for Active; 'I' for Inactive)
REMARK    1  A    between atoms: C_2  and  O_3 
REMARK    2  A    between atoms: C_15  and  O_16 
REMARK    3  A    between atoms: C_28  and  O_29 
REMARK    4  A    between atoms: C_41  and  O_42 
REMARK    5  A    between atoms: C_54  and  C_55 
REMARK    6  A    between atoms: O_3  and  C_4 
REMARK    7  A    between atoms: C_4  and  C_6 
REMARK    8  A    between atoms: O_16  and  C_17 
REMARK    9  A    between atoms: C_17  and  C_19 
REMARK   10  A    between atoms: O_29  and  C_30 
REMARK   11  A    between atoms: C_30  and  C_32 
REMARK   12  A    between atoms: O_42  and  C_43 
REMARK   13  A    between atoms: C_43  and  C_45 
ROOT
ATOM      1  O   LIG     1     173.504 175.392 169.633  0.00  0.00    -0.314 OA
ATOM      2  C   LIG     1     174.741 176.118 169.800  0.00  0.00     0.335 C 
ATOM      3  C   LIG     1     175.411 175.788 171.164  0.00  0.00     0.282 C 
ATOM      4  C   LIG     1     175.553 174.244 171.326  0.00  0.00     0.257 C 
ATOM      5  C   LIG     1     174.198 173.522 171.068  0.00  0.00     0.242 C 
ATOM      6  C   LIG     1     173.610 173.957 169.692  0.00  0.00     0.195 C 
ENDROOT
BRANCH   2   7
ATOM      7  O   LIG     1     174.368 177.500 169.750  0.00  0.00    -0.417 OA
BRANCH   7   8
ATOM      8  C   LIG     1     174.784 178.327 168.749  0.00  0.00     0.343 C 
ATOM      9  O   LIG     1     173.949 178.616 167.860  0.00  0.00    -0.245 OA
BRANCH   8  10
ATOM     10  C   LIG     1     176.094 178.881 168.767  0.00  0.00     0.082 A 
ATOM     11  C   LIG     1     177.164 178.244 168.090  0.00  0.00     0.052 A 
ATOM     12  C   LIG     1     178.437 178.843 168.011  0.00  0.00     0.238 A 
ATOM     13  C   LIG     1     178.660 180.098 168.612  0.00  0.00     0.273 A 
ATOM     14  O   LIG     1     179.441 178.219 167.348  0.00  0.00    -0.283 OA
ATOM     15  C   LIG     1     177.618 180.732 169.314  0.00  0.00     0.238 A 
ATOM     16  O   LIG     1     179.865 180.716 168.520  0.00  0.00    -0.280 OA
ATOM     17  C   LIG     1     176.353 180.120 169.404  0.00  0.00     0.052 A 
ATOM     18  O   LIG     1     177.836 181.941 169.891  0.00  0.00    -0.283 OA
ENDBRANCH   8  10
ENDBRANCH   7   8
ENDBRANCH   2   7
BRANCH   3  19
ATOM     19  O   LIG     1     176.719 176.376 171.277  0.00  0.00    -0.439 OA
BRANCH  19  20
ATOM     20  C   LIG     1     177.055 177.448 172.052  0.00  0.00     0.342 C 
ATOM     21  O   LIG     1     176.175 177.826 172.861  0.00  0.00    -0.245 OA
BRANCH  20  22
ATOM     22  C   LIG     1     178.282 178.153 171.909  0.00  0.00     0.082 A 
ATOM     23  C   LIG     1     178.441 179.456 172.440  0.00  0.00     0.052 A 
ATOM     24  C   LIG     1     179.653 180.159 172.298  0.00  0.00     0.238 A 
ATOM     25  O   LIG     1     179.749 181.406 172.827  0.00  0.00    -0.283 OA
ATOM     26  C   LIG     1     180.735 179.570 171.615  0.00  0.00     0.273 A 
ATOM     27  O   LIG     1     181.899 180.260 171.483  0.00  0.00    -0.280 OA
ATOM     28  C   LIG     1     180.596 178.274 171.078  0.00  0.00     0.238 A 
ATOM     29  C   LIG     1     179.381 177.576 171.229  0.00  0.00     0.052 A 
ATOM     30  O   LIG     1     181.634 177.705 170.413  0.00  0.00    -0.283 OA
ENDBRANCH  20  22
ENDBRANCH  19  20
ENDBRANCH   3  19
BRANCH   4  31
ATOM     31  O   LIG     1     176.012 173.895 172.647  0.00  0.00    -0.441 OA
BRANCH  31  32
ATOM     32  C   LIG     1     177.251 173.431 173.000  0.00  0.00     0.342 C 
ATOM     33  O   LIG     1     177.283 172.651 173.979  0.00  0.00    -0.245 OA
BRANCH  32  34
ATOM     34  C   LIG     1     178.438 173.695 172.259  0.00  0.00     0.082 A 
ATOM     35  C   LIG     1     179.542 174.354 172.854  0.00  0.00     0.052 A 
ATOM     36  C   LIG     1     180.723 174.596 172.123  0.00  0.00     0.238 A 
ATOM     37  C   LIG     1     180.819 174.177 170.783  0.00  0.00     0.273 A 
ATOM     38  O   LIG     1     181.772 175.233 172.702  0.00  0.00    -0.283 OA
ATOM     39  O   LIG     1     181.963 174.405 170.090  0.00  0.00    -0.280 OA
ATOM     40  C   LIG     1     179.727 173.528 170.173  0.00  0.00     0.238 A 
ATOM     41  O   LIG     1     179.811 173.143 168.875  0.00  0.00    -0.283 OA
ATOM     42  C   LIG     1     178.554 173.282 170.911  0.00  0.00     0.052 A 
ENDBRANCH  32  34
ENDBRANCH  31  32
ENDBRANCH   4  31
BRANCH   6  43
ATOM     43  C   LIG     1     172.195 173.380 169.434  0.00  0.00     0.215 C 
ATOM     44  O   LIG     1     171.331 173.660 170.532  0.00  0.00    -0.218 OA
ENDBRANCH   6  43
BRANCH   5  45
ATOM     45  O   LIG     1     174.393 172.093 171.050  0.00  0.00    -0.443 OA
BRANCH  45  46
ATOM     46  C   LIG     1     173.899 171.149 171.908  0.00  0.00     0.341 C 
ATOM     47  O   LIG     1     172.703 170.828 171.718  0.00  0.00    -0.245 OA
BRANCH  46  48
ATOM     48  C   LIG     1     174.601 170.609 173.015  0.00  0.00     0.082 A 
ATOM     49  C   LIG     1     174.183 171.017 174.350  0.00  0.00     0.052 A 
ATOM     50  C   LIG     1     174.898 170.511 175.457  0.00  0.00     0.238 A 
ATOM     51  O   LIG     1     174.543 170.889 176.711  0.00  0.00    -0.283 OA
ATOM     52  C   LIG     1     175.984 169.618 175.308  0.00  0.00     0.273 A 
ATOM     53  O   LIG     1     176.626 169.155 176.416  0.00  0.00    -0.280 OA
ATOM     54  C   LIG     1     176.373 169.228 173.962  0.00  0.00     0.238 A 
ATOM     55  O   LIG     1     177.452 168.343 173.942  0.00  0.00    -0.283 OA
ATOM     56  C   LIG     1     175.708 169.711 172.740  0.00  0.00     0.052 A 
ENDBRANCH  46  48
ENDBRANCH  45  46
ENDBRANCH   5  45
TORSDOF 13
ENDMDL
MODEL 3
REMARK VINA RESULT:      -8.8      2.405      3.912
REMARK  13 active torsions:
REMARK  status: ('A' for Active; 'I' for Inactive)
REMARK    1  A    between atoms: C_2  and  O_3 
REMARK    2  A    between atoms: C_15  and  O_16 
REMARK    3  A    between atoms: C_28  and  O_29 
REMARK    4  A    between atoms: C_41  and  O_42 
REMARK    5  A    between atoms: C_54  and  C_55 
REMARK    6  A    between atoms: O_3  and  C_4 
REMARK    7  A    between atoms: C_4  and  C_6 
REMARK    8  A    between atoms: O_16  and  C_17 
REMARK    9  A    between atoms: C_17  and  C_19 
REMARK   10  A    between atoms: O_29  and  C_30 
REMARK   11  A    between atoms: C_30  and  C_32 
REMARK   12  A    between atoms: O_42  and  C_43 
REMARK   13  A    between atoms: C_43  and  C_45 
ROOT
ATOM      1  O   LIG     1     172.463 170.640 171.437  0.00  0.00    -0.314 OA
ATOM      2  C   LIG     1     173.812 170.597 171.950  0.00  0.00     0.335 C 
ATOM      3  C   LIG     1     174.745 171.565 171.170  0.00  0.00     0.282 C 
ATOM      4  C   LIG     1     174.122 172.994 171.140  0.00  0.00     0.257 C 
ATOM      5  C   LIG     1     172.648 172.956 170.639  0.00  0.00     0.242 C 
ATOM      6  C   LIG     1     171.823 171.929 171.472  0.00  0.00     0.195 C 
ENDROOT
BRANCH   2   7
ATOM      7  O   LIG     1     174.234 169.240 171.765  0.00  0.00    -0.417 OA
BRANCH   7   8
ATOM      8  C   LIG     1     174.212 168.329 172.779  0.00  0.00     0.343 C 
ATOM      9  O   LIG     1     173.387 167.389 172.687  0.00  0.00    -0.245 OA
BRANCH   8  10
ATOM     10  C   LIG     1     175.138 168.422 173.855  0.00  0.00     0.082 A 
ATOM     11  C   LIG     1     176.519 168.625 173.611  0.00  0.00     0.052 A 
ATOM     12  C   LIG     1     177.424 168.829 174.672  0.00  0.00     0.238 A 
ATOM     13  C   LIG     1     176.957 168.834 176.001  0.00  0.00     0.273 A 
ATOM     14  O   LIG     1     178.739 169.032 174.413  0.00  0.00    -0.283 OA
ATOM     15  C   LIG     1     175.594 168.604 176.264  0.00  0.00     0.238 A 
ATOM     16  O   LIG     1     177.799 169.064 177.040  0.00  0.00    -0.280 OA
ATOM     17  C   LIG     1     174.697 168.385 175.201  0.00  0.00     0.052 A 
ATOM     18  O   LIG     1     175.147 168.611 177.546  0.00  0.00    -0.283 OA
ENDBRANCH   8  10
ENDBRANCH   7   8
ENDBRANCH   2   7
BRANCH   3  19
ATOM     19  O   LIG     1     176.050 171.653 171.769  0.00  0.00    -0.439 OA
BRANCH  19  20
ATOM     20  C   LIG     1     176.364 172.314 172.921  0.00  0.00     0.342 C 
ATOM     21  O   LIG     1     175.766 171.917 173.950  0.00  0.00    -0.245 OA
BRANCH  20  22
ATOM     22  C   LIG     1     177.241 173.432 172.958  0.00  0.00     0.082 A 
ATOM     23  C   LIG     1     176.739 174.749 173.097  0.00  0.00     0.052 A 
ATOM     24  C   LIG     1     177.604 175.861 173.132  0.00  0.00     0.238 A 
ATOM     25  O   LIG     1     177.067 177.100 173.267  0.00  0.00    -0.283 OA
ATOM     26  C   LIG     1     178.996 175.675 173.024  0.00  0.00     0.273 A 
ATOM     27  O   LIG     1     179.820 176.755 173.057  0.00  0.00    -0.280 OA
ATOM     28  C   LIG     1     179.515 174.372 172.883  0.00  0.00     0.238 A 
ATOM     29  C   LIG     1     178.642 173.265 172.855  0.00  0.00     0.052 A 
ATOM     30  O   LIG     1     180.856 174.189 172.772  0.00  0.00    -0.283 OA
ENDBRANCH  20  22
ENDBRANCH  19  20
ENDBRANCH   3  19
BRANCH   4  31
ATOM     31  O   LIG     1     174.873 173.875 170.281  0.00  0.00    -0.441 OA
BRANCH  31  32
ATOM     32  C   LIG     1     175.878 173.533 169.416  0.00  0.00     0.342 C 
ATOM     33  O   LIG     1     175.583 172.678 168.550  0.00  0.00    -0.245 OA
BRANCH  32  34
ATOM     34  C   LIG     1     177.152 174.168 169.388  0.00  0.00     0.082 A 
ATOM     35  C   LIG     1     177.268 175.580 169.390  0.00  0.00     0.052 A 
ATOM     36  C   LIG     1     178.532 176.204 169.383  0.00  0.00     0.238 A 
ATOM     37  C   LIG     1     179.702 175.423 169.380  0.00  0.00     0.273 A 
ATOM     38  O   LIG     1     178.630 177.558 169.379  0.00  0.00    -0.283 OA
ATOM     39  O   LIG     1     180.914 176.033 169.384  0.00  0.00    -0.280 OA
ATOM     40  C   LIG     1     179.605 174.017 169.370  0.00  0.00     0.238 A 
ATOM     41  O   LIG     1     180.733 173.264 169.346  0.00  0.00    -0.283 OA
ATOM     42  C   LIG     1     178.340 173.400 169.385  0.00  0.00     0.052 A 
ENDBRANCH  32  34
ENDBRANCH  31  32
ENDBRANCH   4  31
BRANCH   6  43
ATOM     43  C   LIG     1     170.381 171.743 170.937  0.00  0.00     0.215 C 
ATOM     44  O   LIG     1     170.361 171.813 169.514  0.00  0.00    -0.218 OA
ENDBRANCH   6  43
BRANCH   5  45
ATOM     45  O   LIG     1     172.042 174.256 170.787  0.00  0.00    -0.443 OA
BRANCH  45  46
ATOM     46  C   LIG     1     171.893 175.245 169.852  0.00  0.00     0.341 C 
ATOM     47  O   LIG     1     170.838 175.191 169.180  0.00  0.00    -0.245 OA
BRANCH  46  48
ATOM     48  C   LIG     1     172.870 176.226 169.545  0.00  0.00     0.082 A 
ATOM     49  C   LIG     1     173.485 176.942 170.655  0.00  0.00     0.052 A 
ATOM     50  C   LIG     1     174.433 177.945 170.358  0.00  0.00     0.238 A 
ATOM     51  O   LIG     1     175.009 178.642 171.370  0.00  0.00    -0.283 OA
ATOM     52  C   LIG     1     174.810 178.257 169.031  0.00  0.00     0.273 A 
ATOM     53  O   LIG     1     175.739 179.226 168.809  0.00  0.00    -0.280 OA
ATOM     54  C   LIG     1     174.179 177.521 167.947  0.00  0.00     0.238 A 
ATOM     55  O   LIG     1     174.631 177.913 166.686  0.00  0.00    -0.283 OA
ATOM     56  C   LIG     1     173.166 176.471 168.146  0.00  0.00     0.052 A 
ENDBRANCH  46  48
ENDBRANCH  45  46
ENDBRANCH   5  45
TORSDOF 13
ENDMDL
MODEL 4
REMARK VINA RESULT:      -8.7      4.541      8.540
REMARK  13 active torsions:
REMARK  status: ('A' for Active; 'I' for Inactive)
REMARK    1  A    between atoms: C_2  and  O_3 
REMARK    2  A    between atoms: C_15  and  O_16 
REMARK    3  A    between atoms: C_28  and  O_29 
REMARK    4  A    between atoms: C_41  and  O_42 
REMARK    5  A    between atoms: C_54  and  C_55 
REMARK    6  A    between atoms: O_3  and  C_4 
REMARK    7  A    between atoms: C_4  and  C_6 
REMARK    8  A    between atoms: O_16  and  C_17 
REMARK    9  A    between atoms: C_17  and  C_19 
REMARK   10  A    between atoms: O_29  and  C_30 
REMARK   11  A    between atoms: C_30  and  C_32 
REMARK   12  A    between atoms: O_42  and  C_43 
REMARK   13  A    between atoms: C_43  and  C_45 
ROOT
ATOM      1  O   LIG     1     179.375 181.686 169.659  0.00  0.00    -0.314 OA
ATOM      2  C   LIG     1     179.450 180.574 170.576  0.00  0.00     0.335 C 
ATOM      3  C   LIG     1     180.832 180.520 171.288  0.00  0.00     0.282 C 
ATOM      4  C   LIG     1     181.148 181.902 171.937  0.00  0.00     0.257 C 
ATOM      5  C   LIG     1     180.984 183.059 170.908  0.00  0.00     0.242 C 
ATOM      6  C   LIG     1     179.578 182.988 170.238  0.00  0.00     0.195 C 
ENDROOT
BRANCH   2   7
ATOM      7  O   LIG     1     179.264 179.410 169.762  0.00  0.00    -0.417 OA
BRANCH   7   8
ATOM      8  C   LIG     1     178.308 178.477 170.039  0.00  0.00     0.343 C 
ATOM      9  O   LIG     1     177.242 178.885 170.557  0.00  0.00    -0.245 OA
BRANCH   8  10
ATOM     10  C   LIG     1     178.506 177.113 169.687  0.00  0.00     0.082 A 
ATOM     11  C   LIG     1     179.667 176.703 168.986  0.00  0.00     0.052 A 
ATOM     12  C   LIG     1     179.922 175.341 168.731  0.00  0.00     0.238 A 
ATOM     13  C   LIG     1     179.013 174.362 169.178  0.00  0.00     0.273 A 
ATOM     14  O   LIG     1     181.046 174.973 168.068  0.00  0.00    -0.283 OA
ATOM     15  C   LIG     1     177.840 174.752 169.849  0.00  0.00     0.238 A 
ATOM     16  O   LIG     1     179.251 173.040 168.980  0.00  0.00    -0.280 OA
ATOM     17  C   LIG     1     177.582 176.116 170.086  0.00  0.00     0.052 A 
ATOM     18  O   LIG     1     176.967 173.806 170.280  0.00  0.00    -0.283 OA
ENDBRANCH   8  10
ENDBRANCH   7   8
ENDBRANCH   2   7
BRANCH   3  19
ATOM     19  O   LIG     1     180.866 179.518 172.320  0.00  0.00    -0.439 OA
BRANCH  19  20
ATOM     20  C   LIG     1     181.737 178.471 172.396  0.00  0.00     0.342 C 
ATOM     21  O   LIG     1     182.953 178.779 172.396  0.00  0.00    -0.245 OA
BRANCH  20  22
ATOM     22  C   LIG     1     181.317 177.112 172.390  0.00  0.00     0.082 A 
ATOM     23  C   LIG     1     180.107 176.721 173.013  0.00  0.00     0.052 A 
ATOM     24  C   LIG     1     179.687 175.376 173.012  0.00  0.00     0.238 A 
ATOM     25  O   LIG     1     178.518 175.058 173.625  0.00  0.00    -0.283 OA
ATOM     26  C   LIG     1     180.477 174.391 172.388  0.00  0.00     0.273 A 
ATOM     27  O   LIG     1     180.062 173.096 172.396  0.00  0.00    -0.280 OA
ATOM     28  C   LIG     1     181.686 174.760 171.764  0.00  0.00     0.238 A 
ATOM     29  C   LIG     1     182.095 176.110 171.765  0.00  0.00     0.052 A 
ATOM     30  O   LIG     1     182.453 173.813 171.167  0.00  0.00    -0.283 OA
ENDBRANCH  20  22
ENDBRANCH  19  20
ENDBRANCH   3  19
BRANCH   4  31
ATOM     31  O   LIG     1     182.492 181.942 172.457  0.00  0.00    -0.441 OA
BRANCH  31  32
ATOM     32  C   LIG     1     182.871 182.073 173.766  0.00  0.00     0.342 C 
ATOM     33  O   LIG     1     182.284 181.326 174.581  0.00  0.00    -0.245 OA
BRANCH  32  34
ATOM     34  C   LIG     1     183.941 182.905 174.203  0.00  0.00     0.082 A 
ATOM     35  C   LIG     1     185.286 182.603 173.878  0.00  0.00     0.052 A 
ATOM     36  C   LIG     1     186.340 183.441 174.295  0.00  0.00     0.238 A 
ATOM     37  C   LIG     1     186.063 184.601 175.042  0.00  0.00     0.273 A 
ATOM     38  O   LIG     1     187.625 183.137 173.982  0.00  0.00    -0.283 OA
ATOM     39  O   LIG     1     187.083 185.407 175.429  0.00  0.00    -0.280 OA
ATOM     40  C   LIG     1     184.731 184.913 175.381  0.00  0.00     0.238 A 
ATOM     41  O   LIG     1     184.465 186.020 176.119  0.00  0.00    -0.283 OA
ATOM     42  C   LIG     1     183.683 184.076 174.954  0.00  0.00     0.052 A 
ENDBRANCH  32  34
ENDBRANCH  31  32
ENDBRANCH   4  31
BRANCH   6  43
ATOM     43  C   LIG     1     179.400 184.030 169.105  0.00  0.00     0.215 C 
ATOM     44  O   LIG     1     178.528 185.078 169.520  0.00  0.00    -0.218 OA
ENDBRANCH   6  43
BRANCH   5  45
ATOM     45  O   LIG     1     181.109 184.334 171.572  0.00  0.00    -0.443 OA
BRANCH  45  46
ATOM     46  C   LIG     1     181.938 185.380 171.271  0.00  0.00     0.341 C 
ATOM     47  O   LIG     1     181.361 186.445 170.953  0.00  0.00    -0.245 OA
BRANCH  46  48
ATOM     48  C   LIG     1     183.352 185.303 171.203  0.00  0.00     0.082 A 
ATOM     49  C   LIG     1     184.123 186.249 172.000  0.00  0.00     0.052 A 
ATOM     50  C   LIG     1     185.532 186.202 171.912  0.00  0.00     0.238 A 
ATOM     51  O   LIG     1     186.275 187.083 172.628  0.00  0.00    -0.283 OA
ATOM     52  C   LIG     1     186.206 185.263 171.097  0.00  0.00     0.273 A 
ATOM     53  O   LIG     1     187.566 185.260 171.066  0.00  0.00    -0.280 OA
ATOM     54  C   LIG     1     185.406 184.331 170.319  0.00  0.00     0.238 A 
ATOM     55  O   LIG     1     186.180 183.453 169.558  0.00  0.00    -0.283 OA
ATOM     56  C   LIG     1     183.933 184.307 170.322  0.00  0.00     0.052 A 
ENDBRANCH  46  48
ENDBRANCH  45  46
ENDBRANCH   5  45
TORSDOF 13
ENDMDL
MODEL 5
REMARK VINA RESULT:      -8.5      1.657      8.277
REMARK  13 active torsions:
REMARK  status: ('A' for Active; 'I' for Inactive)
REMARK    1  A    between atoms: C_2  and  O_3 
REMARK    2  A    between atoms: C_15  and  O_16 
REMARK    3  A    between atoms: C_28  and  O_29 
REMARK    4  A    between atoms: C_41  and  O_42 
REMARK    5  A    between atoms: C_54  and  C_55 
REMARK    6  A    between atoms: O_3  and  C_4 
REMARK    7  A    between atoms: C_4  and  C_6 
REMARK    8  A    between atoms: O_16  and  C_17 
REMARK    9  A    between atoms: C_17  and  C_19 
REMARK   10  A    between atoms: O_29  and  C_30 
REMARK   11  A    between atoms: C_30  and  C_32 
REMARK   12  A    between atoms: O_42  and  C_43 
REMARK   13  A    between atoms: C_43  and  C_45 
ROOT
ATOM      1  O   LIG     1     174.041 171.555 171.747  0.00  0.00    -0.314 OA
ATOM      2  C   LIG     1     174.815 172.620 171.153  0.00  0.00     0.335 C 
ATOM      3  C   LIG     1     175.934 173.110 172.116  0.00  0.00     0.282 C 
ATOM      4  C   LIG     1     176.786 171.898 172.599  0.00  0.00     0.257 C 
ATOM      5  C   LIG     1     175.883 170.763 173.166  0.00  0.00     0.242 C 
ATOM      6  C   LIG     1     174.783 170.383 172.129  0.00  0.00     0.195 C 
ENDROOT
BRANCH   2   7
ATOM      7  O   LIG     1     173.872 173.671 170.910  0.00  0.00    -0.417 OA
BRANCH   7   8
ATOM      8  C   LIG     1     173.620 174.143 169.655  0.00  0.00     0.343 C 
ATOM      9  O   LIG     1     173.183 173.324 168.813  0.00  0.00    -0.245 OA
BRANCH   8  10
ATOM     10  C   LIG     1     173.790 175.523 169.355  0.00  0.00     0.082 A 
ATOM     11  C   LIG     1     174.227 176.436 170.346  0.00  0.00     0.052 A 
ATOM     12  C   LIG     1     174.503 177.780 170.028  0.00  0.00     0.238 A 
ATOM     13  C   LIG     1     174.346 178.234 168.703  0.00  0.00     0.273 A 
ATOM     14  O   LIG     1     174.931 178.632 170.991  0.00  0.00    -0.283 OA
ATOM     15  C   LIG     1     173.884 177.349 167.711  0.00  0.00     0.238 A 
ATOM     16  O   LIG     1     174.640 179.514 168.360  0.00  0.00    -0.280 OA
ATOM     17  C   LIG     1     173.594 176.011 168.039  0.00  0.00     0.052 A 
ATOM     18  O   LIG     1     173.735 177.790 166.436  0.00  0.00    -0.283 OA
ENDBRANCH   8  10
ENDBRANCH   7   8
ENDBRANCH   2   7
BRANCH   3  19
ATOM     19  O   LIG     1     176.812 174.057 171.481  0.00  0.00    -0.439 OA
BRANCH  19  20
ATOM     20  C   LIG     1     177.057 175.333 171.898  0.00  0.00     0.342 C 
ATOM     21  O   LIG     1     176.445 175.689 172.932  0.00  0.00    -0.245 OA
BRANCH  20  22
ATOM     22  C   LIG     1     177.880 176.239 171.174  0.00  0.00     0.082 A 
ATOM     23  C   LIG     1     178.182 177.523 171.691  0.00  0.00     0.052 A 
ATOM     24  C   LIG     1     178.995 178.425 170.977  0.00  0.00     0.238 A 
ATOM     25  O   LIG     1     179.251 179.642 171.521  0.00  0.00    -0.283 OA
ATOM     26  C   LIG     1     179.522 178.058 169.723  0.00  0.00     0.273 A 
ATOM     27  O   LIG     1     180.304 178.939 169.043  0.00  0.00    -0.280 OA
ATOM     28  C   LIG     1     179.232 176.786 169.191  0.00  0.00     0.238 A 
ATOM     29  C   LIG     1     178.421 175.888 169.915  0.00  0.00     0.052 A 
ATOM     30  O   LIG     1     179.732 176.432 167.980  0.00  0.00    -0.283 OA
ENDBRANCH  20  22
ENDBRANCH  19  20
ENDBRANCH   3  19
BRANCH   4  31
ATOM     31  O   LIG     1     177.722 172.290 173.623  0.00  0.00    -0.441 OA
BRANCH  31  32
ATOM     32  C   LIG     1     179.089 172.256 173.555  0.00  0.00     0.342 C 
ATOM     33  O   LIG     1     179.628 171.194 173.943  0.00  0.00    -0.245 OA
BRANCH  32  34
ATOM     34  C   LIG     1     179.881 173.289 172.977  0.00  0.00     0.082 A 
ATOM     35  C   LIG     1     180.063 174.529 173.637  0.00  0.00     0.052 A 
ATOM     36  C   LIG     1     180.864 175.542 173.071  0.00  0.00     0.238 A 
ATOM     37  C   LIG     1     181.502 175.326 171.835  0.00  0.00     0.273 A 
ATOM     38  O   LIG     1     181.027 176.728 173.711  0.00  0.00    -0.283 OA
ATOM     39  O   LIG     1     182.280 176.302 171.304  0.00  0.00    -0.280 OA
ATOM     40  C   LIG     1     181.325 174.101 171.162  0.00  0.00     0.238 A 
ATOM     41  O   LIG     1     181.923 173.900 169.961  0.00  0.00    -0.283 OA
ATOM     42  C   LIG     1     180.530 173.091 171.736  0.00  0.00     0.052 A 
ENDBRANCH  32  34
ENDBRANCH  31  32
ENDBRANCH   4  31
BRANCH   6  43
ATOM     43  C   LIG     1     173.766 169.353 172.683  0.00  0.00     0.215 C 
ATOM     44  O   LIG     1     173.568 168.293 171.753  0.00  0.00    -0.218 OA
ENDBRANCH   6  43
BRANCH   5  45
ATOM     45  O   LIG     1     176.676 169.590 173.441  0.00  0.00    -0.443 OA
BRANCH  45  46
ATOM     46  C   LIG     1     176.987 169.029 174.650  0.00  0.00     0.341 C 
ATOM     47  O   LIG     1     177.954 168.234 174.637  0.00  0.00    -0.245 OA
BRANCH  46  48
ATOM     48  C   LIG     1     176.247 169.212 175.845  0.00  0.00     0.082 A 
ATOM     49  C   LIG     1     176.798 170.104 176.856  0.00  0.00     0.052 A 
ATOM     50  C   LIG     1     176.085 170.266 178.064  0.00  0.00     0.238 A 
ATOM     51  O   LIG     1     176.584 171.076 179.032  0.00  0.00    -0.283 OA
ATOM     52  C   LIG     1     174.858 169.608 178.308  0.00  0.00     0.273 A 
ATOM     53  O   LIG     1     174.211 169.815 179.488  0.00  0.00    -0.280 OA
ATOM     54  C   LIG     1     174.333 168.729 177.276  0.00  0.00     0.238 A 
ATOM     55  O   LIG     1     173.117 168.140 177.628  0.00  0.00    -0.283 OA
ATOM     56  C   LIG     1     175.005 168.475 175.991  0.00  0.00     0.052 A 
ENDBRANCH  46  48
ENDBRANCH  45  46
ENDBRANCH   5  45
TORSDOF 13
ENDMDL
MODEL 6
REMARK VINA RESULT:      -8.5      0.800      7.950
REMARK  13 active torsions:
REMARK  status: ('A' for Active; 'I' for Inactive)
REMARK    1  A    between atoms: C_2  and  O_3 
REMARK    2  A    between atoms: C_15  and  O_16 
REMARK    3  A    between atoms: C_28  and  O_29 
REMARK    4  A    between atoms: C_41  and  O_42 
REMARK    5  A    between atoms: C_54  and  C_55 
REMARK    6  A    between atoms: O_3  and  C_4 
REMARK    7  A    between atoms: C_4  and  C_6 
REMARK    8  A    between atoms: O_16  and  C_17 
REMARK    9  A    between atoms: C_17  and  C_19 
REMARK   10  A    between atoms: O_29  and  C_30 
REMARK   11  A    between atoms: C_30  and  C_32 
REMARK   12  A    between atoms: O_42  and  C_43 
REMARK   13  A    between atoms: C_43  and  C_45 
ROOT
ATOM      1  O   LIG     1     173.707 174.839 170.033  0.00  0.00    -0.314 OA
ATOM      2  C   LIG     1     174.892 175.664 170.067  0.00  0.00     0.335 C 
ATOM      3  C   LIG     1     175.738 175.386 171.342  0.00  0.00     0.282 C 
ATOM      4  C   LIG     1     176.022 173.858 171.467  0.00  0.00     0.257 C 
ATOM      5  C   LIG     1     174.709 173.029 171.357  0.00  0.00     0.242 C 
ATOM      6  C   LIG     1     173.935 173.418 170.062  0.00  0.00     0.195 C 
ENDROOT
BRANCH   2   7
ATOM      7  O   LIG     1     174.405 177.011 170.077  0.00  0.00    -0.417 OA
BRANCH   7   8
ATOM      8  C   LIG     1     174.576 177.851 169.016  0.00  0.00     0.343 C 
ATOM      9  O   LIG     1     173.603 178.000 168.240  0.00  0.00    -0.245 OA
BRANCH   8  10
ATOM     10  C   LIG     1     175.793 178.569 168.852  0.00  0.00     0.082 A 
ATOM     11  C   LIG     1     175.980 179.834 169.462  0.00  0.00     0.052 A 
ATOM     12  C   LIG     1     177.221 180.499 169.395  0.00  0.00     0.238 A 
ATOM     13  C   LIG     1     178.301 179.903 168.714  0.00  0.00     0.273 A 
ATOM     14  O   LIG     1     177.378 181.704 169.996  0.00  0.00    -0.283 OA
ATOM     15  C   LIG     1     178.125 178.661 168.077  0.00  0.00     0.238 A 
ATOM     16  O   LIG     1     179.517 180.503 168.665  0.00  0.00    -0.280 OA
ATOM     17  C   LIG     1     176.878 178.009 168.132  0.00  0.00     0.052 A 
ATOM     18  O   LIG     1     179.168 178.089 167.422  0.00  0.00    -0.283 OA
ENDBRANCH   8  10
ENDBRANCH   7   8
ENDBRANCH   2   7
BRANCH   3  19
ATOM     19  O   LIG     1     176.999 176.079 171.312  0.00  0.00    -0.439 OA
BRANCH  19  20
ATOM     20  C   LIG     1     177.415 177.030 172.198  0.00  0.00     0.342 C 
ATOM     21  O   LIG     1     176.699 177.168 173.218  0.00  0.00    -0.245 OA
BRANCH  20  22
ATOM     22  C   LIG     1     178.534 177.874 171.958  0.00  0.00     0.082 A 
ATOM     23  C   LIG     1     178.556 179.208 172.434  0.00  0.00     0.052 A 
ATOM     24  C   LIG     1     179.661 180.050 172.197  0.00  0.00     0.238 A 
ATOM     25  O   LIG     1     179.628 181.319 172.676  0.00  0.00    -0.283 OA
ATOM     26  C   LIG     1     180.770 179.570 171.471  0.00  0.00     0.273 A 
ATOM     27  O   LIG     1     181.829 180.393 171.248  0.00  0.00    -0.280 OA
ATOM     28  C   LIG     1     180.766 178.246 170.988  0.00  0.00     0.238 A 
ATOM     29  C   LIG     1     179.658 177.410 171.235  0.00  0.00     0.052 A 
ATOM     30  O   LIG     1     181.829 177.783 170.284  0.00  0.00    -0.283 OA
ENDBRANCH  20  22
ENDBRANCH  19  20
ENDBRANCH   3  19
BRANCH   4  31
ATOM     31  O   LIG     1     176.656 173.544 172.724  0.00  0.00    -0.441 OA
BRANCH  31  32
ATOM     32  C   LIG     1     177.957 173.167 172.926  0.00  0.00     0.342 C 
ATOM     33  O   LIG     1     178.154 172.380 173.880  0.00  0.00    -0.245 OA
BRANCH  32  34
ATOM     34  C   LIG     1     179.030 173.524 172.061  0.00  0.00     0.082 A 
ATOM     35  C   LIG     1     180.197 174.152 172.562  0.00  0.00     0.052 A 
ATOM     36  C   LIG     1     181.266 174.487 171.706  0.00  0.00     0.238 A 
ATOM     37  C   LIG     1     181.185 174.191 170.332  0.00  0.00     0.273 A 
ATOM     38  O   LIG     1     182.377 175.093 172.197  0.00  0.00    -0.283 OA
ATOM     39  O   LIG     1     182.224 174.507 169.517  0.00  0.00    -0.280 OA
ATOM     40  C   LIG     1     180.028 173.574 169.816  0.00  0.00     0.238 A 
ATOM     41  O   LIG     1     179.941 173.309 168.488  0.00  0.00    -0.283 OA
ATOM     42  C   LIG     1     178.968 173.236 170.678  0.00  0.00     0.052 A 
ENDBRANCH  32  34
ENDBRANCH  31  32
ENDBRANCH   4  31
BRANCH   6  43
ATOM     43  C   LIG     1     172.551 172.728 169.960  0.00  0.00     0.215 C 
ATOM     44  O   LIG     1     171.504 173.693 170.000  0.00  0.00    -0.218 OA
ENDBRANCH   6  43
BRANCH   5  45
ATOM     45  O   LIG     1     175.017 171.620 171.300  0.00  0.00    -0.443 OA
BRANCH  45  46
ATOM     46  C   LIG     1     174.682 170.633 172.186  0.00  0.00     0.341 C 
ATOM     47  O   LIG     1     173.598 170.050 171.952  0.00  0.00    -0.245 OA
BRANCH  46  48
ATOM     48  C   LIG     1     175.411 170.312 173.359  0.00  0.00     0.082 A 
ATOM     49  C   LIG     1     176.464 169.311 173.252  0.00  0.00     0.052 A 
ATOM     50  C   LIG     1     177.173 168.961 174.422  0.00  0.00     0.238 A 
ATOM     51  O   LIG     1     178.146 168.018 174.357  0.00  0.00    -0.283 OA
ATOM     52  C   LIG     1     176.903 169.560 175.674  0.00  0.00     0.273 A 
ATOM     53  O   LIG     1     177.629 169.189 176.764  0.00  0.00    -0.280 OA
ATOM     54  C   LIG     1     175.848 170.558 175.745  0.00  0.00     0.238 A 
ATOM     55  O   LIG     1     175.676 171.080 177.028  0.00  0.00    -0.283 OA
ATOM     56  C   LIG     1     175.037 170.982 174.591  0.00  0.00     0.052 A 
ENDBRANCH  46  48
ENDBRANCH  45  46
ENDBRANCH   5  45
TORSDOF 13
ENDMDL
MODEL 7
REMARK VINA RESULT:      -8.5      2.068      3.189
REMARK  13 active torsions:
REMARK  status: ('A' for Active; 'I' for Inactive)
REMARK    1  A    between atoms: C_2  and  O_3 
REMARK    2  A    between atoms: C_15  and  O_16 
REMARK    3  A    between atoms: C_28  and  O_29 
REMARK    4  A    between atoms: C_41  and  O_42 
REMARK    5  A    between atoms: C_54  and  C_55 
REMARK    6  A    between atoms: O_3  and  C_4 
REMARK    7  A    between atoms: C_4  and  C_6 
REMARK    8  A    between atoms: O_16  and  C_17 
REMARK    9  A    between atoms: C_17  and  C_19 
REMARK   10  A    between atoms: O_29  and  C_30 
REMARK   11  A    between atoms: C_30  and  C_32 
REMARK   12  A    between atoms: O_42  and  C_43 
REMARK   13  A    between atoms: C_43  and  C_45 
ROOT
ATOM      1  O   LIG     1     172.792 173.888 169.946  0.00  0.00    -0.314 OA
ATOM      2  C   LIG     1     173.439 173.488 171.173  0.00  0.00     0.335 C 
ATOM      3  C   LIG     1     174.905 174.005 171.234  0.00  0.00     0.282 C 
ATOM      4  C   LIG     1     174.938 175.540 170.968  0.00  0.00     0.257 C 
ATOM      5  C   LIG     1     174.166 175.904 169.665  0.00  0.00     0.242 C 
ATOM      6  C   LIG     1     172.728 175.306 169.707  0.00  0.00     0.195 C 
ENDROOT
BRANCH   2   7
ATOM      7  O   LIG     1     173.416 172.056 171.154  0.00  0.00    -0.417 OA
BRANCH   7   8
ATOM      8  C   LIG     1     172.881 171.326 172.175  0.00  0.00     0.343 C 
ATOM      9  O   LIG     1     172.836 171.869 173.305  0.00  0.00    -0.245 OA
BRANCH   8  10
ATOM     10  C   LIG     1     172.343 170.032 171.933  0.00  0.00     0.082 A 
ATOM     11  C   LIG     1     170.975 169.861 171.609  0.00  0.00     0.052 A 
ATOM     12  C   LIG     1     170.460 168.596 171.261  0.00  0.00     0.238 A 
ATOM     13  C   LIG     1     171.315 167.476 171.230  0.00  0.00     0.273 A 
ATOM     14  O   LIG     1     169.150 168.460 170.944  0.00  0.00    -0.283 OA
ATOM     15  C   LIG     1     172.670 167.621 171.578  0.00  0.00     0.238 A 
ATOM     16  O   LIG     1     170.855 166.253 170.862  0.00  0.00    -0.280 OA
ATOM     17  C   LIG     1     173.175 168.884 171.941  0.00  0.00     0.052 A 
ATOM     18  O   LIG     1     173.491 166.540 171.546  0.00  0.00    -0.283 OA
ENDBRANCH   8  10
ENDBRANCH   7   8
ENDBRANCH   2   7
BRANCH   3  19
ATOM     19  O   LIG     1     175.511 173.754 172.515  0.00  0.00    -0.439 OA
BRANCH  19  20
ATOM     20  C   LIG     1     176.637 173.018 172.742  0.00  0.00     0.342 C 
ATOM     21  O   LIG     1     176.454 171.790 172.914  0.00  0.00    -0.245 OA
BRANCH  20  22
ATOM     22  C   LIG     1     177.930 173.599 172.864  0.00  0.00     0.082 A 
ATOM     23  C   LIG     1     178.991 173.200 172.016  0.00  0.00     0.052 A 
ATOM     24  C   LIG     1     180.274 173.771 172.133  0.00  0.00     0.238 A 
ATOM     25  O   LIG     1     181.254 173.350 171.294  0.00  0.00    -0.283 OA
ATOM     26  C   LIG     1     180.521 174.755 173.111  0.00  0.00     0.273 A 
ATOM     27  O   LIG     1     181.763 175.297 173.216  0.00  0.00    -0.280 OA
ATOM     28  C   LIG     1     179.478 175.164 173.966  0.00  0.00     0.238 A 
ATOM     29  C   LIG     1     178.196 174.592 173.836  0.00  0.00     0.052 A 
ATOM     30  O   LIG     1     179.713 176.107 174.913  0.00  0.00    -0.283 OA
ENDBRANCH  20  22
ENDBRANCH  19  20
ENDBRANCH   3  19
BRANCH   4  31
ATOM     31  O   LIG     1     176.291 176.022 170.846  0.00  0.00    -0.441 OA
BRANCH  31  32
ATOM     32  C   LIG     1     176.902 176.982 171.609  0.00  0.00     0.342 C 
ATOM     33  O   LIG     1     176.227 177.431 172.563  0.00  0.00    -0.245 OA
BRANCH  32  34
ATOM     34  C   LIG     1     178.256 177.388 171.439  0.00  0.00     0.082 A 
ATOM     35  C   LIG     1     178.781 178.501 172.140  0.00  0.00     0.052 A 
ATOM     36  C   LIG     1     180.128 178.888 171.984  0.00  0.00     0.238 A 
ATOM     37  C   LIG     1     180.974 178.160 171.126  0.00  0.00     0.273 A 
ATOM     38  O   LIG     1     180.618 179.960 172.657  0.00  0.00    -0.283 OA
ATOM     39  O   LIG     1     182.271 178.533 170.991  0.00  0.00    -0.280 OA
ATOM     40  C   LIG     1     180.465 177.055 170.415  0.00  0.00     0.238 A 
ATOM     41  O   LIG     1     181.274 176.367 169.571  0.00  0.00    -0.283 OA
ATOM     42  C   LIG     1     179.121 176.670 170.581  0.00  0.00     0.052 A 
ENDBRANCH  32  34
ENDBRANCH  31  32
ENDBRANCH   4  31
BRANCH   6  43
ATOM     43  C   LIG     1     171.952 175.516 168.382  0.00  0.00     0.215 C 
ATOM     44  O   LIG     1     170.681 174.875 168.439  0.00  0.00    -0.218 OA
ENDBRANCH   6  43
BRANCH   5  45
ATOM     45  O   LIG     1     174.062 177.337 169.536  0.00  0.00    -0.443 OA
BRANCH  45  46
ATOM     46  C   LIG     1     174.589 178.152 168.571  0.00  0.00     0.341 C 
ATOM     47  O   LIG     1     173.885 178.289 167.544  0.00  0.00    -0.245 OA
BRANCH  46  48
ATOM     48  C   LIG     1     175.875 178.746 168.623  0.00  0.00     0.082 A 
ATOM     49  C   LIG     1     176.942 178.123 167.852  0.00  0.00     0.052 A 
ATOM     50  C   LIG     1     178.235 178.687 167.924  0.00  0.00     0.238 A 
ATOM     51  O   LIG     1     179.252 178.116 167.232  0.00  0.00    -0.283 OA
ATOM     52  C   LIG     1     178.513 179.835 168.701  0.00  0.00     0.273 A 
ATOM     53  O   LIG     1     179.777 180.340 168.719  0.00  0.00    -0.280 OA
ATOM     54  C   LIG     1     177.424 180.435 169.455  0.00  0.00     0.238 A 
ATOM     55  O   LIG     1     177.818 181.562 170.178  0.00  0.00    -0.283 OA
ATOM     56  C   LIG     1     176.046 179.916 169.465  0.00  0.00     0.052 A 
ENDBRANCH  46  48
ENDBRANCH  45  46
ENDBRANCH   5  45
TORSDOF 13
ENDMDL
MODEL 8
REMARK VINA RESULT:      -8.5      0.861      2.150
REMARK  13 active torsions:
REMARK  status: ('A' for Active; 'I' for Inactive)
REMARK    1  A    between atoms: C_2  and  O_3 
REMARK    2  A    between atoms: C_15  and  O_16 
REMARK    3  A    between atoms: C_28  and  O_29 
REMARK    4  A    between atoms: C_41  and  O_42 
REMARK    5  A    between atoms: C_54  and  C_55 
REMARK    6  A    between atoms: O_3  and  C_4 
REMARK    7  A    between atoms: C_4  and  C_6 
REMARK    8  A    between atoms: O_16  and  C_17 
REMARK    9  A    between atoms: C_17  and  C_19 
REMARK   10  A    between atoms: O_29  and  C_30 
REMARK   11  A    between atoms: C_30  and  C_32 
REMARK   12  A    between atoms: O_42  and  C_43 
REMARK   13  A    between atoms: C_43  and  C_45 
ROOT
ATOM      1  O   LIG     1     174.664 173.666 170.686  0.00  0.00    -0.314 OA
ATOM      2  C   LIG     1     175.363 173.473 171.934  0.00  0.00     0.335 C 
ATOM      3  C   LIG     1     176.617 174.388 172.028  0.00  0.00     0.282 C 
ATOM      4  C   LIG     1     176.215 175.868 171.746  0.00  0.00     0.257 C 
ATOM      5  C   LIG     1     175.409 175.992 170.419  0.00  0.00     0.242 C 
ATOM      6  C   LIG     1     174.203 175.005 170.429  0.00  0.00     0.195 C 
ENDROOT
BRANCH   2   7
ATOM      7  O   LIG     1     175.752 172.094 171.931  0.00  0.00    -0.417 OA
BRANCH   7   8
ATOM      8  C   LIG     1     175.095 171.153 172.668  0.00  0.00     0.343 C 
ATOM      9  O   LIG     1     173.973 170.781 172.252  0.00  0.00    -0.245 OA
BRANCH   8  10
ATOM     10  C   LIG     1     175.704 170.584 173.820  0.00  0.00     0.082 A 
ATOM     11  C   LIG     1     176.687 169.570 173.699  0.00  0.00     0.052 A 
ATOM     12  C   LIG     1     177.372 169.080 174.828  0.00  0.00     0.238 A 
ATOM     13  C   LIG     1     177.084 169.602 176.105  0.00  0.00     0.273 A 
ATOM     14  O   LIG     1     178.317 168.118 174.685  0.00  0.00    -0.283 OA
ATOM     15  C   LIG     1     176.090 170.587 176.249  0.00  0.00     0.238 A 
ATOM     16  O   LIG     1     177.754 169.176 177.205  0.00  0.00    -0.280 OA
ATOM     17  C   LIG     1     175.396 171.061 175.118  0.00  0.00     0.052 A 
ATOM     18  O   LIG     1     175.815 171.089 177.480  0.00  0.00    -0.283 OA
ENDBRANCH   8  10
ENDBRANCH   7   8
ENDBRANCH   2   7
BRANCH   3  19
ATOM     19  O   LIG     1     177.232 174.326 173.327  0.00  0.00    -0.439 OA
BRANCH  19  20
ATOM     20  C   LIG     1     178.442 174.853 173.670  0.00  0.00     0.342 C 
ATOM     21  O   LIG     1     178.435 175.622 174.661  0.00  0.00    -0.245 OA
BRANCH  20  22
ATOM     22  C   LIG     1     179.627 174.625 172.917  0.00  0.00     0.082 A 
ATOM     23  C   LIG     1     180.625 175.625 172.807  0.00  0.00     0.052 A 
ATOM     24  C   LIG     1     181.799 175.405 172.061  0.00  0.00     0.238 A 
ATOM     25  O   LIG     1     182.722 176.398 171.990  0.00  0.00    -0.283 OA
ATOM     26  C   LIG     1     181.997 174.175 171.403  0.00  0.00     0.273 A 
ATOM     27  O   LIG     1     183.133 173.976 170.684  0.00  0.00    -0.280 OA
ATOM     28  C   LIG     1     181.015 173.169 171.499  0.00  0.00     0.238 A 
ATOM     29  C   LIG     1     179.845 173.396 172.253  0.00  0.00     0.052 A 
ATOM     30  O   LIG     1     181.198 171.985 170.861  0.00  0.00    -0.283 OA
ENDBRANCH  20  22
ENDBRANCH  19  20
ENDBRANCH   3  19
BRANCH   4  31
ATOM     31  O   LIG     1     177.376 176.718 171.655  0.00  0.00    -0.441 OA
BRANCH  31  32
ATOM     32  C   LIG     1     177.570 177.926 172.271  0.00  0.00     0.342 C 
ATOM     33  O   LIG     1     176.738 178.226 173.157  0.00  0.00    -0.245 OA
BRANCH  32  34
ATOM     34  C   LIG     1     178.695 178.765 172.035  0.00  0.00     0.082 A 
ATOM     35  C   LIG     1     179.756 178.351 171.192  0.00  0.00     0.052 A 
ATOM     36  C   LIG     1     180.859 179.193 170.945  0.00  0.00     0.238 A 
ATOM     37  C   LIG     1     180.916 180.469 171.535  0.00  0.00     0.273 A 
ATOM     38  O   LIG     1     181.871 178.781 170.139  0.00  0.00    -0.283 OA
ATOM     39  O   LIG     1     181.976 181.277 171.283  0.00  0.00    -0.280 OA
ATOM     40  C   LIG     1     179.873 180.894 172.383  0.00  0.00     0.238 A 
ATOM     41  O   LIG     1     179.938 182.116 172.969  0.00  0.00    -0.283 OA
ATOM     42  C   LIG     1     178.771 180.052 172.619  0.00  0.00     0.052 A 
ENDBRANCH  32  34
ENDBRANCH  31  32
ENDBRANCH   4  31
BRANCH   6  43
ATOM     43  C   LIG     1     173.437 174.979 169.082  0.00  0.00     0.215 C 
ATOM     44  O   LIG     1     172.203 175.683 169.192  0.00  0.00    -0.218 OA
ENDBRANCH   6  43
BRANCH   5  45
ATOM     45  O   LIG     1     174.901 177.333 170.272  0.00  0.00    -0.443 OA
BRANCH  45  46
ATOM     46  C   LIG     1     175.102 178.218 169.247  0.00  0.00     0.341 C 
ATOM     47  O   LIG     1     174.134 178.358 168.465  0.00  0.00    -0.245 OA
BRANCH  46  48
ATOM     48  C   LIG     1     176.324 178.882 168.974  0.00  0.00     0.082 A 
ATOM     49  C   LIG     1     176.524 180.204 169.554  0.00  0.00     0.052 A 
ATOM     50  C   LIG     1     177.724 180.888 169.260  0.00  0.00     0.238 A 
ATOM     51  O   LIG     1     177.928 182.128 169.770  0.00  0.00    -0.283 OA
ATOM     52  C   LIG     1     178.731 180.324 168.443  0.00  0.00     0.273 A 
ATOM     53  O   LIG     1     179.872 181.028 168.207  0.00  0.00    -0.280 OA
ATOM     54  C   LIG     1     178.502 179.002 167.884  0.00  0.00     0.238 A 
ATOM     55  O   LIG     1     179.565 178.550 167.100  0.00  0.00    -0.283 OA
ATOM     56  C   LIG     1     177.279 178.212 168.112  0.00  0.00     0.052 A 
ENDBRANCH  46  48
ENDBRANCH  45  46
ENDBRANCH   5  45
TORSDOF 13
ENDMDL
MODEL 9
REMARK VINA RESULT:      -8.5      8.522     13.018
REMARK  13 active torsions:
REMARK  status: ('A' for Active; 'I' for Inactive)
REMARK    1  A    between atoms: C_2  and  O_3 
REMARK    2  A    between atoms: C_15  and  O_16 
REMARK    3  A    between atoms: C_28  and  O_29 
REMARK    4  A    between atoms: C_41  and  O_42 
REMARK    5  A    between atoms: C_54  and  C_55 
REMARK    6  A    between atoms: O_3  and  C_4 
REMARK    7  A    between atoms: C_4  and  C_6 
REMARK    8  A    between atoms: O_16  and  C_17 
REMARK    9  A    between atoms: C_17  and  C_19 
REMARK   10  A    between atoms: O_29  and  C_30 
REMARK   11  A    between atoms: C_30  and  C_32 
REMARK   12  A    between atoms: O_42  and  C_43 
REMARK   13  A    between atoms: C_43  and  C_45 
ROOT
ATOM      1  O   LIG     1     182.705 180.894 171.527  0.00  0.00    -0.314 OA
ATOM      2  C   LIG     1     182.023 182.166 171.474  0.00  0.00     0.335 C 
ATOM      3  C   LIG     1     182.897 183.246 170.775  0.00  0.00     0.282 C 
ATOM      4  C   LIG     1     183.377 182.724 169.387  0.00  0.00     0.257 C 
ATOM      5  C   LIG     1     184.042 181.321 169.511  0.00  0.00     0.242 C 
ATOM      6  C   LIG     1     183.089 180.338 170.256  0.00  0.00     0.195 C 
ENDROOT
BRANCH   2   7
ATOM      7  O   LIG     1     181.795 182.520 172.843  0.00  0.00    -0.417 OA
BRANCH   7   8
ATOM      8  C   LIG     1     182.695 182.231 173.826  0.00  0.00     0.343 C 
ATOM      9  O   LIG     1     182.571 181.129 174.410  0.00  0.00    -0.245 OA
BRANCH   8  10
ATOM     10  C   LIG     1     183.760 183.128 174.117  0.00  0.00     0.082 A 
ATOM     11  C   LIG     1     183.534 184.308 174.869  0.00  0.00     0.052 A 
ATOM     12  C   LIG     1     184.602 185.142 175.253  0.00  0.00     0.238 A 
ATOM     13  C   LIG     1     185.922 184.805 174.890  0.00  0.00     0.273 A 
ATOM     14  O   LIG     1     184.363 186.260 175.982  0.00  0.00    -0.283 OA
ATOM     15  C   LIG     1     186.162 183.654 174.118  0.00  0.00     0.238 A 
ATOM     16  O   LIG     1     186.974 185.570 175.279  0.00  0.00    -0.280 OA
ATOM     17  C   LIG     1     185.089 182.833 173.722  0.00  0.00     0.052 A 
ATOM     18  O   LIG     1     187.434 183.332 173.771  0.00  0.00    -0.283 OA
ENDBRANCH   8  10
ENDBRANCH   7   8
ENDBRANCH   2   7
BRANCH   3  19
ATOM     19  O   LIG     1     182.173 184.473 170.570  0.00  0.00    -0.439 OA
BRANCH  19  20
ATOM     20  C   LIG     1     182.385 185.651 171.225  0.00  0.00     0.342 C 
ATOM     21  O   LIG     1     181.474 186.002 172.012  0.00  0.00    -0.245 OA
BRANCH  20  22
ATOM     22  C   LIG     1     183.515 186.480 170.981  0.00  0.00     0.082 A 
ATOM     23  C   LIG     1     183.495 187.457 169.956  0.00  0.00     0.052 A 
ATOM     24  C   LIG     1     184.612 188.279 169.709  0.00  0.00     0.238 A 
ATOM     25  O   LIG     1     184.536 189.199 168.714  0.00  0.00    -0.283 OA
ATOM     26  C   LIG     1     185.779 188.135 170.485  0.00  0.00     0.273 A 
ATOM     27  O   LIG     1     186.851 188.933 170.235  0.00  0.00    -0.280 OA
ATOM     28  C   LIG     1     185.819 187.166 171.508  0.00  0.00     0.238 A 
ATOM     29  C   LIG     1     184.694 186.352 171.752  0.00  0.00     0.052 A 
ATOM     30  O   LIG     1     186.944 187.020 172.253  0.00  0.00    -0.283 OA
ENDBRANCH  20  22
ENDBRANCH  19  20
ENDBRANCH   3  19
BRANCH   4  31
ATOM     31  O   LIG     1     184.327 183.627 168.786  0.00  0.00    -0.441 OA
BRANCH  31  32
ATOM     32  C   LIG     1     185.543 184.007 169.289  0.00  0.00     0.342 C 
ATOM     33  O   LIG     1     185.922 183.399 170.317  0.00  0.00    -0.245 OA
BRANCH  32  34
ATOM     34  C   LIG     1     186.408 184.941 168.652  0.00  0.00     0.082 A 
ATOM     35  C   LIG     1     187.768 185.059 169.031  0.00  0.00     0.052 A 
ATOM     36  C   LIG     1     188.626 185.971 168.385  0.00  0.00     0.238 A 
ATOM     37  C   LIG     1     188.136 186.779 167.341  0.00  0.00     0.273 A 
ATOM     38  O   LIG     1     189.926 186.078 168.761  0.00  0.00    -0.283 OA
ATOM     39  O   LIG     1     188.972 187.646 166.718  0.00  0.00    -0.280 OA
ATOM     40  C   LIG     1     186.783 186.681 166.957  0.00  0.00     0.238 A 
ATOM     41  O   LIG     1     186.306 187.474 165.966  0.00  0.00    -0.283 OA
ATOM     42  C   LIG     1     185.935 185.762 167.602  0.00  0.00     0.052 A 
ENDBRANCH  32  34
ENDBRANCH  31  32
ENDBRANCH   4  31
BRANCH   6  43
ATOM     43  C   LIG     1     183.744 178.962 170.534  0.00  0.00     0.215 C 
ATOM     44  O   LIG     1     183.670 178.642 171.920  0.00  0.00    -0.218 OA
ENDBRANCH   6  43
BRANCH   5  45
ATOM     45  O   LIG     1     184.317 180.786 168.200  0.00  0.00    -0.443 OA
BRANCH  45  46
ATOM     46  C   LIG     1     185.526 180.499 167.627  0.00  0.00     0.341 C 
ATOM     47  O   LIG     1     185.959 179.343 167.843  0.00  0.00    -0.245 OA
BRANCH  46  48
ATOM     48  C   LIG     1     186.329 181.426 166.917  0.00  0.00     0.082 A 
ATOM     49  C   LIG     1     187.715 181.586 167.337  0.00  0.00     0.052 A 
ATOM     50  C   LIG     1     188.513 182.532 166.658  0.00  0.00     0.238 A 
ATOM     51  O   LIG     1     189.802 182.717 167.041  0.00  0.00    -0.283 OA
ATOM     52  C   LIG     1     188.016 183.305 165.584  0.00  0.00     0.273 A 
ATOM     53  O   LIG     1     188.839 184.192 164.960  0.00  0.00    -0.280 OA
ATOM     54  C   LIG     1     186.630 183.117 165.186  0.00  0.00     0.238 A 
ATOM     55  O   LIG     1     186.255 183.930 164.115  0.00  0.00    -0.283 OA
ATOM     56  C   LIG     1     185.707 182.173 165.839  0.00  0.00     0.052 A 
ENDBRANCH  46  48
ENDBRANCH  45  46
ENDBRANCH   5  45
TORSDOF 13
ENDMDL
MODEL 10
REMARK VINA RESULT:      -8.5      1.798      8.090
REMARK  13 active torsions:
REMARK  status: ('A' for Active; 'I' for Inactive)
REMARK    1  A    between atoms: C_2  and  O_3 
REMARK    2  A    between atoms: C_15  and  O_16 
REMARK    3  A    between atoms: C_28  and  O_29 
REMARK    4  A    between atoms: C_41  and  O_42 
REMARK    5  A    between atoms: C_54  and  C_55 
REMARK    6  A    between atoms: O_3  and  C_4 
REMARK    7  A    between atoms: C_4  and  C_6 
REMARK    8  A    between atoms: O_16  and  C_17 
REMARK    9  A    between atoms: C_17  and  C_19 
REMARK   10  A    between atoms: O_29  and  C_30 
REMARK   11  A    between atoms: C_30  and  C_32 
REMARK   12  A    between atoms: O_42  and  C_43 
REMARK   13  A    between atoms: C_43  and  C_45 
ROOT
ATOM      1  O   LIG     1     172.589 176.047 169.369  0.00  0.00    -0.314 OA
ATOM      2  C   LIG     1     173.995 176.375 169.383  0.00  0.00     0.335 C 
ATOM      3  C   LIG     1     174.703 175.773 170.630  0.00  0.00     0.282 C 
ATOM      4  C   LIG     1     174.405 174.246 170.723  0.00  0.00     0.257 C 
ATOM      5  C   LIG     1     172.877 173.962 170.636  0.00  0.00     0.242 C 
ATOM      6  C   LIG     1     172.275 174.642 169.369  0.00  0.00     0.195 C 
ENDROOT
BRANCH   2   7
ATOM      7  O   LIG     1     174.041 177.806 169.427  0.00  0.00    -0.417 OA
BRANCH   7   8
ATOM      8  C   LIG     1     174.672 178.541 168.468  0.00  0.00     0.343 C 
ATOM      9  O   LIG     1     173.981 178.931 167.497  0.00  0.00    -0.245 OA
BRANCH   8  10
ATOM     10  C   LIG     1     176.042 178.896 168.614  0.00  0.00     0.082 A 
ATOM     11  C   LIG     1     177.046 178.256 167.846  0.00  0.00     0.052 A 
ATOM     12  C   LIG     1     178.389 178.677 167.906  0.00  0.00     0.238 A 
ATOM     13  C   LIG     1     178.750 179.754 168.740  0.00  0.00     0.273 A 
ATOM     14  O   LIG     1     179.330 178.057 167.152  0.00  0.00    -0.283 OA
ATOM     15  C   LIG     1     177.772 180.382 169.533  0.00  0.00     0.238 A 
ATOM     16  O   LIG     1     180.029 180.206 168.789  0.00  0.00    -0.280 OA
ATOM     17  C   LIG     1     176.434 179.945 169.482  0.00  0.00     0.052 A 
ATOM     18  O   LIG     1     178.123 181.420 170.335  0.00  0.00    -0.283 OA
ENDBRANCH   8  10
ENDBRANCH   7   8
ENDBRANCH   2   7
BRANCH   3  19
ATOM     19  O   LIG     1     176.130 175.953 170.577  0.00  0.00    -0.439 OA
BRANCH  19  20
ATOM     20  C   LIG     1     176.856 176.849 171.306  0.00  0.00     0.342 C 
ATOM     21  O   LIG     1     176.188 177.607 172.048  0.00  0.00    -0.245 OA
BRANCH  20  22
ATOM     22  C   LIG     1     178.266 176.986 171.182  0.00  0.00     0.082 A 
ATOM     23  C   LIG     1     178.987 177.885 172.005  0.00  0.00     0.052 A 
ATOM     24  C   LIG     1     180.383 178.026 171.886  0.00  0.00     0.238 A 
ATOM     25  O   LIG     1     181.022 178.903 172.701  0.00  0.00    -0.283 OA
ATOM     26  C   LIG     1     181.089 177.268 170.931  0.00  0.00     0.273 A 
ATOM     27  O   LIG     1     182.436 177.414 170.823  0.00  0.00    -0.280 OA
ATOM     28  C   LIG     1     180.390 176.368 170.101  0.00  0.00     0.238 A 
ATOM     29  C   LIG     1     178.993 176.230 170.232  0.00  0.00     0.052 A 
ATOM     30  O   LIG     1     181.065 175.641 169.175  0.00  0.00    -0.283 OA
ENDBRANCH  20  22
ENDBRANCH  19  20
ENDBRANCH   3  19
BRANCH   4  31
ATOM     31  O   LIG     1     174.902 173.689 171.957  0.00  0.00    -0.441 OA
BRANCH  31  32
ATOM     32  C   LIG     1     176.022 172.918 172.128  0.00  0.00     0.342 C 
ATOM     33  O   LIG     1     175.916 171.720 171.780  0.00  0.00    -0.245 OA
BRANCH  32  34
ATOM     34  C   LIG     1     177.279 173.430 172.557  0.00  0.00     0.082 A 
ATOM     35  C   LIG     1     178.491 172.971 171.985  0.00  0.00     0.052 A 
ATOM     36  C   LIG     1     179.733 173.495 172.399  0.00  0.00     0.238 A 
ATOM     37  C   LIG     1     179.780 174.492 173.391  0.00  0.00     0.273 A 
ATOM     38  O   LIG     1     180.888 173.043 171.847  0.00  0.00    -0.283 OA
ATOM     39  O   LIG     1     180.979 174.998 173.775  0.00  0.00    -0.280 OA
ATOM     40  C   LIG     1     178.584 174.954 173.976  0.00  0.00     0.238 A 
ATOM     41  O   LIG     1     178.631 175.900 174.947  0.00  0.00    -0.283 OA
ATOM     42  C   LIG     1     177.348 174.433 173.552  0.00  0.00     0.052 A 
ENDBRANCH  32  34
ENDBRANCH  31  32
ENDBRANCH   4  31
BRANCH   6  43
ATOM     43  C   LIG     1     170.733 174.514 169.294  0.00  0.00     0.215 C 
ATOM     44  O   LIG     1     170.230 175.181 168.140  0.00  0.00    -0.218 OA
ENDBRANCH   6  43
BRANCH   5  45
ATOM     45  O   LIG     1     172.640 172.542 170.548  0.00  0.00    -0.443 OA
BRANCH  45  46
ATOM     46  C   LIG     1     172.020 171.718 171.447  0.00  0.00     0.341 C 
ATOM     47  O   LIG     1     170.777 171.852 171.525  0.00  0.00    -0.245 OA
BRANCH  46  48
ATOM     48  C   LIG     1     172.685 170.831 172.330  0.00  0.00     0.082 A 
ATOM     49  C   LIG     1     173.016 169.501 171.835  0.00  0.00     0.052 A 
ATOM     50  C   LIG     1     173.648 168.599 172.717  0.00  0.00     0.238 A 
ATOM     51  O   LIG     1     173.951 167.347 172.290  0.00  0.00    -0.283 OA
ATOM     52  C   LIG     1     173.979 168.951 174.046  0.00  0.00     0.273 A 
ATOM     53  O   LIG     1     174.600 168.041 174.845  0.00  0.00    -0.280 OA
ATOM     54  C   LIG     1     173.638 170.288 174.507  0.00  0.00     0.238 A 
ATOM     55  O   LIG     1     174.017 170.521 175.831  0.00  0.00    -0.283 OA
ATOM     56  C   LIG     1     172.963 171.298 173.676  0.00  0.00     0.052 A 
ENDBRANCH  46  48
ENDBRANCH  45  46
ENDBRANCH   5  45
TORSDOF 13
ENDMDL
