MODEL 1
REMARK VINA RESULT:      -8.4      0.000      0.000
REMARK  11 active torsions:
REMARK  status: ('A' for Active; 'I' for Inactive)
REMARK    1  A    between atoms: O_2  and  C_16 
REMARK    2  A    between atoms: O_2  and  C_18 
REMARK    3  A    between atoms: O_3  and  C_12 
REMARK    4  A    between atoms: O_4  and  C_13 
REMARK    5  A    between atoms: O_5  and  C_14 
REMARK    6  A    between atoms: O_6  and  C_17 
REMARK    7  A    between atoms: O_8  and  C_23 
REMARK    8  A    between atoms: O_10  and  C_30 
REMARK    9  A    between atoms: O_11  and  C_32 
REMARK   10  A    between atoms: C_15  and  C_17 
REMARK   11  A    between atoms: C_25  and  C_27 
ROOT
HETATM    1  O   UNK     0     184.070 185.193 174.644  0.00  0.00    -0.348 OA
HETATM    2  C   UNK     0     185.618 186.453 172.579  0.00  0.00     0.183 C 
HETATM    3  C   UNK     0     185.793 186.793 174.060  0.00  0.00     0.180 C 
HETATM    4  C   UNK     0     184.242 185.844 172.311  0.00  0.00     0.205 C 
HETATM    5  C   UNK     0     185.406 185.602 174.940  0.00  0.00     0.179 C 
HETATM    6  C   UNK     0     183.924 184.727 173.304  0.00  0.00     0.298 C 
ENDROOT
BRANCH   5   7
HETATM    7  C   UNK     0     185.461 185.955 176.423  0.00  0.00     0.198 C 
BRANCH   7   8
HETATM    8  O   UNK     0     186.752 185.640 176.913  0.00  0.00    -0.398 OA
HETATM    9  H   UNK     0     187.267 185.272 176.174  0.00  0.00     0.209 HD
ENDBRANCH   7   8
ENDBRANCH   5   7
BRANCH   6  10
HETATM   10  O   UNK     0     182.578 184.310 173.082  0.00  0.00    -0.318 OA
BRANCH  10  11
HETATM   11  C   UNK     0     182.382 182.983 172.836  0.00  0.00     0.077 A 
HETATM   12  C   UNK     0     181.090 182.499 172.622  0.00  0.00     0.075 A 
HETATM   13  C   UNK     0     180.892 181.142 172.371  0.00  0.00     0.095 A 
HETATM   14  O   UNK     0     179.601 180.724 172.169  0.00  0.00    -0.309 OA
HETATM   15  C   UNK     0     181.982 180.272 172.337  0.00  0.00     0.081 A 
HETATM   16  C   UNK     0     179.374 179.381 171.912  0.00  0.00     0.090 A 
HETATM   17  C   UNK     0     180.337 178.448 171.859  0.00  0.00     0.094 A 
HETATM   18  C   UNK     0     181.743 178.845 172.072  0.00  0.00     0.190 A 
HETATM   19  O   UNK     0     182.652 178.028 172.031  0.00  0.00    -0.287 OA
HETATM   20  C   UNK     0     183.276 180.753 172.551  0.00  0.00     0.085 A 
HETATM   21  C   UNK     0     183.471 182.113 172.801  0.00  0.00     0.074 A 
BRANCH  16  22
HETATM   22  C   UNK     0     177.950 179.040 171.714  0.00  0.00     0.001 A 
HETATM   23  C   UNK     0     177.253 179.550 170.617  0.00  0.00     0.053 A 
HETATM   24  C   UNK     0     175.908 179.226 170.430  0.00  0.00     0.099 A 
HETATM   25  C   UNK     0     175.258 178.394 171.340  0.00  0.00     0.098 A 
HETATM   26  C   UNK     0     175.952 177.883 172.437  0.00  0.00     0.040 A 
HETATM   27  C   UNK     0     177.296 178.205 172.624  0.00  0.00     0.017 A 
BRANCH  24  28
HETATM   28  O   UNK     0     175.239 179.733 169.356  0.00  0.00    -0.358 OA
HETATM   29  H   UNK     0     175.283 179.083 168.635  0.00  0.00     0.217 HD
ENDBRANCH  24  28
BRANCH  25  30
HETATM   30  O   UNK     0     173.946 178.071 171.168  0.00  0.00    -0.358 OA
HETATM   31  H   UNK     0     173.431 178.427 171.913  0.00  0.00     0.217 HD
ENDBRANCH  25  30
ENDBRANCH  16  22
BRANCH  20  32
HETATM   32  O   UNK     0     184.371 179.945 172.527  0.00  0.00    -0.360 OA
HETATM   33  H   UNK     0     184.116 179.020 172.658  0.00  0.00     0.217 HD
ENDBRANCH  20  32
ENDBRANCH  10  11
ENDBRANCH   6  10
BRANCH   3  34
HETATM   34  O   UNK     0     187.155 187.137 174.306  0.00  0.00    -0.390 OA
HETATM   35  H   UNK     0     187.703 186.361 174.098  0.00  0.00     0.210 HD
ENDBRANCH   3  34
BRANCH   4  36
HETATM   36  O   UNK     0     184.216 185.294 170.994  0.00  0.00    -0.388 OA
HETATM   37  H   UNK     0     184.652 185.925 170.395  0.00  0.00     0.210 HD
ENDBRANCH   4  36
BRANCH   2  38
HETATM   38  O   UNK     0     185.759 187.661 171.829  0.00  0.00    -0.390 OA
HETATM   39  H   UNK     0     186.310 188.267 172.354  0.00  0.00     0.210 HD
ENDBRANCH   2  38
TORSDOF 11
ENDMDL
MODEL 2
REMARK VINA RESULT:      -8.1      2.517      4.488
REMARK  11 active torsions:
REMARK  status: ('A' for Active; 'I' for Inactive)
REMARK    1  A    between atoms: O_2  and  C_16 
REMARK    2  A    between atoms: O_2  and  C_18 
REMARK    3  A    between atoms: O_3  and  C_12 
REMARK    4  A    between atoms: O_4  and  C_13 
REMARK    5  A    between atoms: O_5  and  C_14 
REMARK    6  A    between atoms: O_6  and  C_17 
REMARK    7  A    between atoms: O_8  and  C_23 
REMARK    8  A    between atoms: O_10  and  C_30 
REMARK    9  A    between atoms: O_11  and  C_32 
REMARK   10  A    between atoms: C_15  and  C_17 
REMARK   11  A    between atoms: C_25  and  C_27 
ROOT
HETATM    1  O   UNK     0     185.139 184.537 172.551  0.00  0.00    -0.348 OA
HETATM    2  C   UNK     0     186.343 184.498 175.158  0.00  0.00     0.183 C 
HETATM    3  C   UNK     0     186.442 185.706 174.226  0.00  0.00     0.180 C 
HETATM    4  C   UNK     0     186.051 183.218 174.374  0.00  0.00     0.205 C 
HETATM    5  C   UNK     0     185.241 185.762 173.279  0.00  0.00     0.179 C 
HETATM    6  C   UNK     0     184.892 183.415 173.397  0.00  0.00     0.298 C 
ENDROOT
BRANCH   5   7
HETATM    7  C   UNK     0     185.376 186.891 172.263  0.00  0.00     0.198 C 
BRANCH   7   8
HETATM    8  O   UNK     0     186.723 187.328 172.251  0.00  0.00    -0.398 OA
HETATM    9  H   UNK     0     186.719 188.298 172.174  0.00  0.00     0.209 HD
ENDBRANCH   7   8
ENDBRANCH   5   7
BRANCH   6  10
HETATM   10  O   UNK     0     184.775 182.233 172.608  0.00  0.00    -0.318 OA
BRANCH  10  11
HETATM   11  C   UNK     0     183.543 181.651 172.559  0.00  0.00     0.077 A 
HETATM   12  C   UNK     0     183.430 180.279 172.325  0.00  0.00     0.075 A 
HETATM   13  C   UNK     0     182.169 179.686 172.275  0.00  0.00     0.095 A 
HETATM   14  O   UNK     0     182.121 178.335 172.041  0.00  0.00    -0.309 OA
HETATM   15  C   UNK     0     181.026 180.463 172.457  0.00  0.00     0.081 A 
HETATM   16  C   UNK     0     180.881 177.717 171.992  0.00  0.00     0.090 A 
HETATM   17  C   UNK     0     179.711 178.357 172.146  0.00  0.00     0.094 A 
HETATM   18  C   UNK     0     179.708 179.812 172.397  0.00  0.00     0.190 A 
HETATM   19  O   UNK     0     178.665 180.433 172.545  0.00  0.00    -0.287 OA
HETATM   20  C   UNK     0     181.135 181.836 172.691  0.00  0.00     0.085 A 
HETATM   21  C   UNK     0     182.399 182.427 172.742  0.00  0.00     0.074 A 
BRANCH  16  22
HETATM   22  C   UNK     0     180.944 176.265 171.730  0.00  0.00     0.001 A 
HETATM   23  C   UNK     0     181.877 175.757 170.822  0.00  0.00     0.053 A 
HETATM   24  C   UNK     0     181.937 174.384 170.576  0.00  0.00     0.099 A 
HETATM   25  C   UNK     0     181.066 173.518 171.235  0.00  0.00     0.098 A 
HETATM   26  C   UNK     0     180.134 174.023 172.143  0.00  0.00     0.040 A 
HETATM   27  C   UNK     0     180.073 175.394 172.389  0.00  0.00     0.017 A 
BRANCH  24  28
HETATM   28  O   UNK     0     182.850 173.902 169.686  0.00  0.00    -0.358 OA
HETATM   29  H   UNK     0     182.836 174.470 168.897  0.00  0.00     0.217 HD
ENDBRANCH  24  28
BRANCH  25  30
HETATM   30  O   UNK     0     181.116 172.177 171.004  0.00  0.00    -0.358 OA
HETATM   31  H   UNK     0     181.681 172.009 170.230  0.00  0.00     0.217 HD
ENDBRANCH  25  30
ENDBRANCH  16  22
BRANCH  20  32
HETATM   32  O   UNK     0     180.049 182.637 172.875  0.00  0.00    -0.360 OA
HETATM   33  H   UNK     0     179.237 182.109 172.904  0.00  0.00     0.217 HD
ENDBRANCH  20  32
ENDBRANCH  10  11
ENDBRANCH   6  10
BRANCH   3  34
HETATM   34  O   UNK     0     186.483 186.899 175.006  0.00  0.00    -0.390 OA
HETATM   35  H   UNK     0     185.835 187.523 174.634  0.00  0.00     0.210 HD
ENDBRANCH   3  34
BRANCH   4  36
HETATM   36  O   UNK     0     185.696 182.176 175.284  0.00  0.00    -0.388 OA
HETATM   37  H   UNK     0     185.568 182.574 176.162  0.00  0.00     0.210 HD
ENDBRANCH   4  36
BRANCH   2  38
HETATM   38  O   UNK     0     187.590 184.363 175.842  0.00  0.00    -0.390 OA
HETATM   39  H   UNK     0     187.581 184.986 176.589  0.00  0.00     0.210 HD
ENDBRANCH   2  38
TORSDOF 11
ENDMDL
MODEL 3
REMARK VINA RESULT:      -8.1      2.651      4.436
REMARK  11 active torsions:
REMARK  status: ('A' for Active; 'I' for Inactive)
REMARK    1  A    between atoms: O_2  and  C_16 
REMARK    2  A    between atoms: O_2  and  C_18 
REMARK    3  A    between atoms: O_3  and  C_12 
REMARK    4  A    between atoms: O_4  and  C_13 
REMARK    5  A    between atoms: O_5  and  C_14 
REMARK    6  A    between atoms: O_6  and  C_17 
REMARK    7  A    between atoms: O_8  and  C_23 
REMARK    8  A    between atoms: O_10  and  C_30 
REMARK    9  A    between atoms: O_11  and  C_32 
REMARK   10  A    between atoms: C_15  and  C_17 
REMARK   11  A    between atoms: C_25  and  C_27 
ROOT
HETATM    1  O   UNK     0     185.054 184.486 172.603  0.00  0.00    -0.348 OA
HETATM    2  C   UNK     0     186.313 184.382 175.183  0.00  0.00     0.183 C 
HETATM    3  C   UNK     0     186.373 185.621 174.290  0.00  0.00     0.180 C 
HETATM    4  C   UNK     0     186.025 183.123 174.363  0.00  0.00     0.205 C 
HETATM    5  C   UNK     0     185.152 185.688 173.370  0.00  0.00     0.179 C 
HETATM    6  C   UNK     0     184.843 183.334 173.417  0.00  0.00     0.298 C 
ENDROOT
BRANCH   5   7
HETATM    7  C   UNK     0     185.247 186.852 172.389  0.00  0.00     0.198 C 
BRANCH   7   8
HETATM    8  O   UNK     0     186.601 187.255 172.298  0.00  0.00    -0.398 OA
HETATM    9  H   UNK     0     186.904 187.477 173.196  0.00  0.00     0.209 HD
ENDBRANCH   7   8
ENDBRANCH   5   7
BRANCH   6  10
HETATM   10  O   UNK     0     184.729 182.175 172.591  0.00  0.00    -0.318 OA
BRANCH  10  11
HETATM   11  C   UNK     0     183.502 181.582 172.538  0.00  0.00     0.077 A 
HETATM   12  C   UNK     0     183.402 180.212 172.291  0.00  0.00     0.075 A 
HETATM   13  C   UNK     0     182.147 179.608 172.237  0.00  0.00     0.095 A 
HETATM   14  O   UNK     0     182.112 178.258 171.990  0.00  0.00    -0.309 OA
HETATM   15  C   UNK     0     180.996 180.371 172.428  0.00  0.00     0.081 A 
HETATM   16  C   UNK     0     180.877 177.629 171.937  0.00  0.00     0.090 A 
HETATM   17  C   UNK     0     179.702 178.256 172.099  0.00  0.00     0.094 A 
HETATM   18  C   UNK     0     179.685 179.708 172.364  0.00  0.00     0.190 A 
HETATM   19  O   UNK     0     178.636 180.318 172.519  0.00  0.00    -0.287 OA
HETATM   20  C   UNK     0     181.092 181.743 172.676  0.00  0.00     0.085 A 
HETATM   21  C   UNK     0     182.351 182.345 172.730  0.00  0.00     0.074 A 
BRANCH  16  22
HETATM   22  C   UNK     0     180.954 176.180 171.660  0.00  0.00     0.001 A 
HETATM   23  C   UNK     0     179.812 175.384 171.770  0.00  0.00     0.053 A 
HETATM   24  C   UNK     0     179.885 174.015 171.508  0.00  0.00     0.099 A 
HETATM   25  C   UNK     0     181.099 173.440 171.136  0.00  0.00     0.098 A 
HETATM   26  C   UNK     0     182.241 174.233 171.024  0.00  0.00     0.040 A 
HETATM   27  C   UNK     0     182.170 175.600 171.286  0.00  0.00     0.017 A 
BRANCH  24  28
HETATM   28  O   UNK     0     178.763 173.250 171.622  0.00  0.00    -0.358 OA
HETATM   29  H   UNK     0     178.742 172.870 172.517  0.00  0.00     0.217 HD
ENDBRANCH  24  28
BRANCH  25  30
HETATM   30  O   UNK     0     181.183 172.105 170.876  0.00  0.00    -0.358 OA
HETATM   31  H   UNK     0     180.580 171.628 171.473  0.00  0.00     0.217 HD
ENDBRANCH  25  30
ENDBRANCH  16  22
BRANCH  20  32
HETATM   32  O   UNK     0     179.999 182.531 172.870  0.00  0.00    -0.360 OA
HETATM   33  H   UNK     0     179.833 183.082 172.090  0.00  0.00     0.217 HD
ENDBRANCH  20  32
ENDBRANCH  10  11
ENDBRANCH   6  10
BRANCH   3  34
HETATM   34  O   UNK     0     186.411 186.789 175.107  0.00  0.00    -0.390 OA
HETATM   35  H   UNK     0     187.332 187.099 175.145  0.00  0.00     0.210 HD
ENDBRANCH   3  34
BRANCH   4  36
HETATM   36  O   UNK     0     185.706 182.047 175.245  0.00  0.00    -0.388 OA
HETATM   37  H   UNK     0     184.891 182.279 175.722  0.00  0.00     0.210 HD
ENDBRANCH   4  36
BRANCH   2  38
HETATM   38  O   UNK     0     187.576 184.245 175.836  0.00  0.00    -0.390 OA
HETATM   39  H   UNK     0     187.779 183.295 175.880  0.00  0.00     0.210 HD
ENDBRANCH   2  38
TORSDOF 11
ENDMDL
MODEL 4
REMARK VINA RESULT:      -8.0      5.493      7.759
REMARK  11 active torsions:
REMARK  status: ('A' for Active; 'I' for Inactive)
REMARK    1  A    between atoms: O_2  and  C_16 
REMARK    2  A    between atoms: O_2  and  C_18 
REMARK    3  A    between atoms: O_3  and  C_12 
REMARK    4  A    between atoms: O_4  and  C_13 
REMARK    5  A    between atoms: O_5  and  C_14 
REMARK    6  A    between atoms: O_6  and  C_17 
REMARK    7  A    between atoms: O_8  and  C_23 
REMARK    8  A    between atoms: O_10  and  C_30 
REMARK    9  A    between atoms: O_11  and  C_32 
REMARK   10  A    between atoms: C_15  and  C_17 
REMARK   11  A    between atoms: C_25  and  C_27 
ROOT
HETATM    1  O   UNK     0     185.390 185.499 172.791  0.00  0.00    -0.348 OA
HETATM    2  C   UNK     0     184.288 184.418 175.213  0.00  0.00     0.183 C 
HETATM    3  C   UNK     0     185.785 184.673 175.035  0.00  0.00     0.180 C 
HETATM    4  C   UNK     0     183.587 184.275 173.862  0.00  0.00     0.205 C 
HETATM    5  C   UNK     0     186.028 185.804 174.033  0.00  0.00     0.179 C 
HETATM    6  C   UNK     0     183.972 185.409 172.912  0.00  0.00     0.298 C 
ENDROOT
BRANCH   5   7
HETATM    7  C   UNK     0     187.515 185.998 173.751  0.00  0.00     0.198 C 
BRANCH   7   8
HETATM    8  O   UNK     0     187.836 187.363 173.946  0.00  0.00    -0.398 OA
HETATM    9  H   UNK     0     188.129 187.722 173.091  0.00  0.00     0.209 HD
ENDBRANCH   7   8
ENDBRANCH   5   7
BRANCH   6  10
HETATM   10  O   UNK     0     183.396 185.130 171.637  0.00  0.00    -0.318 OA
BRANCH  10  11
HETATM   11  C   UNK     0     183.021 186.205 170.888  0.00  0.00     0.077 A 
HETATM   12  C   UNK     0     181.673 186.405 170.583  0.00  0.00     0.075 A 
HETATM   13  C   UNK     0     181.292 187.505 169.817  0.00  0.00     0.095 A 
HETATM   14  O   UNK     0     179.953 187.649 169.549  0.00  0.00    -0.309 OA
HETATM   15  C   UNK     0     182.255 188.402 169.355  0.00  0.00     0.081 A 
HETATM   16  C   UNK     0     179.544 188.737 168.794  0.00  0.00     0.090 A 
HETATM   17  C   UNK     0     180.375 189.663 168.290  0.00  0.00     0.094 A 
HETATM   18  C   UNK     0     181.825 189.553 168.547  0.00  0.00     0.190 A 
HETATM   19  O   UNK     0     182.616 190.375 168.108  0.00  0.00    -0.287 OA
HETATM   20  C   UNK     0     183.605 188.205 169.658  0.00  0.00     0.085 A 
HETATM   21  C   UNK     0     183.983 187.103 170.426  0.00  0.00     0.074 A 
BRANCH  16  22
HETATM   22  C   UNK     0     178.086 188.792 168.563  0.00  0.00     0.001 A 
HETATM   23  C   UNK     0     177.449 187.766 167.860  0.00  0.00     0.053 A 
HETATM   24  C   UNK     0     176.072 187.818 167.643  0.00  0.00     0.099 A 
HETATM   25  C   UNK     0     175.329 188.894 168.125  0.00  0.00     0.098 A 
HETATM   26  C   UNK     0     175.962 189.919 168.828  0.00  0.00     0.040 A 
HETATM   27  C   UNK     0     177.338 189.869 169.046  0.00  0.00     0.017 A 
BRANCH  24  28
HETATM   28  O   UNK     0     175.464 186.811 166.953  0.00  0.00    -0.358 OA
HETATM   29  H   UNK     0     174.624 186.601 167.396  0.00  0.00     0.217 HD
ENDBRANCH  24  28
BRANCH  25  30
HETATM   30  O   UNK     0     173.984 188.955 167.920  0.00  0.00    -0.358 OA
HETATM   31  H   UNK     0     173.526 188.664 168.728  0.00  0.00     0.217 HD
ENDBRANCH  25  30
ENDBRANCH  16  22
BRANCH  20  32
HETATM   32  O   UNK     0     184.582 189.052 169.231  0.00  0.00    -0.360 OA
HETATM   33  H   UNK     0     185.448 188.617 169.261  0.00  0.00     0.217 HD
ENDBRANCH  20  32
ENDBRANCH  10  11
ENDBRANCH   6  10
BRANCH   3  34
HETATM   34  O   UNK     0     186.355 185.028 176.293  0.00  0.00    -0.390 OA
HETATM   35  H   UNK     0     185.628 185.144 176.929  0.00  0.00     0.210 HD
ENDBRANCH   3  34
BRANCH   4  36
HETATM   36  O   UNK     0     182.173 184.314 174.055  0.00  0.00    -0.388 OA
HETATM   37  H   UNK     0     181.997 184.766 174.898  0.00  0.00     0.210 HD
ENDBRANCH   4  36
BRANCH   2  38
HETATM   38  O   UNK     0     184.130 183.211 175.961  0.00  0.00    -0.390 OA
HETATM   39  H   UNK     0     183.182 183.110 176.153  0.00  0.00     0.210 HD
ENDBRANCH   2  38
TORSDOF 11
ENDMDL
MODEL 5
REMARK VINA RESULT:      -8.0      2.037      3.579
REMARK  11 active torsions:
REMARK  status: ('A' for Active; 'I' for Inactive)
REMARK    1  A    between atoms: O_2  and  C_16 
REMARK    2  A    between atoms: O_2  and  C_18 
REMARK    3  A    between atoms: O_3  and  C_12 
REMARK    4  A    between atoms: O_4  and  C_13 
REMARK    5  A    between atoms: O_5  and  C_14 
REMARK    6  A    between atoms: O_6  and  C_17 
REMARK    7  A    between atoms: O_8  and  C_23 
REMARK    8  A    between atoms: O_10  and  C_30 
REMARK    9  A    between atoms: O_11  and  C_32 
REMARK   10  A    between atoms: C_15  and  C_17 
REMARK   11  A    between atoms: C_25  and  C_27 
ROOT
HETATM    1  O   UNK     0     185.966 184.368 172.575  0.00  0.00    -0.348 OA
HETATM    2  C   UNK     0     186.143 185.426 175.240  0.00  0.00     0.183 C 
HETATM    3  C   UNK     0     187.087 185.862 174.119  0.00  0.00     0.180 C 
HETATM    4  C   UNK     0     185.529 184.057 174.944  0.00  0.00     0.205 C 
HETATM    5  C   UNK     0     186.414 185.713 172.753  0.00  0.00     0.179 C 
HETATM    6  C   UNK     0     184.968 183.994 173.523  0.00  0.00     0.298 C 
ENDROOT
BRANCH   5   7
HETATM    7  C   UNK     0     187.376 186.032 171.612  0.00  0.00     0.198 C 
BRANCH   7   8
HETATM    8  O   UNK     0     187.535 187.436 171.537  0.00  0.00    -0.398 OA
HETATM    9  H   UNK     0     187.159 187.821 172.347  0.00  0.00     0.209 HD
ENDBRANCH   7   8
ENDBRANCH   5   7
BRANCH   6  10
HETATM   10  O   UNK     0     184.545 182.654 173.276  0.00  0.00    -0.318 OA
BRANCH  10  11
HETATM   11  C   UNK     0     183.335 182.497 172.669  0.00  0.00     0.077 A 
HETATM   12  C   UNK     0     182.589 181.339 172.893  0.00  0.00     0.075 A 
HETATM   13  C   UNK     0     181.351 181.181 172.271  0.00  0.00     0.095 A 
HETATM   14  O   UNK     0     180.664 180.021 172.529  0.00  0.00    -0.309 OA
HETATM   15  C   UNK     0     180.862 182.178 171.428  0.00  0.00     0.081 A 
HETATM   16  C   UNK     0     179.428 179.839 171.929  0.00  0.00     0.090 A 
HETATM   17  C   UNK     0     178.855 180.721 171.095  0.00  0.00     0.094 A 
HETATM   18  C   UNK     0     179.554 181.984 170.783  0.00  0.00     0.190 A 
HETATM   19  O   UNK     0     179.067 182.815 170.030  0.00  0.00    -0.287 OA
HETATM   20  C   UNK     0     181.606 183.339 171.201  0.00  0.00     0.085 A 
HETATM   21  C   UNK     0     182.844 183.494 171.826  0.00  0.00     0.074 A 
BRANCH  16  22
HETATM   22  C   UNK     0     178.779 178.556 172.269  0.00  0.00     0.001 A 
HETATM   23  C   UNK     0     179.513 177.369 172.236  0.00  0.00     0.053 A 
HETATM   24  C   UNK     0     178.900 176.158 172.560  0.00  0.00     0.099 A 
HETATM   25  C   UNK     0     177.552 176.131 172.915  0.00  0.00     0.098 A 
HETATM   26  C   UNK     0     176.817 177.316 172.950  0.00  0.00     0.040 A 
HETATM   27  C   UNK     0     177.428 178.527 172.627  0.00  0.00     0.017 A 
BRANCH  24  28
HETATM   28  O   UNK     0     179.628 175.006 172.521  0.00  0.00    -0.358 OA
HETATM   29  H   UNK     0     180.110 174.921 173.361  0.00  0.00     0.217 HD
ENDBRANCH  24  28
BRANCH  25  30
HETATM   30  O   UNK     0     176.943 174.955 173.234  0.00  0.00    -0.358 OA
HETATM   31  H   UNK     0     176.511 175.047 174.101  0.00  0.00     0.217 HD
ENDBRANCH  25  30
ENDBRANCH  16  22
BRANCH  20  32
HETATM   32  O   UNK     0     181.171 184.340 170.387  0.00  0.00    -0.360 OA
HETATM   33  H   UNK     0     181.285 184.097 169.456  0.00  0.00     0.217 HD
ENDBRANCH  20  32
ENDBRANCH  10  11
ENDBRANCH   6  10
BRANCH   3  34
HETATM   34  O   UNK     0     187.454 187.226 174.317  0.00  0.00    -0.390 OA
HETATM   35  H   UNK     0     188.400 187.252 174.543  0.00  0.00     0.210 HD
ENDBRANCH   3  34
BRANCH   4  36
HETATM   36  O   UNK     0     184.461 183.810 175.858  0.00  0.00    -0.388 OA
HETATM   37  H   UNK     0     183.626 184.037 175.414  0.00  0.00     0.210 HD
ENDBRANCH   4  36
BRANCH   2  38
HETATM   38  O   UNK     0     186.897 185.357 176.451  0.00  0.00    -0.390 OA
HETATM   39  H   UNK     0     187.265 184.459 176.514  0.00  0.00     0.210 HD
ENDBRANCH   2  38
TORSDOF 11
ENDMDL
MODEL 6
REMARK VINA RESULT:      -7.9      5.757     10.202
REMARK  11 active torsions:
REMARK  status: ('A' for Active; 'I' for Inactive)
REMARK    1  A    between atoms: O_2  and  C_16 
REMARK    2  A    between atoms: O_2  and  C_18 
REMARK    3  A    between atoms: O_3  and  C_12 
REMARK    4  A    between atoms: O_4  and  C_13 
REMARK    5  A    between atoms: O_5  and  C_14 
REMARK    6  A    between atoms: O_6  and  C_17 
REMARK    7  A    between atoms: O_8  and  C_23 
REMARK    8  A    between atoms: O_10  and  C_30 
REMARK    9  A    between atoms: O_11  and  C_32 
REMARK   10  A    between atoms: C_15  and  C_17 
REMARK   11  A    between atoms: C_25  and  C_27 
ROOT
HETATM    1  O   UNK     0     185.331 184.502 172.559  0.00  0.00    -0.348 OA
HETATM    2  C   UNK     0     187.020 184.363 174.878  0.00  0.00     0.183 C 
HETATM    3  C   UNK     0     185.715 183.575 174.766  0.00  0.00     0.180 C 
HETATM    4  C   UNK     0     187.021 185.570 173.938  0.00  0.00     0.205 C 
HETATM    5  C   UNK     0     185.382 183.281 173.301  0.00  0.00     0.179 C 
HETATM    6  C   UNK     0     186.588 185.175 172.526  0.00  0.00     0.298 C 
ENDROOT
BRANCH   5   7
HETATM    7  C   UNK     0     184.026 182.598 173.157  0.00  0.00     0.198 C 
BRANCH   7   8
HETATM    8  O   UNK     0     184.211 181.200 173.278  0.00  0.00    -0.398 OA
HETATM    9  H   UNK     0     185.111 180.993 172.970  0.00  0.00     0.209 HD
ENDBRANCH   7   8
ENDBRANCH   5   7
BRANCH   6  10
HETATM   10  O   UNK     0     186.476 186.367 171.751  0.00  0.00    -0.318 OA
BRANCH  10  11
HETATM   11  C   UNK     0     186.981 186.322 170.485  0.00  0.00     0.077 A 
HETATM   12  C   UNK     0     186.344 187.019 169.457  0.00  0.00     0.075 A 
HETATM   13  C   UNK     0     186.862 186.972 168.163  0.00  0.00     0.095 A 
HETATM   14  O   UNK     0     186.193 187.676 167.194  0.00  0.00    -0.309 OA
HETATM   15  C   UNK     0     188.012 186.229 167.899  0.00  0.00     0.081 A 
HETATM   16  C   UNK     0     186.688 187.652 165.900  0.00  0.00     0.090 A 
HETATM   17  C   UNK     0     187.780 186.970 165.521  0.00  0.00     0.094 A 
HETATM   18  C   UNK     0     188.535 186.194 166.525  0.00  0.00     0.190 A 
HETATM   19  O   UNK     0     189.537 185.561 166.223  0.00  0.00    -0.287 OA
HETATM   20  C   UNK     0     188.652 185.529 168.926  0.00  0.00     0.085 A 
HETATM   21  C   UNK     0     188.132 185.580 170.220  0.00  0.00     0.074 A 
BRANCH  16  22
HETATM   22  C   UNK     0     185.889 188.438 164.937  0.00  0.00     0.001 A 
HETATM   23  C   UNK     0     184.576 188.063 164.645  0.00  0.00     0.053 A 
HETATM   24  C   UNK     0     183.821 188.807 163.737  0.00  0.00     0.099 A 
HETATM   25  C   UNK     0     184.378 189.925 163.118  0.00  0.00     0.098 A 
HETATM   26  C   UNK     0     185.690 190.302 163.409  0.00  0.00     0.040 A 
HETATM   27  C   UNK     0     186.444 189.560 164.316  0.00  0.00     0.017 A 
BRANCH  24  28
HETATM   28  O   UNK     0     182.542 188.428 163.460  0.00  0.00    -0.358 OA
HETATM   29  H   UNK     0     181.949 188.867 164.094  0.00  0.00     0.217 HD
ENDBRANCH  24  28
BRANCH  25  30
HETATM   30  O   UNK     0     183.651 190.660 162.231  0.00  0.00    -0.358 OA
HETATM   31  H   UNK     0     183.025 191.220 162.721  0.00  0.00     0.217 HD
ENDBRANCH  25  30
ENDBRANCH  16  22
BRANCH  20  32
HETATM   32  O   UNK     0     189.777 184.791 168.719  0.00  0.00    -0.360 OA
HETATM   33  H   UNK     0     190.231 184.618 169.557  0.00  0.00     0.217 HD
ENDBRANCH  20  32
ENDBRANCH  10  11
ENDBRANCH   6  10
BRANCH   3  34
HETATM   34  O   UNK     0     185.844 182.346 175.475  0.00  0.00    -0.390 OA
HETATM   35  H   UNK     0     186.714 181.966 175.262  0.00  0.00     0.210 HD
ENDBRANCH   3  34
BRANCH   4  36
HETATM   36  O   UNK     0     188.339 186.113 173.867  0.00  0.00    -0.388 OA
HETATM   37  H   UNK     0     188.931 185.535 174.379  0.00  0.00     0.210 HD
ENDBRANCH   4  36
BRANCH   2  38
HETATM   38  O   UNK     0     187.151 184.813 176.228  0.00  0.00    -0.390 OA
HETATM   39  H   UNK     0     187.959 184.411 176.591  0.00  0.00     0.210 HD
ENDBRANCH   2  38
TORSDOF 11
ENDMDL
MODEL 7
REMARK VINA RESULT:      -7.9      2.540      4.731
REMARK  11 active torsions:
REMARK  status: ('A' for Active; 'I' for Inactive)
REMARK    1  A    between atoms: O_2  and  C_16 
REMARK    2  A    between atoms: O_2  and  C_18 
REMARK    3  A    between atoms: O_3  and  C_12 
REMARK    4  A    between atoms: O_4  and  C_13 
REMARK    5  A    between atoms: O_5  and  C_14 
REMARK    6  A    between atoms: O_6  and  C_17 
REMARK    7  A    between atoms: O_8  and  C_23 
REMARK    8  A    between atoms: O_10  and  C_30 
REMARK    9  A    between atoms: O_11  and  C_32 
REMARK   10  A    between atoms: C_15  and  C_17 
REMARK   11  A    between atoms: C_25  and  C_27 
ROOT
HETATM    1  O   UNK     0     185.902 183.949 172.280  0.00  0.00    -0.348 OA
HETATM    2  C   UNK     0     186.369 186.569 173.360  0.00  0.00     0.183 C 
HETATM    3  C   UNK     0     187.172 186.010 172.184  0.00  0.00     0.180 C 
HETATM    4  C   UNK     0     185.744 185.444 174.187  0.00  0.00     0.205 C 
HETATM    5  C   UNK     0     186.348 184.985 171.402  0.00  0.00     0.179 C 
HETATM    6  C   UNK     0     185.025 184.432 173.295  0.00  0.00     0.298 C 
ENDROOT
BRANCH   5   7
HETATM    7  C   UNK     0     187.168 184.329 170.296  0.00  0.00     0.198 C 
BRANCH   7   8
HETATM    8  O   UNK     0     188.542 184.480 170.602  0.00  0.00    -0.398 OA
HETATM    9  H   UNK     0     188.856 183.638 170.976  0.00  0.00     0.209 HD
ENDBRANCH   7   8
ENDBRANCH   5   7
BRANCH   6  10
HETATM   10  O   UNK     0     184.596 183.348 174.118  0.00  0.00    -0.318 OA
BRANCH  10  11
HETATM   11  C   UNK     0     183.503 182.653 173.692  0.00  0.00     0.077 A 
HETATM   12  C   UNK     0     183.641 181.330 173.269  0.00  0.00     0.075 A 
HETATM   13  C   UNK     0     182.523 180.621 172.834  0.00  0.00     0.095 A 
HETATM   14  O   UNK     0     182.720 179.324 172.430  0.00  0.00    -0.309 OA
HETATM   15  C   UNK     0     181.270 181.234 172.820  0.00  0.00     0.081 A 
HETATM   16  C   UNK     0     181.624 178.593 171.998  0.00  0.00     0.090 A 
HETATM   17  C   UNK     0     180.373 179.074 171.933  0.00  0.00     0.094 A 
HETATM   18  C   UNK     0     180.108 180.464 172.353  0.00  0.00     0.190 A 
HETATM   19  O   UNK     0     178.982 180.940 172.312  0.00  0.00    -0.287 OA
HETATM   20  C   UNK     0     181.128 182.559 173.241  0.00  0.00     0.085 A 
HETATM   21  C   UNK     0     182.250 183.265 173.678  0.00  0.00     0.074 A 
BRANCH  16  22
HETATM   22  C   UNK     0     181.950 177.213 171.582  0.00  0.00     0.001 A 
HETATM   23  C   UNK     0     181.188 176.142 172.053  0.00  0.00     0.053 A 
HETATM   24  C   UNK     0     181.495 174.839 171.659  0.00  0.00     0.099 A 
HETATM   25  C   UNK     0     182.565 174.604 170.796  0.00  0.00     0.098 A 
HETATM   26  C   UNK     0     183.327 175.673 170.324  0.00  0.00     0.040 A 
HETATM   27  C   UNK     0     183.021 176.975 170.717  0.00  0.00     0.017 A 
BRANCH  24  28
HETATM   28  O   UNK     0     180.745 173.802 172.128  0.00  0.00    -0.358 OA
HETATM   29  H   UNK     0     180.402 173.304 171.366  0.00  0.00     0.217 HD
ENDBRANCH  24  28
BRANCH  25  30
HETATM   30  O   UNK     0     182.873 173.337 170.404  0.00  0.00    -0.358 OA
HETATM   31  H   UNK     0     183.606 173.372 169.765  0.00  0.00     0.217 HD
ENDBRANCH  25  30
ENDBRANCH  16  22
BRANCH  20  32
HETATM   32  O   UNK     0     179.928 183.201 173.246  0.00  0.00    -0.360 OA
HETATM   33  H   UNK     0     179.216 182.593 173.496  0.00  0.00     0.217 HD
ENDBRANCH  20  32
ENDBRANCH  10  11
ENDBRANCH   6  10
BRANCH   3  34
HETATM   34  O   UNK     0     187.540 187.080 171.316  0.00  0.00    -0.390 OA
HETATM   35  H   UNK     0     187.952 187.776 171.855  0.00  0.00     0.210 HD
ENDBRANCH   3  34
BRANCH   4  36
HETATM   36  O   UNK     0     184.792 185.997 175.095  0.00  0.00    -0.388 OA
HETATM   37  H   UNK     0     184.591 185.324 175.768  0.00  0.00     0.210 HD
ENDBRANCH   4  36
BRANCH   2  38
HETATM   38  O   UNK     0     187.258 187.326 174.183  0.00  0.00    -0.390 OA
HETATM   39  H   UNK     0     187.137 188.264 173.954  0.00  0.00     0.210 HD
ENDBRANCH   2  38
TORSDOF 11
ENDMDL
MODEL 8
REMARK VINA RESULT:      -7.9      5.940     10.165
REMARK  11 active torsions:
REMARK  status: ('A' for Active; 'I' for Inactive)
REMARK    1  A    between atoms: O_2  and  C_16 
REMARK    2  A    between atoms: O_2  and  C_18 
REMARK    3  A    between atoms: O_3  and  C_12 
REMARK    4  A    between atoms: O_4  and  C_13 
REMARK    5  A    between atoms: O_5  and  C_14 
REMARK    6  A    between atoms: O_6  and  C_17 
REMARK    7  A    between atoms: O_8  and  C_23 
REMARK    8  A    between atoms: O_10  and  C_30 
REMARK    9  A    between atoms: O_11  and  C_32 
REMARK   10  A    between atoms: C_15  and  C_17 
REMARK   11  A    between atoms: C_25  and  C_27 
ROOT
HETATM    1  O   UNK     0     184.900 183.966 172.701  0.00  0.00    -0.348 OA
HETATM    2  C   UNK     0     186.841 183.699 174.801  0.00  0.00     0.183 C 
HETATM    3  C   UNK     0     185.403 183.198 174.943  0.00  0.00     0.180 C 
HETATM    4  C   UNK     0     186.945 184.781 173.725  0.00  0.00     0.205 C 
HETATM    5  C   UNK     0     184.815 182.840 173.577  0.00  0.00     0.179 C 
HETATM    6  C   UNK     0     186.247 184.352 172.435  0.00  0.00     0.298 C 
ENDROOT
BRANCH   5   7
HETATM    7  C   UNK     0     183.344 182.449 173.681  0.00  0.00     0.198 C 
BRANCH   7   8
HETATM    8  O   UNK     0     183.263 181.140 174.215  0.00  0.00    -0.398 OA
HETATM    9  H   UNK     0     182.388 181.043 174.629  0.00  0.00     0.209 HD
ENDBRANCH   7   8
ENDBRANCH   5   7
BRANCH   6  10
HETATM   10  O   UNK     0     186.263 185.460 171.536  0.00  0.00    -0.318 OA
BRANCH  10  11
HETATM   11  C   UNK     0     187.047 185.336 170.428  0.00  0.00     0.077 A 
HETATM   12  C   UNK     0     187.691 184.127 170.162  0.00  0.00     0.075 A 
HETATM   13  C   UNK     0     188.493 184.003 169.028  0.00  0.00     0.095 A 
HETATM   14  O   UNK     0     189.101 182.790 168.820  0.00  0.00    -0.309 OA
HETATM   15  C   UNK     0     188.651 185.086 168.164  0.00  0.00     0.081 A 
HETATM   16  C   UNK     0     189.899 182.636 167.697  0.00  0.00     0.090 A 
HETATM   17  C   UNK     0     190.132 183.604 166.797  0.00  0.00     0.094 A 
HETATM   18  C   UNK     0     189.504 184.928 166.977  0.00  0.00     0.190 A 
HETATM   19  O   UNK     0     189.689 185.836 166.179  0.00  0.00    -0.287 OA
HETATM   20  C   UNK     0     188.008 186.298 168.427  0.00  0.00     0.085 A 
HETATM   21  C   UNK     0     187.205 186.418 169.562  0.00  0.00     0.074 A 
BRANCH  16  22
HETATM   22  C   UNK     0     190.508 181.295 167.574  0.00  0.00     0.001 A 
HETATM   23  C   UNK     0     189.807 180.166 168.002  0.00  0.00     0.053 A 
HETATM   24  C   UNK     0     190.382 178.900 167.884  0.00  0.00     0.099 A 
HETATM   25  C   UNK     0     191.657 178.760 167.338  0.00  0.00     0.098 A 
HETATM   26  C   UNK     0     192.358 179.887 166.908  0.00  0.00     0.040 A 
HETATM   27  C   UNK     0     191.785 181.153 167.026  0.00  0.00     0.017 A 
BRANCH  24  28
HETATM   28  O   UNK     0     189.688 177.806 168.309  0.00  0.00    -0.358 OA
HETATM   29  H   UNK     0     189.910 177.647 169.242  0.00  0.00     0.217 HD
ENDBRANCH  24  28
BRANCH  25  30
HETATM   30  O   UNK     0     192.228 177.530 167.216  0.00  0.00    -0.358 OA
HETATM   31  H   UNK     0     193.167 177.590 167.463  0.00  0.00     0.217 HD
ENDBRANCH  25  30
ENDBRANCH  16  22
BRANCH  20  32
HETATM   32  O   UNK     0     188.130 187.383 167.614  0.00  0.00    -0.360 OA
HETATM   33  H   UNK     0     187.988 188.202 168.113  0.00  0.00     0.217 HD
ENDBRANCH  20  32
ENDBRANCH  10  11
ENDBRANCH   6  10
BRANCH   3  34
HETATM   34  O   UNK     0     185.388 182.043 175.780  0.00  0.00    -0.390 OA
HETATM   35  H   UNK     0     184.743 181.416 175.413  0.00  0.00     0.210 HD
ENDBRANCH   3  34
BRANCH   4  36
HETATM   36  O   UNK     0     188.321 185.024 173.430  0.00  0.00    -0.388 OA
HETATM   37  H   UNK     0     188.823 184.959 174.261  0.00  0.00     0.210 HD
ENDBRANCH   4  36
BRANCH   2  38
HETATM   38  O   UNK     0     187.248 184.239 176.059  0.00  0.00    -0.390 OA
HETATM   39  H   UNK     0     186.445 184.367 176.594  0.00  0.00     0.210 HD
ENDBRANCH   2  38
TORSDOF 11
ENDMDL
MODEL 9
REMARK VINA RESULT:      -7.8      5.368      9.646
REMARK  11 active torsions:
REMARK  status: ('A' for Active; 'I' for Inactive)
REMARK    1  A    between atoms: O_2  and  C_16 
REMARK    2  A    between atoms: O_2  and  C_18 
REMARK    3  A    between atoms: O_3  and  C_12 
REMARK    4  A    between atoms: O_4  and  C_13 
REMARK    5  A    between atoms: O_5  and  C_14 
REMARK    6  A    between atoms: O_6  and  C_17 
REMARK    7  A    between atoms: O_8  and  C_23 
REMARK    8  A    between atoms: O_10  and  C_30 
REMARK    9  A    between atoms: O_11  and  C_32 
REMARK   10  A    between atoms: C_15  and  C_17 
REMARK   11  A    between atoms: C_25  and  C_27 
ROOT
HETATM    1  O   UNK     0     184.674 185.502 172.688  0.00  0.00    -0.348 OA
HETATM    2  C   UNK     0     186.052 185.706 175.200  0.00  0.00     0.183 C 
HETATM    3  C   UNK     0     184.757 184.909 175.036  0.00  0.00     0.180 C 
HETATM    4  C   UNK     0     186.195 186.761 174.102  0.00  0.00     0.205 C 
HETATM    5  C   UNK     0     184.608 184.404 173.600  0.00  0.00     0.179 C 
HETATM    6  C   UNK     0     185.937 186.164 172.719  0.00  0.00     0.298 C 
ENDROOT
BRANCH   5   7
HETATM    7  C   UNK     0     183.269 183.706 173.384  0.00  0.00     0.198 C 
BRANCH   7   8
HETATM    8  O   UNK     0     182.375 184.121 174.401  0.00  0.00    -0.398 OA
HETATM    9  H   UNK     0     182.609 183.640 175.214  0.00  0.00     0.209 HD
ENDBRANCH   7   8
ENDBRANCH   5   7
BRANCH   6  10
HETATM   10  O   UNK     0     185.946 187.229 171.770  0.00  0.00    -0.318 OA
BRANCH  10  11
HETATM   11  C   UNK     0     186.400 186.931 170.520  0.00  0.00     0.077 A 
HETATM   12  C   UNK     0     186.998 185.694 170.274  0.00  0.00     0.075 A 
HETATM   13  C   UNK     0     187.462 185.391 168.995  0.00  0.00     0.095 A 
HETATM   14  O   UNK     0     188.042 184.160 168.814  0.00  0.00    -0.309 OA
HETATM   15  C   UNK     0     187.328 186.322 167.965  0.00  0.00     0.081 A 
HETATM   16  C   UNK     0     188.507 183.829 167.550  0.00  0.00     0.090 A 
HETATM   17  C   UNK     0     188.440 184.641 166.484  0.00  0.00     0.094 A 
HETATM   18  C   UNK     0     187.828 185.976 166.626  0.00  0.00     0.190 A 
HETATM   19  O   UNK     0     187.745 186.746 165.679  0.00  0.00    -0.287 OA
HETATM   20  C   UNK     0     186.729 187.561 168.208  0.00  0.00     0.085 A 
HETATM   21  C   UNK     0     186.265 187.861 169.490  0.00  0.00     0.074 A 
BRANCH  16  22
HETATM   22  C   UNK     0     189.116 182.485 167.469  0.00  0.00     0.001 A 
HETATM   23  C   UNK     0     189.176 181.817 166.244  0.00  0.00     0.053 A 
HETATM   24  C   UNK     0     189.753 180.548 166.167  0.00  0.00     0.099 A 
HETATM   25  C   UNK     0     190.270 179.946 167.313  0.00  0.00     0.098 A 
HETATM   26  C   UNK     0     190.212 180.613 168.538  0.00  0.00     0.040 A 
HETATM   27  C   UNK     0     189.636 181.880 168.616  0.00  0.00     0.017 A 
BRANCH  24  28
HETATM   28  O   UNK     0     189.802 179.906 164.966  0.00  0.00    -0.358 OA
HETATM   29  H   UNK     0     189.083 179.252 164.940  0.00  0.00     0.217 HD
ENDBRANCH  24  28
BRANCH  25  30
HETATM   30  O   UNK     0     190.836 178.709 167.251  0.00  0.00    -0.358 OA
HETATM   31  H   UNK     0     191.487 178.621 167.969  0.00  0.00     0.217 HD
ENDBRANCH  25  30
ENDBRANCH  16  22
BRANCH  20  32
HETATM   32  O   UNK     0     186.575 188.503 167.237  0.00  0.00    -0.360 OA
HETATM   33  H   UNK     0     186.726 188.117 166.360  0.00  0.00     0.217 HD
ENDBRANCH  20  32
ENDBRANCH  10  11
ENDBRANCH   6  10
BRANCH   3  34
HETATM   34  O   UNK     0     184.774 183.797 175.928  0.00  0.00    -0.390 OA
HETATM   35  H   UNK     0     183.997 183.245 175.733  0.00  0.00     0.210 HD
ENDBRANCH   3  34
BRANCH   4  36
HETATM   36  O   UNK     0     187.521 187.289 174.122  0.00  0.00    -0.388 OA
HETATM   37  H   UNK     0     187.500 188.139 174.594  0.00  0.00     0.210 HD
ENDBRANCH   4  36
BRANCH   2  38
HETATM   38  O   UNK     0     186.020 186.348 176.475  0.00  0.00    -0.390 OA
HETATM   39  H   UNK     0     185.087 186.413 176.744  0.00  0.00     0.210 HD
ENDBRANCH   2  38
TORSDOF 11
ENDMDL
MODEL 10
REMARK VINA RESULT:      -7.8      1.940      2.389
REMARK  11 active torsions:
REMARK  status: ('A' for Active; 'I' for Inactive)
REMARK    1  A    between atoms: O_2  and  C_16 
REMARK    2  A    between atoms: O_2  and  C_18 
REMARK    3  A    between atoms: O_3  and  C_12 
REMARK    4  A    between atoms: O_4  and  C_13 
REMARK    5  A    between atoms: O_5  and  C_14 
REMARK    6  A    between atoms: O_6  and  C_17 
REMARK    7  A    between atoms: O_8  and  C_23 
REMARK    8  A    between atoms: O_10  and  C_30 
REMARK    9  A    between atoms: O_11  and  C_32 
REMARK   10  A    between atoms: C_15  and  C_17 
REMARK   11  A    between atoms: C_25  and  C_27 
ROOT
HETATM    1  O   UNK     0     185.741 182.996 174.410  0.00  0.00    -0.348 OA
HETATM    2  C   UNK     0     184.520 185.555 174.873  0.00  0.00     0.183 C 
HETATM    3  C   UNK     0     185.954 185.239 175.301  0.00  0.00     0.180 C 
HETATM    4  C   UNK     0     183.698 184.275 174.709  0.00  0.00     0.205 C 
HETATM    5  C   UNK     0     186.565 184.163 174.402  0.00  0.00     0.179 C 
HETATM    6  C   UNK     0     184.444 183.239 173.868  0.00  0.00     0.298 C 
ENDROOT
BRANCH   5   7
HETATM    7  C   UNK     0     187.953 183.749 174.881  0.00  0.00     0.198 C 
BRANCH   7   8
HETATM    8  O   UNK     0     188.066 184.063 176.257  0.00  0.00    -0.398 OA
HETATM    9  H   UNK     0     187.855 183.259 176.762  0.00  0.00     0.209 HD
ENDBRANCH   7   8
ENDBRANCH   5   7
BRANCH   6  10
HETATM   10  O   UNK     0     183.683 182.032 173.881  0.00  0.00    -0.318 OA
BRANCH  10  11
HETATM   11  C   UNK     0     183.054 181.695 172.719  0.00  0.00     0.077 A 
HETATM   12  C   UNK     0     181.766 181.157 172.755  0.00  0.00     0.075 A 
HETATM   13  C   UNK     0     181.126 180.813 171.566  0.00  0.00     0.095 A 
HETATM   14  O   UNK     0     179.861 180.289 171.664  0.00  0.00    -0.309 OA
HETATM   15  C   UNK     0     181.772 181.004 170.345  0.00  0.00     0.081 A 
HETATM   16  C   UNK     0     179.198 179.942 170.497  0.00  0.00     0.090 A 
HETATM   17  C   UNK     0     179.715 180.073 169.266  0.00  0.00     0.094 A 
HETATM   18  C   UNK     0     181.074 180.629 169.106  0.00  0.00     0.190 A 
HETATM   19  O   UNK     0     181.582 180.767 168.002  0.00  0.00    -0.287 OA
HETATM   20  C   UNK     0     183.061 181.541 170.305  0.00  0.00     0.085 A 
HETATM   21  C   UNK     0     183.699 181.886 171.497  0.00  0.00     0.074 A 
BRANCH  16  22
HETATM   22  C   UNK     0     177.848 179.384 170.718  0.00  0.00     0.001 A 
HETATM   23  C   UNK     0     176.914 179.376 169.679  0.00  0.00     0.053 A 
HETATM   24  C   UNK     0     175.640 178.847 169.888  0.00  0.00     0.099 A 
HETATM   25  C   UNK     0     175.296 178.327 171.135  0.00  0.00     0.098 A 
HETATM   26  C   UNK     0     176.227 178.333 172.174  0.00  0.00     0.040 A 
HETATM   27  C   UNK     0     177.501 178.861 171.967  0.00  0.00     0.017 A 
BRANCH  24  28
HETATM   28  O   UNK     0     174.737 178.849 168.867  0.00  0.00    -0.358 OA
HETATM   29  H   UNK     0     174.586 177.928 168.592  0.00  0.00     0.217 HD
ENDBRANCH  24  28
BRANCH  25  30
HETATM   30  O   UNK     0     174.055 177.808 171.351  0.00  0.00    -0.358 OA
HETATM   31  H   UNK     0     173.445 178.152 170.676  0.00  0.00     0.217 HD
ENDBRANCH  25  30
ENDBRANCH  16  22
BRANCH  20  32
HETATM   32  O   UNK     0     183.733 181.746 169.139  0.00  0.00    -0.360 OA
HETATM   33  H   UNK     0     184.089 182.647 169.104  0.00  0.00     0.217 HD
ENDBRANCH  20  32
ENDBRANCH  10  11
ENDBRANCH   6  10
BRANCH   3  34
HETATM   34  O   UNK     0     186.741 186.426 175.219  0.00  0.00    -0.390 OA
HETATM   35  H   UNK     0     187.625 186.177 174.899  0.00  0.00     0.210 HD
ENDBRANCH   3  34
BRANCH   4  36
HETATM   36  O   UNK     0     182.469 184.584 174.053  0.00  0.00    -0.388 OA
HETATM   37  H   UNK     0     182.132 183.767 173.646  0.00  0.00     0.210 HD
ENDBRANCH   4  36
BRANCH   2  38
HETATM   38  O   UNK     0     183.927 186.375 175.882  0.00  0.00    -0.390 OA
HETATM   39  H   UNK     0     183.101 185.942 176.160  0.00  0.00     0.210 HD
ENDBRANCH   2  38
TORSDOF 11
ENDMDL
