MODEL 1
REMARK VINA RESULT:      -5.8      0.000      0.000
REMARK  Name = 2162
REMARK  14 active torsions:
REMARK  status: ('A' for Active; 'I' for Inactive)
REMARK    1  A    between atoms: O_2  and  C_15
REMARK    2  A    between atoms: O_2  and  C_24
REMARK    3  A    between atoms: O_3  and  C_16
REMARK    4  A    between atoms: O_3  and  C_25
REMARK    5  A    between atoms: O_4  and  C_18
REMARK    6  A    between atoms: O_4  and  C_27
REMARK    7  A    between atoms: N_8  and  C_26
REMARK    8  A    between atoms: C_9  and  C_14
REMARK    9  A    between atoms: C_10  and  C_16
REMARK   10  A    between atoms: C_11  and  C_18
REMARK   11  A    between atoms: C_12  and  C_15
REMARK   12  A    between atoms: C_13  and  C_17
REMARK   13  A    between atoms: C_24  and  C_26
REMARK   14  A    between atoms: C_25  and  C_28
REMARK                            x       y       z     vdW  Elec       q    Type
REMARK                         _______ _______ _______ _____ _____    ______ ____
ROOT
ATOM      1  C   UNL     1     177.021 175.904 169.574  0.00  0.00    +0.097 C 
ATOM      2  C   UNL     1     176.032 174.737 169.653  0.00  0.00    +0.065 C 
ATOM      3  C   UNL     1     176.461 173.455 169.666  0.00  0.00    +0.016 C 
ATOM      4  C   UNL     1     175.582 172.241 169.793  0.00  0.00    +0.061 C 
ATOM      5  N   UNL     1     177.816 173.186 169.550  0.00  0.00    -0.319 N 
ATOM      6  H   UNL     1     178.102 172.213 169.573  0.00  0.00    +0.152 HD
ATOM      7  C   UNL     1     178.796 174.140 169.329  0.00  0.00    +0.045 C 
ATOM      8  C   UNL     1     178.462 175.450 169.316  0.00  0.00    +0.068 C 
ENDROOT
BRANCH   1  15
ATOM      9 CL   UNL     1     176.273 178.890 169.343  0.00  0.00    -0.083 Cl
ATOM     10  C   UNL     1     176.628 178.071 170.820  0.00  0.00    +0.045 A 
ATOM     11  C   UNL     1     176.578 178.791 172.013  0.00  0.00    +0.020 A 
ATOM     12  C   UNL     1     176.860 178.156 173.223  0.00  0.00    +0.001 A 
ATOM     13  C   UNL     1     177.190 176.801 173.240  0.00  0.00    +0.000 A 
ATOM     14  C   UNL     1     177.239 176.081 172.047  0.00  0.00    +0.006 A 
ATOM     15  C   UNL     1     176.958 176.716 170.837  0.00  0.00    -0.017 A 
ENDBRANCH   1  15
BRANCH   2  16
ATOM     16  C   UNL     1     174.601 175.084 169.664  0.00  0.00    +0.337 C 
ATOM     17  O   UNL     1     173.901 175.007 170.657  0.00  0.00    -0.245 OA
BRANCH  16  18
ATOM     18  O   UNL     1     174.248 175.482 168.417  0.00  0.00    -0.465 OA
ATOM     19  C   UNL     1     173.551 176.729 168.353  0.00  0.00    +0.280 C 
ENDBRANCH  16  18
ENDBRANCH   2  16
BRANCH   8  20
ATOM     20  C   UNL     1     179.438 176.504 168.994  0.00  0.00    +0.338 C 
ATOM     21  O   UNL     1     179.520 177.026 167.897  0.00  0.00    -0.245 OA
BRANCH  20  22
ATOM     22  O   UNL     1     180.176 176.757 170.101  0.00  0.00    -0.462 OA
BRANCH  22  23
ATOM     23  C   UNL     1     180.388 178.144 170.385  0.00  0.00    +0.229 C 
ATOM     24  C   UNL     1     180.368 178.349 171.884  0.00  0.00    +0.048 C 
ENDBRANCH  22  23
ENDBRANCH  20  22
ENDBRANCH   8  20
BRANCH   7  25
ATOM     25  C   UNL     1     180.182 173.591 169.126  0.00  0.00    +0.211 C 
BRANCH  25  26
ATOM     26  O   UNL     1     180.843 173.502 170.373  0.00  0.00    -0.373 OA
BRANCH  26  27
ATOM     27  C   UNL     1     182.244 173.306 170.218  0.00  0.00    +0.175 C 
BRANCH  27  28
ATOM     28  C   UNL     1     182.959 174.609 170.539  0.00  0.00    +0.106 C 
BRANCH  28  29
ATOM     29  N   UNL     1     182.352 175.259 171.690  0.00  0.00    -0.328 NA
ATOM     30  H   UNL     1     182.391 176.270 171.568  0.00  0.00    +0.118 HD
ATOM     31  H   UNL     1     182.893 175.050 172.528  0.00  0.00    +0.118 HD
ENDBRANCH  28  29
ENDBRANCH  27  28
ENDBRANCH  26  27
ENDBRANCH  25  26
ENDBRANCH   7  25
TORSDOF 11
ENDMDL
MODEL 2
REMARK VINA RESULT:      -5.8      2.523      4.392
REMARK  Name = 2162
REMARK  14 active torsions:
REMARK  status: ('A' for Active; 'I' for Inactive)
REMARK    1  A    between atoms: O_2  and  C_15
REMARK    2  A    between atoms: O_2  and  C_24
REMARK    3  A    between atoms: O_3  and  C_16
REMARK    4  A    between atoms: O_3  and  C_25
REMARK    5  A    between atoms: O_4  and  C_18
REMARK    6  A    between atoms: O_4  and  C_27
REMARK    7  A    between atoms: N_8  and  C_26
REMARK    8  A    between atoms: C_9  and  C_14
REMARK    9  A    between atoms: C_10  and  C_16
REMARK   10  A    between atoms: C_11  and  C_18
REMARK   11  A    between atoms: C_12  and  C_15
REMARK   12  A    between atoms: C_13  and  C_17
REMARK   13  A    between atoms: C_24  and  C_26
REMARK   14  A    between atoms: C_25  and  C_28
REMARK                            x       y       z     vdW  Elec       q    Type
REMARK                         _______ _______ _______ _____ _____    ______ ____
ROOT
ATOM      1  C   UNL     1     177.970 177.558 170.247  0.00  0.00    +0.097 C 
ATOM      2  C   UNL     1     178.433 178.818 169.508  0.00  0.00    +0.065 C 
ATOM      3  C   UNL     1     179.274 178.741 168.452  0.00  0.00    +0.016 C 
ATOM      4  C   UNL     1     179.748 179.906 167.626  0.00  0.00    +0.061 C 
ATOM      5  N   UNL     1     179.772 177.507 168.063  0.00  0.00    -0.319 N 
ATOM      6  H   UNL     1     180.393 177.487 167.262  0.00  0.00    +0.152 HD
ATOM      7  C   UNL     1     179.547 176.316 168.734  0.00  0.00    +0.045 C 
ATOM      8  C   UNL     1     178.706 176.293 169.792  0.00  0.00    +0.068 C 
ENDROOT
BRANCH   1  15
ATOM      9 CL   UNL     1     176.183 177.778 172.754  0.00  0.00    -0.083 Cl
ATOM     10  C   UNL     1     175.611 177.463 171.157  0.00  0.00    +0.045 A 
ATOM     11  C   UNL     1     174.242 177.291 170.958  0.00  0.00    +0.020 A 
ATOM     12  C   UNL     1     173.749 177.035 169.678  0.00  0.00    +0.001 A 
ATOM     13  C   UNL     1     174.627 176.951 168.597  0.00  0.00    +0.000 A 
ATOM     14  C   UNL     1     175.996 177.123 168.796  0.00  0.00    +0.006 A 
ATOM     15  C   UNL     1     176.488 177.379 170.076  0.00  0.00    -0.017 A 
ENDBRANCH   1  15
BRANCH   2  16
ATOM     16  C   UNL     1     177.955 180.106 170.037  0.00  0.00    +0.337 C 
ATOM     17  O   UNL     1     177.063 180.752 169.519  0.00  0.00    -0.245 OA
BRANCH  16  18
ATOM     18  O   UNL     1     178.670 180.403 171.149  0.00  0.00    -0.465 OA
ATOM     19  C   UNL     1     179.504 181.561 171.041  0.00  0.00    +0.280 C 
ENDBRANCH  16  18
ENDBRANCH   2  16
BRANCH   8  20
ATOM     20  C   UNL     1     178.498 175.082 170.602  0.00  0.00    +0.338 C 
ATOM     21  O   UNL     1     177.806 174.147 170.241  0.00  0.00    -0.245 OA
BRANCH  20  22
ATOM     22  O   UNL     1     179.193 175.214 171.757  0.00  0.00    -0.462 OA
BRANCH  22  23
ATOM     23  C   UNL     1     178.458 174.906 172.946  0.00  0.00    +0.229 C 
ATOM     24  C   UNL     1     179.002 175.735 174.089  0.00  0.00    +0.048 C 
ENDBRANCH  22  23
ENDBRANCH  20  22
ENDBRANCH   8  20
BRANCH   7  25
ATOM     25  C   UNL     1     180.288 175.127 168.182  0.00  0.00    +0.211 C 
BRANCH  25  26
ATOM     26  O   UNL     1     181.671 175.272 168.437  0.00  0.00    -0.373 OA
BRANCH  26  27
ATOM     27  C   UNL     1     182.061 174.607 169.635  0.00  0.00    +0.175 C 
BRANCH  27  28
ATOM     28  C   UNL     1     182.697 175.621 170.572  0.00  0.00    +0.106 C 
BRANCH  28  29
ATOM     29  N   UNL     1     182.229 175.424 171.936  0.00  0.00    -0.328 NA
ATOM     30  H   UNL     1     182.485 174.489 172.250  0.00  0.00    +0.118 HD
ATOM     31  H   UNL     1     181.212 175.467 171.960  0.00  0.00    +0.118 HD
ENDBRANCH  28  29
ENDBRANCH  27  28
ENDBRANCH  26  27
ENDBRANCH  25  26
ENDBRANCH   7  25
TORSDOF 11
ENDMDL
MODEL 3
REMARK VINA RESULT:      -5.8      3.654      6.580
REMARK  Name = 2162
REMARK  14 active torsions:
REMARK  status: ('A' for Active; 'I' for Inactive)
REMARK    1  A    between atoms: O_2  and  C_15
REMARK    2  A    between atoms: O_2  and  C_24
REMARK    3  A    between atoms: O_3  and  C_16
REMARK    4  A    between atoms: O_3  and  C_25
REMARK    5  A    between atoms: O_4  and  C_18
REMARK    6  A    between atoms: O_4  and  C_27
REMARK    7  A    between atoms: N_8  and  C_26
REMARK    8  A    between atoms: C_9  and  C_14
REMARK    9  A    between atoms: C_10  and  C_16
REMARK   10  A    between atoms: C_11  and  C_18
REMARK   11  A    between atoms: C_12  and  C_15
REMARK   12  A    between atoms: C_13  and  C_17
REMARK   13  A    between atoms: C_24  and  C_26
REMARK   14  A    between atoms: C_25  and  C_28
REMARK                            x       y       z     vdW  Elec       q    Type
REMARK                         _______ _______ _______ _____ _____    ______ ____
ROOT
ATOM      1  C   UNL     1     180.219 177.853 171.347  0.00  0.00    +0.097 C 
ATOM      2  C   UNL     1     181.616 177.300 171.050  0.00  0.00    +0.065 C 
ATOM      3  C   UNL     1     182.729 177.969 171.425  0.00  0.00    +0.016 C 
ATOM      4  C   UNL     1     184.142 177.491 171.229  0.00  0.00    +0.061 C 
ATOM      5  N   UNL     1     182.610 179.205 172.040  0.00  0.00    -0.319 N 
ATOM      6  H   UNL     1     183.466 179.674 172.315  0.00  0.00    +0.152 HD
ATOM      7  C   UNL     1     181.415 179.879 172.235  0.00  0.00    +0.045 C 
ATOM      8  C   UNL     1     180.248 179.281 171.906  0.00  0.00    +0.068 C 
ENDROOT
BRANCH   1  15
ATOM      9 CL   UNL     1     177.433 176.805 170.533  0.00  0.00    -0.083 Cl
ATOM     10  C   UNL     1     178.237 176.427 172.011  0.00  0.00    +0.045 A 
ATOM     11  C   UNL     1     177.602 175.586 172.923  0.00  0.00    +0.020 A 
ATOM     12  C   UNL     1     178.227 175.261 174.127  0.00  0.00    +0.001 A 
ATOM     13  C   UNL     1     179.490 175.779 174.418  0.00  0.00    +0.000 A 
ATOM     14  C   UNL     1     180.125 176.620 173.506  0.00  0.00    +0.006 A 
ATOM     15  C   UNL     1     179.500 176.944 172.303  0.00  0.00    -0.017 A 
ENDBRANCH   1  15
BRANCH   2  16
ATOM     16  C   UNL     1     181.678 176.035 170.298  0.00  0.00    +0.337 C 
ATOM     17  O   UNL     1     181.316 175.926 169.141  0.00  0.00    -0.245 OA
BRANCH  16  18
ATOM     18  O   UNL     1     182.189 175.079 171.111  0.00  0.00    -0.465 OA
ATOM     19  C   UNL     1     182.722 173.934 170.439  0.00  0.00    +0.280 C 
ENDBRANCH  16  18
ENDBRANCH   2  16
BRANCH   8  20
ATOM     20  C   UNL     1     178.956 179.978 172.001  0.00  0.00    +0.338 C 
ATOM     21  O   UNL     1     178.152 179.778 172.894  0.00  0.00    -0.245 OA
BRANCH  20  22
ATOM     22  O   UNL     1     178.853 180.834 170.957  0.00  0.00    -0.462 OA
BRANCH  22  23
ATOM     23  C   UNL     1     178.257 180.285 169.777  0.00  0.00    +0.229 C 
ATOM     24  C   UNL     1     176.789 180.651 169.751  0.00  0.00    +0.048 C 
ENDBRANCH  22  23
ENDBRANCH  20  22
ENDBRANCH   8  20
BRANCH   7  25
ATOM     25  C   UNL     1     181.553 181.257 172.824  0.00  0.00    +0.211 C 
BRANCH  25  26
ATOM     26  O   UNL     1     182.581 181.256 173.795  0.00  0.00    -0.373 OA
BRANCH  26  27
ATOM     27  C   UNL     1     182.542 182.424 174.608  0.00  0.00    +0.175 C 
BRANCH  27  28
ATOM     28  C   UNL     1     183.780 182.446 175.491  0.00  0.00    +0.106 C 
BRANCH  28  29
ATOM     29  N   UNL     1     183.613 181.558 176.632  0.00  0.00    -0.328 NA
ATOM     30  H   UNL     1     183.148 182.060 177.387  0.00  0.00    +0.118 HD
ATOM     31  H   UNL     1     184.526 181.283 176.990  0.00  0.00    +0.118 HD
ENDBRANCH  28  29
ENDBRANCH  27  28
ENDBRANCH  26  27
ENDBRANCH  25  26
ENDBRANCH   7  25
TORSDOF 11
ENDMDL
MODEL 4
REMARK VINA RESULT:      -5.7      2.837      6.352
REMARK  Name = 2162
REMARK  14 active torsions:
REMARK  status: ('A' for Active; 'I' for Inactive)
REMARK    1  A    between atoms: O_2  and  C_15
REMARK    2  A    between atoms: O_2  and  C_24
REMARK    3  A    between atoms: O_3  and  C_16
REMARK    4  A    between atoms: O_3  and  C_25
REMARK    5  A    between atoms: O_4  and  C_18
REMARK    6  A    between atoms: O_4  and  C_27
REMARK    7  A    between atoms: N_8  and  C_26
REMARK    8  A    between atoms: C_9  and  C_14
REMARK    9  A    between atoms: C_10  and  C_16
REMARK   10  A    between atoms: C_11  and  C_18
REMARK   11  A    between atoms: C_12  and  C_15
REMARK   12  A    between atoms: C_13  and  C_17
REMARK   13  A    between atoms: C_24  and  C_26
REMARK   14  A    between atoms: C_25  and  C_28
REMARK                            x       y       z     vdW  Elec       q    Type
REMARK                         _______ _______ _______ _____ _____    ______ ____
ROOT
ATOM      1  C   UNL     1     177.368 175.044 169.464  0.00  0.00    +0.097 C 
ATOM      2  C   UNL     1     177.634 176.540 169.264  0.00  0.00    +0.065 C 
ATOM      3  C   UNL     1     176.619 177.432 169.217  0.00  0.00    +0.016 C 
ATOM      4  C   UNL     1     176.771 178.922 169.078  0.00  0.00    +0.061 C 
ATOM      5  N   UNL     1     175.310 176.983 169.295  0.00  0.00    -0.319 N 
ATOM      6  H   UNL     1     174.575 177.681 169.266  0.00  0.00    +0.152 HD
ATOM      7  C   UNL     1     174.931 175.650 169.331  0.00  0.00    +0.045 C 
ATOM      8  C   UNL     1     175.879 174.688 169.397  0.00  0.00    +0.068 C 
ENDROOT
BRANCH   1  15
ATOM      9 CL   UNL     1     179.612 172.926 169.406  0.00  0.00    -0.083 Cl
ATOM     10  C   UNL     1     178.962 173.638 170.837  0.00  0.00    +0.045 A 
ATOM     11  C   UNL     1     179.472 173.244 172.073  0.00  0.00    +0.020 A 
ATOM     12  C   UNL     1     178.967 173.802 173.247  0.00  0.00    +0.001 A 
ATOM     13  C   UNL     1     177.951 174.756 173.185  0.00  0.00    +0.000 A 
ATOM     14  C   UNL     1     177.440 175.150 171.949  0.00  0.00    +0.006 A 
ATOM     15  C   UNL     1     177.946 174.592 170.775  0.00  0.00    -0.017 A 
ENDBRANCH   1  15
BRANCH   2  16
ATOM     16  C   UNL     1     179.039 176.941 169.079  0.00  0.00    +0.337 C 
ATOM     17  O   UNL     1     179.648 176.785 168.037  0.00  0.00    -0.245 OA
BRANCH  16  18
ATOM     18  O   UNL     1     179.483 177.486 170.238  0.00  0.00    -0.465 OA
ATOM     19  C   UNL     1     180.742 176.986 170.699  0.00  0.00    +0.280 C 
ENDBRANCH  16  18
ENDBRANCH   2  16
BRANCH   8  20
ATOM     20  C   UNL     1     175.546 173.255 169.344  0.00  0.00    +0.338 C 
ATOM     21  O   UNL     1     175.620 172.589 168.328  0.00  0.00    -0.245 OA
BRANCH  20  22
ATOM     22  O   UNL     1     175.165 172.858 170.581  0.00  0.00    -0.462 OA
BRANCH  22  23
ATOM     23  C   UNL     1     175.656 171.576 170.985  0.00  0.00    +0.229 C 
ATOM     24  C   UNL     1     176.003 171.622 172.457  0.00  0.00    +0.048 C 
ENDBRANCH  22  23
ENDBRANCH  20  22
ENDBRANCH   8  20
BRANCH   7  25
ATOM     25  C   UNL     1     173.446 175.411 169.301  0.00  0.00    +0.211 C 
BRANCH  25  26
ATOM     26  O   UNL     1     173.014 175.288 167.960  0.00  0.00    -0.373 OA
BRANCH  26  27
ATOM     27  C   UNL     1     171.795 174.559 167.861  0.00  0.00    +0.175 C 
BRANCH  27  28
ATOM     28  C   UNL     1     172.118 173.077 167.760  0.00  0.00    +0.106 C 
BRANCH  28  29
ATOM     29  N   UNL     1     173.111 172.837 166.724  0.00  0.00    -0.328 NA
ATOM     30  H   UNL     1     172.733 173.118 165.820  0.00  0.00    +0.118 HD
ATOM     31  H   UNL     1     173.303 171.839 166.656  0.00  0.00    +0.118 HD
ENDBRANCH  28  29
ENDBRANCH  27  28
ENDBRANCH  26  27
ENDBRANCH  25  26
ENDBRANCH   7  25
TORSDOF 11
ENDMDL
MODEL 5
REMARK VINA RESULT:      -5.7      2.632      5.130
REMARK  Name = 2162
REMARK  14 active torsions:
REMARK  status: ('A' for Active; 'I' for Inactive)
REMARK    1  A    between atoms: O_2  and  C_15
REMARK    2  A    between atoms: O_2  and  C_24
REMARK    3  A    between atoms: O_3  and  C_16
REMARK    4  A    between atoms: O_3  and  C_25
REMARK    5  A    between atoms: O_4  and  C_18
REMARK    6  A    between atoms: O_4  and  C_27
REMARK    7  A    between atoms: N_8  and  C_26
REMARK    8  A    between atoms: C_9  and  C_14
REMARK    9  A    between atoms: C_10  and  C_16
REMARK   10  A    between atoms: C_11  and  C_18
REMARK   11  A    between atoms: C_12  and  C_15
REMARK   12  A    between atoms: C_13  and  C_17
REMARK   13  A    between atoms: C_24  and  C_26
REMARK   14  A    between atoms: C_25  and  C_28
REMARK                            x       y       z     vdW  Elec       q    Type
REMARK                         _______ _______ _______ _____ _____    ______ ____
ROOT
ATOM      1  C   UNL     1     178.490 176.655 170.604  0.00  0.00    +0.097 C 
ATOM      2  C   UNL     1     177.339 177.652 170.772  0.00  0.00    +0.065 C 
ATOM      3  C   UNL     1     176.059 177.292 170.524  0.00  0.00    +0.016 C 
ATOM      4  C   UNL     1     174.854 178.174 170.707  0.00  0.00    +0.061 C 
ATOM      5  N   UNL     1     175.786 176.017 170.055  0.00  0.00    -0.319 N 
ATOM      6  H   UNL     1     174.814 175.780 169.888  0.00  0.00    +0.152 HD
ATOM      7  C   UNL     1     176.744 175.073 169.725  0.00  0.00    +0.045 C 
ATOM      8  C   UNL     1     178.050 175.338 169.955  0.00  0.00    +0.068 C 
ENDROOT
BRANCH   1  15
ATOM      9 CL   UNL     1     181.524 177.146 170.883  0.00  0.00    -0.083 Cl
ATOM     10  C   UNL     1     180.495 176.577 172.145  0.00  0.00    +0.045 A 
ATOM     11  C   UNL     1     181.052 176.312 173.396  0.00  0.00    +0.020 A 
ATOM     12  C   UNL     1     180.245 175.852 174.436  0.00  0.00    +0.001 A 
ATOM     13  C   UNL     1     178.880 175.656 174.226  0.00  0.00    +0.000 A 
ATOM     14  C   UNL     1     178.323 175.921 172.976  0.00  0.00    +0.006 A 
ATOM     15  C   UNL     1     179.130 176.381 171.935  0.00  0.00    -0.017 A 
ENDBRANCH   1  15
BRANCH   2  16
ATOM     16  C   UNL     1     177.705 179.022 171.168  0.00  0.00    +0.337 C 
ATOM     17  O   UNL     1     177.695 179.410 172.321  0.00  0.00    -0.245 OA
BRANCH  16  18
ATOM     18  O   UNL     1     178.034 179.716 170.051  0.00  0.00    -0.465 OA
ATOM     19  C   UNL     1     177.265 180.901 169.826  0.00  0.00    +0.280 C 
ENDBRANCH  16  18
ENDBRANCH   2  16
BRANCH   8  20
ATOM     20  C   UNL     1     179.121 174.417 169.541  0.00  0.00    +0.338 C 
ATOM     21  O   UNL     1     179.829 174.609 168.569  0.00  0.00    -0.245 OA
BRANCH  20  22
ATOM     22  O   UNL     1     179.154 173.380 170.411  0.00  0.00    -0.462 OA
BRANCH  22  23
ATOM     23  C   UNL     1     180.451 173.057 170.923  0.00  0.00    +0.229 C 
ATOM     24  C   UNL     1     180.333 172.732 172.396  0.00  0.00    +0.048 C 
ENDBRANCH  22  23
ENDBRANCH  20  22
ENDBRANCH   8  20
BRANCH   7  25
ATOM     25  C   UNL     1     176.204 173.800 169.130  0.00  0.00    +0.211 C 
BRANCH  25  26
ATOM     26  O   UNL     1     174.854 173.635 169.515  0.00  0.00    -0.373 OA
BRANCH  26  27
ATOM     27  C   UNL     1     174.019 173.332 168.401  0.00  0.00    +0.175 C 
BRANCH  27  28
ATOM     28  C   UNL     1     172.816 174.261 168.426  0.00  0.00    +0.106 C 
BRANCH  28  29
ATOM     29  N   UNL     1     173.233 175.647 168.281  0.00  0.00    -0.328 NA
ATOM     30  H   UNL     1     173.398 176.049 169.203  0.00  0.00    +0.118 HD
ATOM     31  H   UNL     1     172.480 176.191 167.862  0.00  0.00    +0.118 HD
ENDBRANCH  28  29
ENDBRANCH  27  28
ENDBRANCH  26  27
ENDBRANCH  25  26
ENDBRANCH   7  25
TORSDOF 11
ENDMDL
MODEL 6
REMARK VINA RESULT:      -5.6      3.125      5.555
REMARK  Name = 2162
REMARK  14 active torsions:
REMARK  status: ('A' for Active; 'I' for Inactive)
REMARK    1  A    between atoms: O_2  and  C_15
REMARK    2  A    between atoms: O_2  and  C_24
REMARK    3  A    between atoms: O_3  and  C_16
REMARK    4  A    between atoms: O_3  and  C_25
REMARK    5  A    between atoms: O_4  and  C_18
REMARK    6  A    between atoms: O_4  and  C_27
REMARK    7  A    between atoms: N_8  and  C_26
REMARK    8  A    between atoms: C_9  and  C_14
REMARK    9  A    between atoms: C_10  and  C_16
REMARK   10  A    between atoms: C_11  and  C_18
REMARK   11  A    between atoms: C_12  and  C_15
REMARK   12  A    between atoms: C_13  and  C_17
REMARK   13  A    between atoms: C_24  and  C_26
REMARK   14  A    between atoms: C_25  and  C_28
REMARK                            x       y       z     vdW  Elec       q    Type
REMARK                         _______ _______ _______ _____ _____    ______ ____
ROOT
ATOM      1  C   UNL     1     177.251 174.142 172.154  0.00  0.00    +0.097 C 
ATOM      2  C   UNL     1     176.010 173.589 171.447  0.00  0.00    +0.065 C 
ATOM      3  C   UNL     1     175.044 174.412 170.980  0.00  0.00    +0.016 C 
ATOM      4  C   UNL     1     173.815 173.978 170.229  0.00  0.00    +0.061 C 
ATOM      5  N   UNL     1     175.147 175.777 171.193  0.00  0.00    -0.319 N 
ATOM      6  H   UNL     1     174.409 176.364 170.821  0.00  0.00    +0.152 HD
ATOM      7  C   UNL     1     176.142 176.389 171.939  0.00  0.00    +0.045 C 
ATOM      8  C   UNL     1     177.160 175.647 172.432  0.00  0.00    +0.068 C 
ENDROOT
BRANCH   1  15
ATOM      9 CL   UNL     1     179.598 172.699 173.544  0.00  0.00    -0.083 Cl
ATOM     10  C   UNL     1     179.583 173.197 171.892  0.00  0.00    +0.045 A 
ATOM     11  C   UNL     1     180.705 172.938 171.105  0.00  0.00    +0.020 A 
ATOM     12  C   UNL     1     180.723 173.329 169.767  0.00  0.00    +0.001 A 
ATOM     13  C   UNL     1     179.618 173.978 169.215  0.00  0.00    +0.000 A 
ATOM     14  C   UNL     1     178.497 174.236 170.002  0.00  0.00    +0.006 A 
ATOM     15  C   UNL     1     178.479 173.846 171.340  0.00  0.00    -0.017 A 
ENDBRANCH   1  15
BRANCH   2  16
ATOM     16  C   UNL     1     175.905 172.123 171.349  0.00  0.00    +0.337 C 
ATOM     17  O   UNL     1     175.757 171.532 170.295  0.00  0.00    -0.245 OA
BRANCH  16  18
ATOM     18  O   UNL     1     176.002 171.604 172.597  0.00  0.00    -0.465 OA
ATOM     19  C   UNL     1     174.770 171.527 173.319  0.00  0.00    +0.280 C 
ENDBRANCH  16  18
ENDBRANCH   2  16
BRANCH   8  20
ATOM     20  C   UNL     1     178.193 176.220 173.309  0.00  0.00    +0.338 C 
ATOM     21  O   UNL     1     178.246 176.009 174.507  0.00  0.00    -0.245 OA
BRANCH  20  22
ATOM     22  O   UNL     1     179.022 176.981 172.554  0.00  0.00    -0.462 OA
BRANCH  22  23
ATOM     23  C   UNL     1     180.418 176.767 172.782  0.00  0.00    +0.229 C 
ATOM     24  C   UNL     1     181.125 176.662 171.448  0.00  0.00    +0.048 C 
ENDBRANCH  22  23
ENDBRANCH  20  22
ENDBRANCH   8  20
BRANCH   7  25
ATOM     25  C   UNL     1     175.978 177.874 172.120  0.00  0.00    +0.211 C 
BRANCH  25  26
ATOM     26  O   UNL     1     175.024 178.360 171.196  0.00  0.00    -0.373 OA
BRANCH  26  27
ATOM     27  C   UNL     1     175.625 179.175 170.194  0.00  0.00    +0.175 C 
BRANCH  27  28
ATOM     28  C   UNL     1     175.429 178.509 168.841  0.00  0.00    +0.106 C 
BRANCH  28  29
ATOM     29  N   UNL     1     174.237 177.675 168.846  0.00  0.00    -0.328 NA
ATOM     30  H   UNL     1     173.993 177.439 169.807  0.00  0.00    +0.118 HD
ATOM     31  H   UNL     1     174.433 176.793 168.375  0.00  0.00    +0.118 HD
ENDBRANCH  28  29
ENDBRANCH  27  28
ENDBRANCH  26  27
ENDBRANCH  25  26
ENDBRANCH   7  25
TORSDOF 11
ENDMDL
MODEL 7
REMARK VINA RESULT:      -5.6      2.744      4.432
REMARK  Name = 2162
REMARK  14 active torsions:
REMARK  status: ('A' for Active; 'I' for Inactive)
REMARK    1  A    between atoms: O_2  and  C_15
REMARK    2  A    between atoms: O_2  and  C_24
REMARK    3  A    between atoms: O_3  and  C_16
REMARK    4  A    between atoms: O_3  and  C_25
REMARK    5  A    between atoms: O_4  and  C_18
REMARK    6  A    between atoms: O_4  and  C_27
REMARK    7  A    between atoms: N_8  and  C_26
REMARK    8  A    between atoms: C_9  and  C_14
REMARK    9  A    between atoms: C_10  and  C_16
REMARK   10  A    between atoms: C_11  and  C_18
REMARK   11  A    between atoms: C_12  and  C_15
REMARK   12  A    between atoms: C_13  and  C_17
REMARK   13  A    between atoms: C_24  and  C_26
REMARK   14  A    between atoms: C_25  and  C_28
REMARK                            x       y       z     vdW  Elec       q    Type
REMARK                         _______ _______ _______ _____ _____    ______ ____
ROOT
ATOM      1  C   UNL     1     176.863 175.677 169.462  0.00  0.00    +0.097 C 
ATOM      2  C   UNL     1     175.518 176.278 169.043  0.00  0.00    +0.065 C 
ATOM      3  C   UNL     1     174.384 175.543 169.068  0.00  0.00    +0.016 C 
ATOM      4  C   UNL     1     173.008 176.049 168.729  0.00  0.00    +0.061 C 
ATOM      5  N   UNL     1     174.443 174.206 169.425  0.00  0.00    -0.319 N 
ATOM      6  H   UNL     1     173.571 173.688 169.442  0.00  0.00    +0.152 HD
ATOM      7  C   UNL     1     175.611 173.507 169.685  0.00  0.00    +0.045 C 
ATOM      8  C   UNL     1     176.794 174.164 169.699  0.00  0.00    +0.068 C 
ENDROOT
BRANCH   1  15
ATOM      9 CL   UNL     1     179.592 177.110 169.306  0.00  0.00    -0.083 Cl
ATOM     10  C   UNL     1     178.594 177.036 170.711  0.00  0.00    +0.045 A 
ATOM     11  C   UNL     1     179.031 177.664 171.877  0.00  0.00    +0.020 A 
ATOM     12  C   UNL     1     178.245 177.621 173.029  0.00  0.00    +0.001 A 
ATOM     13  C   UNL     1     177.022 176.951 173.014  0.00  0.00    +0.000 A 
ATOM     14  C   UNL     1     176.585 176.323 171.849  0.00  0.00    +0.006 A 
ATOM     15  C   UNL     1     177.371 176.365 170.697  0.00  0.00    -0.017 A 
ENDBRANCH   1  15
BRANCH   2  16
ATOM     16  C   UNL     1     175.538 177.673 168.570  0.00  0.00    +0.337 C 
ATOM     17  O   UNL     1     175.935 178.000 167.467  0.00  0.00    -0.245 OA
BRANCH  16  18
ATOM     18  O   UNL     1     175.054 178.465 169.557  0.00  0.00    -0.465 OA
ATOM     19  C   UNL     1     175.828 179.637 169.828  0.00  0.00    +0.280 C 
ENDBRANCH  16  18
ENDBRANCH   2  16
BRANCH   8  20
ATOM     20  C   UNL     1     178.076 173.464 169.875  0.00  0.00    +0.338 C 
ATOM     21  O   UNL     1     178.817 173.182 168.951  0.00  0.00    -0.245 OA
BRANCH  20  22
ATOM     22  O   UNL     1     178.251 173.216 171.195  0.00  0.00    -0.462 OA
BRANCH  22  23
ATOM     23  C   UNL     1     179.556 173.514 171.701  0.00  0.00    +0.229 C 
ATOM     24  C   UNL     1     179.430 174.032 173.117  0.00  0.00    +0.048 C 
ENDBRANCH  22  23
ENDBRANCH  20  22
ENDBRANCH   8  20
BRANCH   7  25
ATOM     25  C   UNL     1     175.428 172.036 169.942  0.00  0.00    +0.211 C 
BRANCH  25  26
ATOM     26  O   UNL     1     175.234 171.818 171.326  0.00  0.00    -0.373 OA
BRANCH  26  27
ATOM     27  C   UNL     1     174.595 170.571 171.581  0.00  0.00    +0.175 C 
BRANCH  27  28
ATOM     28  C   UNL     1     175.487 169.744 172.494  0.00  0.00    +0.106 C 
BRANCH  28  29
ATOM     29  N   UNL     1     175.373 168.328 172.178  0.00  0.00    -0.328 NA
ATOM     30  H   UNL     1     174.683 168.201 171.438  0.00  0.00    +0.118 HD
ATOM     31  H   UNL     1     175.022 167.822 172.988  0.00  0.00    +0.118 HD
ENDBRANCH  28  29
ENDBRANCH  27  28
ENDBRANCH  26  27
ENDBRANCH  25  26
ENDBRANCH   7  25
TORSDOF 11
ENDMDL
MODEL 8
REMARK VINA RESULT:      -5.6      3.047      5.411
REMARK  Name = 2162
REMARK  14 active torsions:
REMARK  status: ('A' for Active; 'I' for Inactive)
REMARK    1  A    between atoms: O_2  and  C_15
REMARK    2  A    between atoms: O_2  and  C_24
REMARK    3  A    between atoms: O_3  and  C_16
REMARK    4  A    between atoms: O_3  and  C_25
REMARK    5  A    between atoms: O_4  and  C_18
REMARK    6  A    between atoms: O_4  and  C_27
REMARK    7  A    between atoms: N_8  and  C_26
REMARK    8  A    between atoms: C_9  and  C_14
REMARK    9  A    between atoms: C_10  and  C_16
REMARK   10  A    between atoms: C_11  and  C_18
REMARK   11  A    between atoms: C_12  and  C_15
REMARK   12  A    between atoms: C_13  and  C_17
REMARK   13  A    between atoms: C_24  and  C_26
REMARK   14  A    between atoms: C_25  and  C_28
REMARK                            x       y       z     vdW  Elec       q    Type
REMARK                         _______ _______ _______ _____ _____    ______ ____
ROOT
ATOM      1  C   UNL     1     178.873 177.015 171.572  0.00  0.00    +0.097 C 
ATOM      2  C   UNL     1     177.360 177.164 171.387  0.00  0.00    +0.065 C 
ATOM      3  C   UNL     1     176.796 178.373 171.164  0.00  0.00    +0.016 C 
ATOM      4  C   UNL     1     175.333 178.622 170.918  0.00  0.00    +0.061 C 
ATOM      5  N   UNL     1     177.592 179.507 171.158  0.00  0.00    -0.319 N 
ATOM      6  H   UNL     1     177.137 180.395 170.979  0.00  0.00    +0.152 HD
ATOM      7  C   UNL     1     178.946 179.526 171.454  0.00  0.00    +0.045 C 
ATOM      8  C   UNL     1     179.598 178.362 171.674  0.00  0.00    +0.068 C 
ENDROOT
BRANCH   1  15
ATOM      9 CL   UNL     1     180.036 174.233 172.229  0.00  0.00    -0.083 Cl
ATOM     10  C   UNL     1     179.995 174.941 170.656  0.00  0.00    +0.045 A 
ATOM     11  C   UNL     1     180.521 174.221 169.584  0.00  0.00    +0.020 A 
ATOM     12  C   UNL     1     180.503 174.766 168.301  0.00  0.00    +0.001 A 
ATOM     13  C   UNL     1     179.958 176.033 168.089  0.00  0.00    +0.000 A 
ATOM     14  C   UNL     1     179.432 176.753 169.161  0.00  0.00    +0.006 A 
ATOM     15  C   UNL     1     179.450 176.207 170.445  0.00  0.00    -0.017 A 
ENDBRANCH   1  15
BRANCH   2  16
ATOM     16  C   UNL     1     176.556 175.936 171.513  0.00  0.00    +0.337 C 
ATOM     17  O   UNL     1     176.349 175.378 172.574  0.00  0.00    -0.245 OA
BRANCH  16  18
ATOM     18  O   UNL     1     176.123 175.581 170.278  0.00  0.00    -0.465 OA
ATOM     19  C   UNL     1     176.391 174.225 169.910  0.00  0.00    +0.280 C 
ENDBRANCH  16  18
ENDBRANCH   2  16
BRANCH   8  20
ATOM     20  C   UNL     1     181.011 178.321 172.084  0.00  0.00    +0.338 C 
ATOM     21  O   UNL     1     181.369 178.128 173.232  0.00  0.00    -0.245 OA
BRANCH  20  22
ATOM     22  O   UNL     1     181.781 178.527 170.989  0.00  0.00    -0.462 OA
BRANCH  22  23
ATOM     23  C   UNL     1     183.135 178.079 171.106  0.00  0.00    +0.229 C 
ATOM     24  C   UNL     1     183.231 176.660 170.588  0.00  0.00    +0.048 C 
ENDBRANCH  22  23
ENDBRANCH  20  22
ENDBRANCH   8  20
BRANCH   7  25
ATOM     25  C   UNL     1     179.569 180.895 171.491  0.00  0.00    +0.211 C 
BRANCH  25  26
ATOM     26  O   UNL     1     179.722 181.309 172.834  0.00  0.00    -0.373 OA
BRANCH  26  27
ATOM     27  C   UNL     1     180.720 182.316 172.968  0.00  0.00    +0.175 C 
BRANCH  27  28
ATOM     28  C   UNL     1     182.065 181.726 172.575  0.00  0.00    +0.106 C 
BRANCH  28  29
ATOM     29  N   UNL     1     182.659 181.011 173.694  0.00  0.00    -0.328 NA
ATOM     30  H   UNL     1     182.085 181.145 174.526  0.00  0.00    +0.118 HD
ATOM     31  H   UNL     1     183.573 181.407 173.910  0.00  0.00    +0.118 HD
ENDBRANCH  28  29
ENDBRANCH  27  28
ENDBRANCH  26  27
ENDBRANCH  25  26
ENDBRANCH   7  25
TORSDOF 11
ENDMDL
MODEL 9
REMARK VINA RESULT:      -5.5      3.074      5.103
REMARK  Name = 2162
REMARK  14 active torsions:
REMARK  status: ('A' for Active; 'I' for Inactive)
REMARK    1  A    between atoms: O_2  and  C_15
REMARK    2  A    between atoms: O_2  and  C_24
REMARK    3  A    between atoms: O_3  and  C_16
REMARK    4  A    between atoms: O_3  and  C_25
REMARK    5  A    between atoms: O_4  and  C_18
REMARK    6  A    between atoms: O_4  and  C_27
REMARK    7  A    between atoms: N_8  and  C_26
REMARK    8  A    between atoms: C_9  and  C_14
REMARK    9  A    between atoms: C_10  and  C_16
REMARK   10  A    between atoms: C_11  and  C_18
REMARK   11  A    between atoms: C_12  and  C_15
REMARK   12  A    between atoms: C_13  and  C_17
REMARK   13  A    between atoms: C_24  and  C_26
REMARK   14  A    between atoms: C_25  and  C_28
REMARK                            x       y       z     vdW  Elec       q    Type
REMARK                         _______ _______ _______ _____ _____    ______ ____
ROOT
ATOM      1  C   UNL     1     179.120 176.273 171.545  0.00  0.00    +0.097 C 
ATOM      2  C   UNL     1     179.392 175.602 172.895  0.00  0.00    +0.065 C 
ATOM      3  C   UNL     1     180.308 176.102 173.754  0.00  0.00    +0.016 C 
ATOM      4  C   UNL     1     180.615 175.553 175.121  0.00  0.00    +0.061 C 
ATOM      5  N   UNL     1     181.057 177.209 173.387  0.00  0.00    -0.319 N 
ATOM      6  H   UNL     1     181.728 177.562 174.060  0.00  0.00    +0.152 HD
ATOM      7  C   UNL     1     181.010 177.819 172.144  0.00  0.00    +0.045 C 
ATOM      8  C   UNL     1     180.112 177.397 171.226  0.00  0.00    +0.068 C 
ENDROOT
BRANCH   1  15
ATOM      9 CL   UNL     1     177.220 175.213 169.355  0.00  0.00    -0.083 Cl
ATOM     10  C   UNL     1     176.794 176.378 170.554  0.00  0.00    +0.045 A 
ATOM     11  C   UNL     1     175.499 176.895 170.555  0.00  0.00    +0.020 A 
ATOM     12  C   UNL     1     175.124 177.838 171.512  0.00  0.00    +0.001 A 
ATOM     13  C   UNL     1     176.045 178.265 172.468  0.00  0.00    +0.000 A 
ATOM     14  C   UNL     1     177.340 177.748 172.467  0.00  0.00    +0.006 A 
ATOM     15  C   UNL     1     177.715 176.805 171.511  0.00  0.00    -0.017 A 
ENDBRANCH   1  15
BRANCH   2  16
ATOM     16  C   UNL     1     178.642 174.367 173.180  0.00  0.00    +0.337 C 
ATOM     17  O   UNL     1     177.616 174.343 173.833  0.00  0.00    -0.245 OA
BRANCH  16  18
ATOM     18  O   UNL     1     179.292 173.329 172.600  0.00  0.00    -0.465 OA
ATOM     19  C   UNL     1     179.674 172.278 173.492  0.00  0.00    +0.280 C 
ENDBRANCH  16  18
ENDBRANCH   2  16
BRANCH   8  20
ATOM     20  C   UNL     1     180.075 177.940 169.858  0.00  0.00    +0.338 C 
ATOM     21  O   UNL     1     180.482 177.331 168.886  0.00  0.00    -0.245 OA
BRANCH  20  22
ATOM     22  O   UNL     1     179.529 179.179 169.904  0.00  0.00    -0.462 OA
BRANCH  22  23
ATOM     23  C   UNL     1     178.476 179.412 168.963  0.00  0.00    +0.229 C 
ATOM     24  C   UNL     1     177.400 180.246 169.626  0.00  0.00    +0.048 C 
ENDBRANCH  22  23
ENDBRANCH  20  22
ENDBRANCH   8  20
BRANCH   7  25
ATOM     25  C   UNL     1     181.999 178.936 171.947  0.00  0.00    +0.211 C 
BRANCH  25  26
ATOM     26  O   UNL     1     181.720 179.981 172.858  0.00  0.00    -0.373 OA
BRANCH  26  27
ATOM     27  C   UNL     1     181.841 181.262 172.247  0.00  0.00    +0.175 C 
BRANCH  27  28
ATOM     28  C   UNL     1     180.453 181.766 171.887  0.00  0.00    +0.106 C 
BRANCH  28  29
ATOM     29  N   UNL     1     179.429 180.963 172.539  0.00  0.00    -0.328 NA
ATOM     30  H   UNL     1     179.429 180.025 172.140  0.00  0.00    +0.118 HD
ATOM     31  H   UNL     1     178.509 181.356 172.347  0.00  0.00    +0.118 HD
ENDBRANCH  28  29
ENDBRANCH  27  28
ENDBRANCH  26  27
ENDBRANCH  25  26
ENDBRANCH   7  25
TORSDOF 11
ENDMDL
MODEL 10
REMARK VINA RESULT:      -5.5      3.300      6.287
REMARK  Name = 2162
REMARK  14 active torsions:
REMARK  status: ('A' for Active; 'I' for Inactive)
REMARK    1  A    between atoms: O_2  and  C_15
REMARK    2  A    between atoms: O_2  and  C_24
REMARK    3  A    between atoms: O_3  and  C_16
REMARK    4  A    between atoms: O_3  and  C_25
REMARK    5  A    between atoms: O_4  and  C_18
REMARK    6  A    between atoms: O_4  and  C_27
REMARK    7  A    between atoms: N_8  and  C_26
REMARK    8  A    between atoms: C_9  and  C_14
REMARK    9  A    between atoms: C_10  and  C_16
REMARK   10  A    between atoms: C_11  and  C_18
REMARK   11  A    between atoms: C_12  and  C_15
REMARK   12  A    between atoms: C_13  and  C_17
REMARK   13  A    between atoms: C_24  and  C_26
REMARK   14  A    between atoms: C_25  and  C_28
REMARK                            x       y       z     vdW  Elec       q    Type
REMARK                         _______ _______ _______ _____ _____    ______ ____
ROOT
ATOM      1  C   UNL     1     179.218 176.851 170.646  0.00  0.00    +0.097 C 
ATOM      2  C   UNL     1     180.746 176.749 170.658  0.00  0.00    +0.065 C 
ATOM      3  C   UNL     1     181.516 177.800 171.022  0.00  0.00    +0.016 C 
ATOM      4  C   UNL     1     183.017 177.791 171.119  0.00  0.00    +0.061 C 
ATOM      5  N   UNL     1     180.917 179.010 171.336  0.00  0.00    -0.319 N 
ATOM      6  H   UNL     1     181.524 179.773 171.612  0.00  0.00    +0.152 HD
ATOM      7  C   UNL     1     179.561 179.274 171.225  0.00  0.00    +0.045 C 
ATOM      8  C   UNL     1     178.712 178.278 170.883  0.00  0.00    +0.068 C 
ENDROOT
BRANCH   1  15
ATOM      9 CL   UNL     1     177.614 174.409 169.650  0.00  0.00    -0.083 Cl
ATOM     10  C   UNL     1     177.896 174.797 171.308  0.00  0.00    +0.045 A 
ATOM     11  C   UNL     1     177.370 173.959 172.290  0.00  0.00    +0.020 A 
ATOM     12  C   UNL     1     177.582 174.247 173.638  0.00  0.00    +0.001 A 
ATOM     13  C   UNL     1     178.320 175.372 174.004  0.00  0.00    +0.000 A 
ATOM     14  C   UNL     1     178.845 176.210 173.022  0.00  0.00    +0.006 A 
ATOM     15  C   UNL     1     178.634 175.923 171.673  0.00  0.00    -0.017 A 
ENDBRANCH   1  15
BRANCH   2  16
ATOM     16  C   UNL     1     181.326 175.472 170.211  0.00  0.00    +0.337 C 
ATOM     17  O   UNL     1     181.410 175.149 169.040  0.00  0.00    -0.245 OA
BRANCH  16  18
ATOM     18  O   UNL     1     181.720 174.775 171.304  0.00  0.00    -0.465 OA
ATOM     19  C   UNL     1     181.317 173.402 171.326  0.00  0.00    +0.280 C 
ENDBRANCH  16  18
ENDBRANCH   2  16
BRANCH   8  20
ATOM     20  C   UNL     1     177.277 178.515 170.658  0.00  0.00    +0.338 C 
ATOM     21  O   UNL     1     176.476 178.676 171.561  0.00  0.00    -0.245 OA
BRANCH  20  22
ATOM     22  O   UNL     1     177.048 178.518 169.323  0.00  0.00    -0.462 OA
BRANCH  22  23
ATOM     23  C   UNL     1     176.071 177.573 168.873  0.00  0.00    +0.229 C 
ATOM     24  C   UNL     1     174.877 178.323 168.323  0.00  0.00    +0.048 C 
ENDBRANCH  22  23
ENDBRANCH  20  22
ENDBRANCH   8  20
BRANCH   7  25
ATOM     25  C   UNL     1     179.165 180.696 171.516  0.00  0.00    +0.211 C 
BRANCH  25  26
ATOM     26  O   UNL     1     179.958 181.201 172.571  0.00  0.00    -0.373 OA
BRANCH  26  27
ATOM     27  C   UNL     1     180.296 182.570 172.372  0.00  0.00    +0.175 C 
BRANCH  27  28
ATOM     28  C   UNL     1     180.539 183.216 173.727  0.00  0.00    +0.106 C 
BRANCH  28  29
ATOM     29  N   UNL     1     179.562 184.264 173.979  0.00  0.00    -0.328 NA
ATOM     30  H   UNL     1     179.082 184.076 174.858  0.00  0.00    +0.118 HD
ATOM     31  H   UNL     1     178.847 184.250 173.253  0.00  0.00    +0.118 HD
ENDBRANCH  28  29
ENDBRANCH  27  28
ENDBRANCH  26  27
ENDBRANCH  25  26
ENDBRANCH   7  25
TORSDOF 11
ENDMDL
