MODEL 1
REMARK VINA RESULT:      -5.6      0.000      0.000
REMARK  5 active torsions:
REMARK  status: ('A' for Active; 'I' for Inactive)
REMARK    1  A    between atoms: C_1  and  O_7 
REMARK    2  A    between atoms: C_2  and  O_13 
REMARK    3  A    between atoms: C_4  and  C_9 
REMARK    4  A    between atoms: C_6  and  O_15 
REMARK    5  A    between atoms: C_9  and  O_11 
ROOT
ATOM      1  C   UNL     1     185.054 184.091 175.220  0.00  0.00     0.201 A 
ATOM      2  C   UNL     1     185.054 185.485 175.174  0.00  0.00     0.163 A 
ATOM      3  C   UNL     1     186.022 186.158 174.431  0.00  0.00     0.064 A 
ATOM      4  C   UNL     1     186.993 185.438 173.734  0.00  0.00     0.066 A 
ATOM      5  C   UNL     1     186.993 184.045 173.780  0.00  0.00     0.064 A 
ATOM      6  C   UNL     1     186.025 183.370 174.523  0.00  0.00     0.163 A 
ENDROOT
BRANCH   4   7
ATOM      7  C   UNL     1     188.003 186.141 172.958  0.00  0.00     0.337 C 
ATOM      8  O   UNL     1     188.349 185.853 171.807  0.00  0.00    -0.245 OA
BRANCH   7   9
ATOM      9  O   UNL     1     188.552 187.183 173.640  0.00  0.00    -0.477 OA
ATOM     10  H   UNL     1     189.476 187.357 173.359  0.00  0.00     0.295 HD
ENDBRANCH   7   9
ENDBRANCH   4   7
BRANCH   2  11
ATOM     11  O   UNL     1     184.110 186.200 175.849  0.00  0.00    -0.503 OA
ATOM     12  H   UNL     1     184.059 187.087 175.453  0.00  0.00     0.292 HD
ENDBRANCH   2  11
BRANCH   6  13
ATOM     13  O   UNL     1     186.036 182.009 174.562  0.00  0.00    -0.503 OA
ATOM     14  H   UNL     1     185.813 181.665 173.679  0.00  0.00     0.292 HD
ENDBRANCH   6  13
BRANCH   1  15
ATOM     15  O   UNL     1     184.107 183.432 175.946  0.00  0.00    -0.501 OA
ATOM     16  H   UNL     1     183.235 183.796 175.715  0.00  0.00     0.292 HD
ENDBRANCH   1  15
TORSDOF 5
ENDMDL
MODEL 2
REMARK VINA RESULT:      -5.6      0.009      2.402
REMARK  5 active torsions:
REMARK  status: ('A' for Active; 'I' for Inactive)
REMARK    1  A    between atoms: C_1  and  O_7 
REMARK    2  A    between atoms: C_2  and  O_13 
REMARK    3  A    between atoms: C_4  and  C_9 
REMARK    4  A    between atoms: C_6  and  O_15 
REMARK    5  A    between atoms: C_9  and  O_11 
ROOT
ATOM      1  C   UNL     1     185.056 184.096 175.214  0.00  0.00     0.201 A 
ATOM      2  C   UNL     1     186.025 183.375 174.515  0.00  0.00     0.163 A 
ATOM      3  C   UNL     1     186.994 184.049 173.772  0.00  0.00     0.064 A 
ATOM      4  C   UNL     1     186.993 185.444 173.726  0.00  0.00     0.066 A 
ATOM      5  C   UNL     1     186.024 186.163 174.424  0.00  0.00     0.064 A 
ATOM      6  C   UNL     1     185.055 185.490 175.168  0.00  0.00     0.163 A 
ENDROOT
BRANCH   4   7
ATOM      7  C   UNL     1     188.004 186.147 172.951  0.00  0.00     0.337 C 
ATOM      8  O   UNL     1     188.348 185.862 171.800  0.00  0.00    -0.245 OA
BRANCH   7   9
ATOM      9  O   UNL     1     188.555 187.185 173.637  0.00  0.00    -0.477 OA
ATOM     10  H   UNL     1     187.883 187.682 174.151  0.00  0.00     0.295 HD
ENDBRANCH   7   9
ENDBRANCH   4   7
BRANCH   2  11
ATOM     11  O   UNL     1     186.038 182.013 174.554  0.00  0.00    -0.503 OA
ATOM     12  H   UNL     1     185.205 181.711 174.954  0.00  0.00     0.292 HD
ENDBRANCH   2  11
BRANCH   6  13
ATOM     13  O   UNL     1     184.113 186.204 175.845  0.00  0.00    -0.503 OA
ATOM     14  H   UNL     1     184.439 186.388 176.743  0.00  0.00     0.292 HD
ENDBRANCH   6  13
BRANCH   1  15
ATOM     15  O   UNL     1     184.109 183.437 175.942  0.00  0.00    -0.501 OA
ATOM     16  H   UNL     1     183.820 184.018 176.666  0.00  0.00     0.292 HD
ENDBRANCH   1  15
TORSDOF 5
ENDMDL
MODEL 3
REMARK VINA RESULT:      -5.5      1.707      4.904
REMARK  5 active torsions:
REMARK  status: ('A' for Active; 'I' for Inactive)
REMARK    1  A    between atoms: C_1  and  O_7 
REMARK    2  A    between atoms: C_2  and  O_13 
REMARK    3  A    between atoms: C_4  and  C_9 
REMARK    4  A    between atoms: C_6  and  O_15 
REMARK    5  A    between atoms: C_9  and  O_11 
ROOT
ATOM      1  C   UNL     1     186.828 184.781 174.746  0.00  0.00     0.201 A 
ATOM      2  C   UNL     1     186.818 183.416 174.457  0.00  0.00     0.163 A 
ATOM      3  C   UNL     1     185.668 182.662 174.689  0.00  0.00     0.064 A 
ATOM      4  C   UNL     1     184.526 183.273 175.210  0.00  0.00     0.066 A 
ATOM      5  C   UNL     1     184.537 184.638 175.498  0.00  0.00     0.064 A 
ATOM      6  C   UNL     1     185.687 185.391 175.267  0.00  0.00     0.163 A 
ENDROOT
BRANCH   4   7
ATOM      7  C   UNL     1     183.326 182.488 175.450  0.00  0.00     0.337 C 
ATOM      8  O   UNL     1     182.255 182.617 174.850  0.00  0.00    -0.245 OA
BRANCH   7   9
ATOM      9  O   UNL     1     183.498 181.563 176.434  0.00  0.00    -0.477 OA
ATOM     10  H   UNL     1     184.147 181.862 177.107  0.00  0.00     0.295 HD
ENDBRANCH   7   9
ENDBRANCH   4   7
BRANCH   2  11
ATOM     11  O   UNL     1     187.925 182.807 173.946  0.00  0.00    -0.503 OA
ATOM     12  H   UNL     1     188.275 182.196 174.617  0.00  0.00     0.292 HD
ENDBRANCH   2  11
BRANCH   6  13
ATOM     13  O   UNL     1     185.685 186.723 175.553  0.00  0.00    -0.503 OA
ATOM     14  H   UNL     1     185.011 187.164 175.007  0.00  0.00     0.292 HD
ENDBRANCH   6  13
BRANCH   1  15
ATOM     15  O   UNL     1     187.952 185.518 174.519  0.00  0.00    -0.501 OA
ATOM     16  H   UNL     1     188.355 185.214 173.687  0.00  0.00     0.292 HD
ENDBRANCH   1  15
TORSDOF 5
ENDMDL
MODEL 4
REMARK VINA RESULT:      -5.5      1.706      4.279
REMARK  5 active torsions:
REMARK  status: ('A' for Active; 'I' for Inactive)
REMARK    1  A    between atoms: C_1  and  O_7 
REMARK    2  A    between atoms: C_2  and  O_13 
REMARK    3  A    between atoms: C_4  and  C_9 
REMARK    4  A    between atoms: C_6  and  O_15 
REMARK    5  A    between atoms: C_9  and  O_11 
ROOT
ATOM      1  C   UNL     1     186.831 184.789 174.748  0.00  0.00     0.201 A 
ATOM      2  C   UNL     1     185.690 185.399 175.271  0.00  0.00     0.163 A 
ATOM      3  C   UNL     1     184.540 184.645 175.503  0.00  0.00     0.064 A 
ATOM      4  C   UNL     1     184.529 183.280 175.211  0.00  0.00     0.066 A 
ATOM      5  C   UNL     1     185.669 182.671 174.689  0.00  0.00     0.064 A 
ATOM      6  C   UNL     1     186.820 183.424 174.457  0.00  0.00     0.163 A 
ENDROOT
BRANCH   4   7
ATOM      7  C   UNL     1     183.330 182.494 175.454  0.00  0.00     0.337 C 
ATOM      8  O   UNL     1     182.255 182.627 174.860  0.00  0.00    -0.245 OA
BRANCH   7   9
ATOM      9  O   UNL     1     183.506 181.565 176.432  0.00  0.00    -0.477 OA
ATOM     10  H   UNL     1     184.069 181.904 177.161  0.00  0.00     0.295 HD
ENDBRANCH   7   9
ENDBRANCH   4   7
BRANCH   2  11
ATOM     11  O   UNL     1     185.688 186.730 175.562  0.00  0.00    -0.503 OA
ATOM     12  H   UNL     1     186.094 186.852 176.437  0.00  0.00     0.292 HD
ENDBRANCH   2  11
BRANCH   6  13
ATOM     13  O   UNL     1     187.927 182.818 173.946  0.00  0.00    -0.503 OA
ATOM     14  H   UNL     1     188.557 183.500 173.656  0.00  0.00     0.292 HD
ENDBRANCH   6  13
BRANCH   1  15
ATOM     15  O   UNL     1     187.955 185.525 174.523  0.00  0.00    -0.501 OA
ATOM     16  H   UNL     1     188.603 184.963 174.062  0.00  0.00     0.292 HD
ENDBRANCH   1  15
TORSDOF 5
ENDMDL
MODEL 5
REMARK VINA RESULT:      -5.4      1.414      2.549
REMARK  5 active torsions:
REMARK  status: ('A' for Active; 'I' for Inactive)
REMARK    1  A    between atoms: C_1  and  O_7 
REMARK    2  A    between atoms: C_2  and  O_13 
REMARK    3  A    between atoms: C_4  and  C_9 
REMARK    4  A    between atoms: C_6  and  O_15 
REMARK    5  A    between atoms: C_9  and  O_11 
ROOT
ATOM      1  C   UNL     1     185.735 185.075 175.178  0.00  0.00     0.201 A 
ATOM      2  C   UNL     1     187.057 184.709 174.926  0.00  0.00     0.163 A 
ATOM      3  C   UNL     1     187.757 185.302 173.876  0.00  0.00     0.064 A 
ATOM      4  C   UNL     1     187.135 186.261 173.076  0.00  0.00     0.066 A 
ATOM      5  C   UNL     1     185.813 186.627 173.328  0.00  0.00     0.064 A 
ATOM      6  C   UNL     1     185.112 186.034 174.378  0.00  0.00     0.163 A 
ENDROOT
BRANCH   4   7
ATOM      7  C   UNL     1     187.865 186.881 171.982  0.00  0.00     0.337 C 
ATOM      8  O   UNL     1     187.682 186.655 170.781  0.00  0.00    -0.245 OA
BRANCH   7   9
ATOM      9  O   UNL     1     188.804 187.765 172.417  0.00  0.00    -0.477 OA
ATOM     10  H   UNL     1     189.640 187.316 172.668  0.00  0.00     0.295 HD
ENDBRANCH   7   9
ENDBRANCH   4   7
BRANCH   2  11
ATOM     11  O   UNL     1     187.677 183.775 175.702  0.00  0.00    -0.503 OA
ATOM     12  H   UNL     1     188.389 183.367 175.178  0.00  0.00     0.292 HD
ENDBRANCH   2  11
BRANCH   6  13
ATOM     13  O   UNL     1     183.821 186.398 174.614  0.00  0.00    -0.503 OA
ATOM     14  H   UNL     1     183.235 185.889 174.026  0.00  0.00     0.292 HD
ENDBRANCH   6  13
BRANCH   1  15
ATOM     15  O   UNL     1     185.050 184.496 176.205  0.00  0.00    -0.501 OA
ATOM     16  H   UNL     1     185.307 184.939 177.033  0.00  0.00     0.292 HD
ENDBRANCH   1  15
TORSDOF 5
ENDMDL
MODEL 6
REMARK VINA RESULT:      -5.4      1.512      1.624
REMARK  5 active torsions:
REMARK  status: ('A' for Active; 'I' for Inactive)
REMARK    1  A    between atoms: C_1  and  O_7 
REMARK    2  A    between atoms: C_2  and  O_13 
REMARK    3  A    between atoms: C_4  and  C_9 
REMARK    4  A    between atoms: C_6  and  O_15 
REMARK    5  A    between atoms: C_9  and  O_11 
ROOT
ATOM      1  C   UNL     1     185.724 185.121 175.159  0.00  0.00     0.201 A 
ATOM      2  C   UNL     1     185.089 186.047 174.330  0.00  0.00     0.163 A 
ATOM      3  C   UNL     1     185.775 186.600 173.249  0.00  0.00     0.064 A 
ATOM      4  C   UNL     1     187.097 186.230 172.997  0.00  0.00     0.066 A 
ATOM      5  C   UNL     1     187.731 185.305 173.826  0.00  0.00     0.064 A 
ATOM      6  C   UNL     1     187.046 184.751 174.907  0.00  0.00     0.163 A 
ENDROOT
BRANCH   4   7
ATOM      7  C   UNL     1     187.812 186.806 171.869  0.00  0.00     0.337 C 
ATOM      8  O   UNL     1     188.826 186.332 171.348  0.00  0.00    -0.245 OA
BRANCH   7   9
ATOM      9  O   UNL     1     187.240 187.958 171.425  0.00  0.00    -0.477 OA
ATOM     10  H   UNL     1     187.567 188.742 171.916  0.00  0.00     0.295 HD
ENDBRANCH   7   9
ENDBRANCH   4   7
BRANCH   2  11
ATOM     11  O   UNL     1     183.798 186.416 174.563  0.00  0.00    -0.503 OA
ATOM     12  H   UNL     1     183.565 187.123 173.938  0.00  0.00     0.292 HD
ENDBRANCH   2  11
BRANCH   6  13
ATOM     13  O   UNL     1     187.676 183.849 175.710  0.00  0.00    -0.503 OA
ATOM     14  H   UNL     1     187.830 183.030 175.208  0.00  0.00     0.292 HD
ENDBRANCH   6  13
BRANCH   1  15
ATOM     15  O   UNL     1     185.053 184.580 176.215  0.00  0.00    -0.501 OA
ATOM     16  H   UNL     1     184.120 184.848 176.156  0.00  0.00     0.292 HD
ENDBRANCH   1  15
TORSDOF 5
ENDMDL
MODEL 7
REMARK VINA RESULT:      -5.3      1.994      4.469
REMARK  5 active torsions:
REMARK  status: ('A' for Active; 'I' for Inactive)
REMARK    1  A    between atoms: C_1  and  O_7 
REMARK    2  A    between atoms: C_2  and  O_13 
REMARK    3  A    between atoms: C_4  and  C_9 
REMARK    4  A    between atoms: C_6  and  O_15 
REMARK    5  A    between atoms: C_9  and  O_11 
ROOT
ATOM      1  C   UNL     1     186.110 186.343 174.344  0.00  0.00     0.201 A 
ATOM      2  C   UNL     1     185.686 185.902 175.598  0.00  0.00     0.163 A 
ATOM      3  C   UNL     1     184.639 184.987 175.699  0.00  0.00     0.064 A 
ATOM      4  C   UNL     1     184.013 184.512 174.545  0.00  0.00     0.066 A 
ATOM      5  C   UNL     1     184.437 184.953 173.292  0.00  0.00     0.064 A 
ATOM      6  C   UNL     1     185.484 185.868 173.191  0.00  0.00     0.163 A 
ENDROOT
BRANCH   4   7
ATOM      7  C   UNL     1     182.922 183.557 174.650  0.00  0.00     0.337 C 
ATOM      8  O   UNL     1     182.975 182.473 175.239  0.00  0.00    -0.245 OA
BRANCH   7   9
ATOM      9  O   UNL     1     181.795 183.984 174.017  0.00  0.00    -0.477 OA
ATOM     10  H   UNL     1     180.989 183.809 174.549  0.00  0.00     0.295 HD
ENDBRANCH   7   9
ENDBRANCH   4   7
BRANCH   2  11
ATOM     11  O   UNL     1     186.290 186.356 176.732  0.00  0.00    -0.503 OA
ATOM     12  H   UNL     1     186.776 185.617 177.137  0.00  0.00     0.292 HD
ENDBRANCH   2  11
BRANCH   6  13
ATOM     13  O   UNL     1     185.888 186.292 171.961  0.00  0.00    -0.503 OA
ATOM     14  H   UNL     1     186.709 186.806 172.056  0.00  0.00     0.292 HD
ENDBRANCH   6  13
BRANCH   1  15
ATOM     15  O   UNL     1     187.134 187.237 174.245  0.00  0.00    -0.501 OA
ATOM     16  H   UNL     1     187.599 187.080 173.405  0.00  0.00     0.292 HD
ENDBRANCH   1  15
TORSDOF 5
ENDMDL
MODEL 8
REMARK VINA RESULT:      -5.2      2.361      3.936
REMARK  5 active torsions:
REMARK  status: ('A' for Active; 'I' for Inactive)
REMARK    1  A    between atoms: C_1  and  O_7 
REMARK    2  A    between atoms: C_2  and  O_13 
REMARK    3  A    between atoms: C_4  and  C_9 
REMARK    4  A    between atoms: C_6  and  O_15 
REMARK    5  A    between atoms: C_9  and  O_11 
ROOT
ATOM      1  C   UNL     1     186.967 184.649 175.457  0.00  0.00     0.201 A 
ATOM      2  C   UNL     1     186.804 183.899 174.292  0.00  0.00     0.163 A 
ATOM      3  C   UNL     1     185.728 184.155 173.442  0.00  0.00     0.064 A 
ATOM      4  C   UNL     1     184.813 185.160 173.758  0.00  0.00     0.066 A 
ATOM      5  C   UNL     1     184.976 185.909 174.923  0.00  0.00     0.064 A 
ATOM      6  C   UNL     1     186.051 185.654 175.773  0.00  0.00     0.163 A 
ENDROOT
BRANCH   4   7
ATOM      7  C   UNL     1     183.692 185.427 172.872  0.00  0.00     0.337 C 
ATOM      8  O   UNL     1     183.758 186.033 171.797  0.00  0.00    -0.245 OA
BRANCH   7   9
ATOM      9  O   UNL     1     182.519 184.931 173.352  0.00  0.00    -0.477 OA
ATOM     10  H   UNL     1     181.753 185.206 172.803  0.00  0.00     0.295 HD
ENDBRANCH   7   9
ENDBRANCH   4   7
BRANCH   2  11
ATOM     11  O   UNL     1     187.692 182.916 173.971  0.00  0.00    -0.503 OA
ATOM     12  H   UNL     1     187.296 182.362 173.277  0.00  0.00     0.292 HD
ENDBRANCH   2  11
BRANCH   6  13
ATOM     13  O   UNL     1     186.199 186.391 176.908  0.00  0.00    -0.503 OA
ATOM     14  H   UNL     1     186.829 185.942 177.499  0.00  0.00     0.292 HD
ENDBRANCH   6  13
BRANCH   1  15
ATOM     15  O   UNL     1     188.019 184.400 176.287  0.00  0.00    -0.501 OA
ATOM     16  H   UNL     1     187.891 184.908 177.107  0.00  0.00     0.292 HD
ENDBRANCH   1  15
TORSDOF 5
ENDMDL
MODEL 9
REMARK VINA RESULT:      -5.2      8.201      8.626
REMARK  5 active torsions:
REMARK  status: ('A' for Active; 'I' for Inactive)
REMARK    1  A    between atoms: C_1  and  O_7 
REMARK    2  A    between atoms: C_2  and  O_13 
REMARK    3  A    between atoms: C_4  and  C_9 
REMARK    4  A    between atoms: C_6  and  O_15 
REMARK    5  A    between atoms: C_9  and  O_11 
ROOT
ATOM      1  C   UNL     1     190.518 183.926 181.474  0.00  0.00     0.201 A 
ATOM      2  C   UNL     1     189.412 184.569 182.030  0.00  0.00     0.163 A 
ATOM      3  C   UNL     1     189.315 185.959 181.981  0.00  0.00     0.064 A 
ATOM      4  C   UNL     1     190.325 186.708 181.377  0.00  0.00     0.066 A 
ATOM      5  C   UNL     1     191.431 186.066 180.820  0.00  0.00     0.064 A 
ATOM      6  C   UNL     1     191.528 184.676 180.869  0.00  0.00     0.163 A 
ENDROOT
BRANCH   4   7
ATOM      7  C   UNL     1     190.224 188.158 181.325  0.00  0.00     0.337 C 
ATOM      8  O   UNL     1     190.620 188.935 182.199  0.00  0.00    -0.245 OA
BRANCH   7   9
ATOM      9  O   UNL     1     189.629 188.597 180.182  0.00  0.00    -0.477 OA
ATOM     10  H   UNL     1     190.208 189.212 179.682  0.00  0.00     0.295 HD
ENDBRANCH   7   9
ENDBRANCH   4   7
BRANCH   2  11
ATOM     11  O   UNL     1     188.418 183.848 182.622  0.00  0.00    -0.503 OA
ATOM     12  H   UNL     1     188.573 182.906 182.438  0.00  0.00     0.292 HD
ENDBRANCH   2  11
BRANCH   6  13
ATOM     13  O   UNL     1     192.613 184.060 180.323  0.00  0.00    -0.503 OA
ATOM     14  H   UNL     1     192.602 183.118 180.571  0.00  0.00     0.292 HD
ENDBRANCH   6  13
BRANCH   1  15
ATOM     15  O   UNL     1     190.613 182.567 181.520  0.00  0.00    -0.501 OA
ATOM     16  H   UNL     1     189.718 182.194 181.435  0.00  0.00     0.292 HD
ENDBRANCH   1  15
TORSDOF 5
ENDMDL
MODEL 10
REMARK VINA RESULT:      -5.2      8.207      8.781
REMARK  5 active torsions:
REMARK  status: ('A' for Active; 'I' for Inactive)
REMARK    1  A    between atoms: C_1  and  O_7 
REMARK    2  A    between atoms: C_2  and  O_13 
REMARK    3  A    between atoms: C_4  and  C_9 
REMARK    4  A    between atoms: C_6  and  O_15 
REMARK    5  A    between atoms: C_9  and  O_11 
ROOT
ATOM      1  C   UNL     1     190.508 183.927 181.479  0.00  0.00     0.201 A 
ATOM      2  C   UNL     1     191.503 184.695 180.873  0.00  0.00     0.163 A 
ATOM      3  C   UNL     1     191.388 186.084 180.840  0.00  0.00     0.064 A 
ATOM      4  C   UNL     1     190.277 186.707 181.411  0.00  0.00     0.066 A 
ATOM      5  C   UNL     1     189.283 185.939 182.015  0.00  0.00     0.064 A 
ATOM      6  C   UNL     1     189.397 184.550 182.050  0.00  0.00     0.163 A 
ENDROOT
BRANCH   4   7
ATOM      7  C   UNL     1     190.158 188.156 181.376  0.00  0.00     0.337 C 
ATOM      8  O   UNL     1     190.461 188.921 182.297  0.00  0.00    -0.245 OA
BRANCH   7   9
ATOM      9  O   UNL     1     189.662 188.609 180.192  0.00  0.00    -0.477 OA
ATOM     10  H   UNL     1     190.377 188.888 179.580  0.00  0.00     0.295 HD
ENDBRANCH   7   9
ENDBRANCH   4   7
BRANCH   2  11
ATOM     11  O   UNL     1     192.594 184.100 180.314  0.00  0.00    -0.503 OA
ATOM     12  H   UNL     1     192.471 183.136 180.358  0.00  0.00     0.292 HD
ENDBRANCH   2  11
BRANCH   6  13
ATOM     13  O   UNL     1     188.419 183.810 182.643  0.00  0.00    -0.503 OA
ATOM     14  H   UNL     1     187.817 183.472 181.957  0.00  0.00     0.292 HD
ENDBRANCH   6  13
BRANCH   1  15
ATOM     15  O   UNL     1     190.621 182.569 181.513  0.00  0.00    -0.501 OA
ATOM     16  H   UNL     1     189.773 182.198 181.812  0.00  0.00     0.292 HD
ENDBRANCH   1  15
TORSDOF 5
ENDMDL
