REMARK  8 active torsions:
REMARK  status: ('A' for Active; 'I' for Inactive)
REMARK    1  A    between atoms: C_2  and  O_3 
REMARK    2  A    between atoms: C_15  and  O_16 
REMARK    3  A    between atoms: C_28  and  C_29 
REMARK    4  A    between atoms: C_33  and  C_34 
REMARK    5  A    between atoms: O_3  and  C_4 
REMARK    6  A    between atoms: C_4  and  C_6 
REMARK    7  A    between atoms: O_16  and  C_17 
REMARK    8  A    between atoms: C_17  and  C_19 
ROOT
ATOM      1  O   LIG     1       2.069  -2.093  -0.413  0.00  0.00    -0.315 OA
ATOM      2  C   LIG     1       2.790  -1.649   0.760  0.00  0.00     0.332 C 
ATOM      3  C   LIG     1       3.887  -0.592   0.444  0.00  0.00     0.244 C 
ATOM      4  C   LIG     1       4.789  -0.997  -0.768  0.00  0.00     0.112 C 
ATOM      5  C   LIG     1       3.926  -1.517  -1.963  0.00  0.00     0.188 C 
ATOM      6  O   LIG     1       3.271  -0.399  -2.571  0.00  0.00    -0.220 OA
ATOM      7  C   LIG     1       2.830  -2.550  -1.553  0.00  0.00     0.182 C 
ENDROOT
BRANCH   2   8
ATOM      8  O   LIG     1       3.332  -2.697   1.580  0.00  0.00    -0.418 OA
BRANCH   8   9
ATOM      9  C   LIG     1       2.657  -3.768   2.098  0.00  0.00     0.343 C 
ATOM     10  O   LIG     1       1.554  -4.092   1.594  0.00  0.00    -0.245 OA
BRANCH   9  11
ATOM     11  C   LIG     1       3.185  -4.479   3.211  0.00  0.00     0.082 A 
ATOM     12  C   LIG     1       4.205  -3.910   4.015  0.00  0.00     0.052 A 
ATOM     13  C   LIG     1       4.644  -4.543   5.195  0.00  0.00     0.238 A 
ATOM     14  C   LIG     1       4.093  -5.783   5.569  0.00  0.00     0.273 A 
ATOM     15  O   LIG     1       5.588  -3.964   5.984  0.00  0.00    -0.283 OA
ATOM     16  O   LIG     1       4.507  -6.369   6.721  0.00  0.00    -0.280 OA
ATOM     17  C   LIG     1       3.124  -6.398   4.749  0.00  0.00     0.238 A 
ATOM     18  C   LIG     1       2.668  -5.743   3.588  0.00  0.00     0.052 A 
ATOM     19  O   LIG     1       2.625  -7.615   5.088  0.00  0.00    -0.283 OA
ENDBRANCH   9  11
ENDBRANCH   8   9
ENDBRANCH   2   8
BRANCH   3  20
ATOM     20  O   LIG     1       3.219   0.665   0.208  0.00  0.00    -0.442 OA
BRANCH  20  21
ATOM     21  C   LIG     1       3.767   1.918   0.219  0.00  0.00     0.341 C 
ATOM     22  O   LIG     1       3.526   2.604  -0.800  0.00  0.00    -0.245 OA
BRANCH  21  23
ATOM     23  C   LIG     1       4.477   2.478   1.320  0.00  0.00     0.082 A 
ATOM     24  C   LIG     1       5.317   3.606   1.142  0.00  0.00     0.052 A 
ATOM     25  C   LIG     1       6.054   4.148   2.215  0.00  0.00     0.238 A 
ATOM     26  O   LIG     1       6.873   5.210   2.000  0.00  0.00    -0.283 OA
ATOM     27  C   LIG     1       5.946   3.579   3.501  0.00  0.00     0.273 A 
ATOM     28  O   LIG     1       6.637   4.078   4.561  0.00  0.00    -0.280 OA
ATOM     29  C   LIG     1       5.107   2.466   3.701  0.00  0.00     0.238 A 
ATOM     30  O   LIG     1       5.016   1.906   4.934  0.00  0.00    -0.283 OA
ATOM     31  C   LIG     1       4.369   1.935   2.623  0.00  0.00     0.052 A 
ENDBRANCH  21  23
ENDBRANCH  20  21
ENDBRANCH   3  20
BRANCH   7  32
ATOM     32  C   LIG     1       3.291  -4.027  -1.409  0.00  0.00     0.214 C 
ATOM     33  O   LIG     1       3.989  -4.464  -2.571  0.00  0.00    -0.218 OA
ENDBRANCH   7  32
BRANCH   4  34
ATOM     34  C   LIG     1       5.960  -1.950  -0.375  0.00  0.00     0.189 C 
ATOM     35  O   LIG     1       6.898  -1.284   0.465  0.00  0.00    -0.220 OA
ENDBRANCH   4  34
TORSDOF 8
