MODEL 1
REMARK VINA RESULT:      -7.7      0.000      0.000
REMARK  6 active torsions:
REMARK  status: ('A' for Active; 'I' for Inactive)
REMARK    1  A    between atoms: O_2  and  C_9 
REMARK    2  A    between atoms: O_4  and  C_14 
REMARK    3  A    between atoms: O_5  and  C_19 
REMARK    4  A    between atoms: O_6  and  C_20 
REMARK    5  A    between atoms: O_7  and  C_22 
REMARK    6  A    between atoms: C_8  and  C_10 
ROOT
HETATM    1  O   UNK     0     150.806 156.989 151.150  0.00  0.00    -0.337 OA
HETATM    2  O   UNK     0     148.292 154.023 149.835  0.00  0.00    -0.289 OA
HETATM    3  C   UNK     0     150.918 155.645 151.642  0.00  0.00     0.198 C 
HETATM    4  C   UNK     0     150.508 154.628 150.576  0.00  0.00     0.227 C 
HETATM    5  C   UNK     0     149.078 154.903 150.164  0.00  0.00     0.196 C 
HETATM    6  C   UNK     0     148.684 156.326 150.146  0.00  0.00     0.079 A 
HETATM    7  C   UNK     0     149.577 157.287 150.624  0.00  0.00     0.089 A 
HETATM    8  C   UNK     0     147.444 156.709 149.628  0.00  0.00     0.085 A 
HETATM    9  C   UNK     0     149.241 158.640 150.552  0.00  0.00     0.074 A 
HETATM   10  C   UNK     0     147.106 158.061 149.577  0.00  0.00     0.074 A 
HETATM   11  C   UNK     0     148.005 159.026 150.033  0.00  0.00     0.071 A 
ENDROOT
BRANCH   3  12
HETATM   12  C   UNK     0     152.354 155.447 152.087  0.00  0.00    -0.023 A 
HETATM   13  C   UNK     0     152.633 155.143 153.417  0.00  0.00     0.049 A 
HETATM   14  C   UNK     0     153.954 154.961 153.827  0.00  0.00     0.099 A 
HETATM   15  C   UNK     0     154.993 155.084 152.905  0.00  0.00     0.098 A 
HETATM   16  C   UNK     0     154.712 155.388 151.572  0.00  0.00     0.040 A 
HETATM   17  C   UNK     0     153.391 155.570 151.164  0.00  0.00     0.013 A 
BRANCH  14  18
HETATM   18  O   UNK     0     154.217 154.664 155.130  0.00  0.00    -0.358 OA
HETATM   19  H   UNK     0     153.481 154.993 155.674  0.00  0.00     0.217 HD
ENDBRANCH  14  18
BRANCH  15  20
HETATM   20  O   UNK     0     156.288 154.907 153.292  0.00  0.00    -0.358 OA
HETATM   21  H   UNK     0     156.606 154.053 152.953  0.00  0.00     0.217 HD
ENDBRANCH  15  20
ENDBRANCH   3  12
BRANCH   4  22
HETATM   22  O   UNK     0     150.570 153.314 151.104  0.00  0.00    -0.385 OA
HETATM   23  H   UNK     0     150.556 152.695 150.354  0.00  0.00     0.210 HD
ENDBRANCH   4  22
BRANCH   8  24
HETATM   24  O   UNK     0     146.535 155.812 149.152  0.00  0.00    -0.360 OA
HETATM   25  H   UNK     0     146.211 155.242 149.865  0.00  0.00     0.217 HD
ENDBRANCH   8  24
BRANCH  11  26
HETATM   26  O   UNK     0     147.675 160.345 149.973  0.00  0.00    -0.361 OA
HETATM   27  H   UNK     0     147.509 160.588 149.046  0.00  0.00     0.217 HD
ENDBRANCH  11  26
TORSDOF 6
ENDMDL
MODEL 2
REMARK VINA RESULT:      -7.6      2.334      6.827
REMARK  6 active torsions:
REMARK  status: ('A' for Active; 'I' for Inactive)
REMARK    1  A    between atoms: O_2  and  C_9 
REMARK    2  A    between atoms: O_4  and  C_14 
REMARK    3  A    between atoms: O_5  and  C_19 
REMARK    4  A    between atoms: O_6  and  C_20 
REMARK    5  A    between atoms: O_7  and  C_22 
REMARK    6  A    between atoms: C_8  and  C_10 
ROOT
HETATM    1  O   UNK     0     151.707 155.616 151.289  0.00  0.00    -0.337 OA
HETATM    2  O   UNK     0     153.312 151.844 151.105  0.00  0.00    -0.289 OA
HETATM    3  C   UNK     0     151.147 154.609 150.432  0.00  0.00     0.198 C 
HETATM    4  C   UNK     0     151.325 153.212 151.028  0.00  0.00     0.227 C 
HETATM    5  C   UNK     0     152.803 152.952 151.224  0.00  0.00     0.196 C 
HETATM    6  C   UNK     0     153.611 154.125 151.610  0.00  0.00     0.079 A 
HETATM    7  C   UNK     0     153.012 155.387 151.636  0.00  0.00     0.089 A 
HETATM    8  C   UNK     0     154.951 153.973 151.974  0.00  0.00     0.085 A 
HETATM    9  C   UNK     0     153.748 156.494 152.062  0.00  0.00     0.074 A 
HETATM   10  C   UNK     0     155.687 155.085 152.380  0.00  0.00     0.074 A 
HETATM   11  C   UNK     0     155.086 156.343 152.429  0.00  0.00     0.071 A 
ENDROOT
BRANCH   3  12
HETATM   12  C   UNK     0     149.684 154.953 150.231  0.00  0.00    -0.023 A 
HETATM   13  C   UNK     0     149.212 155.262 148.957  0.00  0.00     0.049 A 
HETATM   14  C   UNK     0     147.866 155.578 148.772  0.00  0.00     0.099 A 
HETATM   15  C   UNK     0     146.995 155.586 149.861  0.00  0.00     0.098 A 
HETATM   16  C   UNK     0     147.470 155.275 151.136  0.00  0.00     0.040 A 
HETATM   17  C   UNK     0     148.815 154.959 151.321  0.00  0.00     0.013 A 
BRANCH  14  18
HETATM   18  O   UNK     0     147.414 155.879 147.523  0.00  0.00    -0.358 OA
HETATM   19  H   UNK     0     147.265 156.839 147.474  0.00  0.00     0.217 HD
ENDBRANCH  14  18
BRANCH  15  20
HETATM   20  O   UNK     0     145.678 155.892 149.693  0.00  0.00    -0.358 OA
HETATM   21  H   UNK     0     145.228 155.137 149.277  0.00  0.00     0.217 HD
ENDBRANCH  15  20
ENDBRANCH   3  12
BRANCH   4  22
HETATM   22  O   UNK     0     150.819 152.232 150.137  0.00  0.00    -0.385 OA
HETATM   23  H   UNK     0     150.080 152.633 149.650  0.00  0.00     0.210 HD
ENDBRANCH   4  22
BRANCH   8  24
HETATM   24  O   UNK     0     155.585 152.766 151.963  0.00  0.00    -0.360 OA
HETATM   25  H   UNK     0     154.947 152.043 152.062  0.00  0.00     0.217 HD
ENDBRANCH   8  24
BRANCH  11  26
HETATM   26  O   UNK     0     155.805 157.425 152.834  0.00  0.00    -0.361 OA
HETATM   27  H   UNK     0     155.260 157.959 153.438  0.00  0.00     0.217 HD
ENDBRANCH  11  26
TORSDOF 6
ENDMDL
MODEL 3
REMARK VINA RESULT:      -7.5      4.463      7.065
REMARK  6 active torsions:
REMARK  status: ('A' for Active; 'I' for Inactive)
REMARK    1  A    between atoms: O_2  and  C_9 
REMARK    2  A    between atoms: O_4  and  C_14 
REMARK    3  A    between atoms: O_5  and  C_19 
REMARK    4  A    between atoms: O_6  and  C_20 
REMARK    5  A    between atoms: O_7  and  C_22 
REMARK    6  A    between atoms: C_8  and  C_10 
ROOT
HETATM    1  O   UNK     0     154.315 153.636 149.138  0.00  0.00    -0.337 OA
HETATM    2  O   UNK     0     150.639 154.096 150.905  0.00  0.00    -0.289 OA
HETATM    3  C   UNK     0     153.190 152.836 148.739  0.00  0.00     0.198 C 
HETATM    4  C   UNK     0     151.879 153.607 148.892  0.00  0.00     0.227 C 
HETATM    5  C   UNK     0     151.724 154.020 150.340  0.00  0.00     0.196 C 
HETATM    6  C   UNK     0     152.976 154.368 151.040  0.00  0.00     0.079 A 
HETATM    7  C   UNK     0     154.197 154.171 150.392  0.00  0.00     0.089 A 
HETATM    8  C   UNK     0     152.938 154.917 152.325  0.00  0.00     0.085 A 
HETATM    9  C   UNK     0     155.383 154.557 151.019  0.00  0.00     0.074 A 
HETATM   10  C   UNK     0     154.128 155.282 152.954  0.00  0.00     0.074 A 
HETATM   11  C   UNK     0     155.348 155.108 152.301  0.00  0.00     0.071 A 
ENDROOT
BRANCH   3  12
HETATM   12  C   UNK     0     153.428 152.411 147.302  0.00  0.00    -0.023 A 
HETATM   13  C   UNK     0     153.672 151.072 147.007  0.00  0.00     0.049 A 
HETATM   14  C   UNK     0     153.891 150.680 145.685  0.00  0.00     0.099 A 
HETATM   15  C   UNK     0     153.867 151.629 144.664  0.00  0.00     0.098 A 
HETATM   16  C   UNK     0     153.623 152.970 144.962  0.00  0.00     0.040 A 
HETATM   17  C   UNK     0     153.404 153.361 146.283  0.00  0.00     0.013 A 
BRANCH  14  18
HETATM   18  O   UNK     0     154.127 149.368 145.406  0.00  0.00    -0.358 OA
HETATM   19  H   UNK     0     153.605 149.123 144.622  0.00  0.00     0.217 HD
ENDBRANCH  14  18
BRANCH  15  20
HETATM   20  O   UNK     0     154.079 151.259 143.369  0.00  0.00    -0.358 OA
HETATM   21  H   UNK     0     154.670 150.486 143.354  0.00  0.00     0.217 HD
ENDBRANCH  15  20
ENDBRANCH   3  12
BRANCH   4  22
HETATM   22  O   UNK     0     150.781 152.779 148.550  0.00  0.00    -0.385 OA
HETATM   23  H   UNK     0     150.571 152.235 149.327  0.00  0.00     0.210 HD
ENDBRANCH   4  22
BRANCH   8  24
HETATM   24  O   UNK     0     151.775 155.127 153.003  0.00  0.00    -0.360 OA
HETATM   25  H   UNK     0     151.718 154.542 153.774  0.00  0.00     0.217 HD
ENDBRANCH   8  24
BRANCH  11  26
HETATM   26  O   UNK     0     156.507 155.474 152.915  0.00  0.00    -0.361 OA
HETATM   27  H   UNK     0     157.046 155.989 152.291  0.00  0.00     0.217 HD
ENDBRANCH  11  26
TORSDOF 6
ENDMDL
MODEL 4
REMARK VINA RESULT:      -7.5      2.237      3.815
REMARK  6 active torsions:
REMARK  status: ('A' for Active; 'I' for Inactive)
REMARK    1  A    between atoms: O_2  and  C_9 
REMARK    2  A    between atoms: O_4  and  C_14 
REMARK    3  A    between atoms: O_5  and  C_19 
REMARK    4  A    between atoms: O_6  and  C_20 
REMARK    5  A    between atoms: O_7  and  C_22 
REMARK    6  A    between atoms: C_8  and  C_10 
ROOT
HETATM    1  O   UNK     0     151.240 157.302 151.009  0.00  0.00    -0.337 OA
HETATM    2  O   UNK     0     152.274 160.986 152.494  0.00  0.00    -0.289 OA
HETATM    3  C   UNK     0     152.616 157.685 151.161  0.00  0.00     0.198 C 
HETATM    4  C   UNK     0     152.799 158.634 152.346  0.00  0.00     0.227 C 
HETATM    5  C   UNK     0     151.949 159.865 152.118  0.00  0.00     0.196 C 
HETATM    6  C   UNK     0     150.661 159.632 151.436  0.00  0.00     0.079 A 
HETATM    7  C   UNK     0     150.375 158.360 150.936  0.00  0.00     0.089 A 
HETATM    8  C   UNK     0     149.726 160.664 151.319  0.00  0.00     0.085 A 
HETATM    9  C   UNK     0     149.134 158.112 150.347  0.00  0.00     0.074 A 
HETATM   10  C   UNK     0     148.495 160.415 150.712  0.00  0.00     0.074 A 
HETATM   11  C   UNK     0     148.197 159.140 150.231  0.00  0.00     0.071 A 
ENDROOT
BRANCH   3  12
HETATM   12  C   UNK     0     153.421 156.411 151.331  0.00  0.00    -0.023 A 
HETATM   13  C   UNK     0     153.139 155.548 152.388  0.00  0.00     0.049 A 
HETATM   14  C   UNK     0     153.879 154.375 152.546  0.00  0.00     0.099 A 
HETATM   15  C   UNK     0     154.900 154.070 151.647  0.00  0.00     0.098 A 
HETATM   16  C   UNK     0     155.180 154.935 150.588  0.00  0.00     0.040 A 
HETATM   17  C   UNK     0     154.441 156.107 150.432  0.00  0.00     0.013 A 
BRANCH  14  18
HETATM   18  O   UNK     0     153.595 153.538 153.582  0.00  0.00    -0.358 OA
HETATM   19  H   UNK     0     153.277 154.073 154.329  0.00  0.00     0.217 HD
ENDBRANCH  14  18
BRANCH  15  20
HETATM   20  O   UNK     0     155.629 152.927 151.789  0.00  0.00    -0.358 OA
HETATM   21  H   UNK     0     156.385 153.106 152.374  0.00  0.00     0.217 HD
ENDBRANCH  15  20
ENDBRANCH   3  12
BRANCH   4  22
HETATM   22  O   UNK     0     154.153 159.045 152.439  0.00  0.00    -0.385 OA
HETATM   23  H   UNK     0     154.547 158.957 151.554  0.00  0.00     0.210 HD
ENDBRANCH   4  22
BRANCH   8  24
HETATM   24  O   UNK     0     149.956 161.923 151.787  0.00  0.00    -0.360 OA
HETATM   25  H   UNK     0     150.906 162.114 151.805  0.00  0.00     0.217 HD
ENDBRANCH   8  24
BRANCH  11  26
HETATM   26  O   UNK     0     146.992 158.898 149.647  0.00  0.00    -0.361 OA
HETATM   27  H   UNK     0     146.507 159.738 149.564  0.00  0.00     0.217 HD
ENDBRANCH  11  26
TORSDOF 6
ENDMDL
MODEL 5
REMARK VINA RESULT:      -7.4      4.867      6.758
REMARK  6 active torsions:
REMARK  status: ('A' for Active; 'I' for Inactive)
REMARK    1  A    between atoms: O_2  and  C_9 
REMARK    2  A    between atoms: O_4  and  C_14 
REMARK    3  A    between atoms: O_5  and  C_19 
REMARK    4  A    between atoms: O_6  and  C_20 
REMARK    5  A    between atoms: O_7  and  C_22 
REMARK    6  A    between atoms: C_8  and  C_10 
ROOT
HETATM    1  O   UNK     0     154.625 157.397 148.614  0.00  0.00    -0.337 OA
HETATM    2  O   UNK     0     156.242 160.911 149.983  0.00  0.00    -0.289 OA
HETATM    3  C   UNK     0     155.334 157.455 149.861  0.00  0.00     0.198 C 
HETATM    4  C   UNK     0     155.169 158.820 150.530  0.00  0.00     0.227 C 
HETATM    5  C   UNK     0     155.694 159.887 149.594  0.00  0.00     0.196 C 
HETATM    6  C   UNK     0     155.473 159.638 148.156  0.00  0.00     0.079 A 
HETATM    7  C   UNK     0     154.936 158.414 147.751  0.00  0.00     0.089 A 
HETATM    8  C   UNK     0     155.769 160.626 147.214  0.00  0.00     0.085 A 
HETATM    9  C   UNK     0     154.662 158.191 146.401  0.00  0.00     0.074 A 
HETATM   10  C   UNK     0     155.511 160.390 145.864  0.00  0.00     0.074 A 
HETATM   11  C   UNK     0     154.954 159.178 145.458  0.00  0.00     0.071 A 
ENDROOT
BRANCH   3  12
HETATM   12  C   UNK     0     154.802 156.333 150.733  0.00  0.00    -0.023 A 
HETATM   13  C   UNK     0     155.545 155.165 150.890  0.00  0.00     0.049 A 
HETATM   14  C   UNK     0     155.057 154.132 151.692  0.00  0.00     0.099 A 
HETATM   15  C   UNK     0     153.826 154.271 152.333  0.00  0.00     0.098 A 
HETATM   16  C   UNK     0     153.084 155.442 152.175  0.00  0.00     0.040 A 
HETATM   17  C   UNK     0     153.573 156.473 151.373  0.00  0.00     0.013 A 
BRANCH  14  18
HETATM   18  O   UNK     0     155.791 152.995 151.840  0.00  0.00    -0.358 OA
HETATM   19  H   UNK     0     155.963 152.863 152.788  0.00  0.00     0.217 HD
ENDBRANCH  14  18
BRANCH  15  20
HETATM   20  O   UNK     0     153.339 153.270 153.120  0.00  0.00    -0.358 OA
HETATM   21  H   UNK     0     153.846 153.245 153.949  0.00  0.00     0.217 HD
ENDBRANCH  15  20
ENDBRANCH   3  12
BRANCH   4  22
HETATM   22  O   UNK     0     155.925 158.872 151.728  0.00  0.00    -0.385 OA
HETATM   23  H   UNK     0     156.832 158.595 151.514  0.00  0.00     0.210 HD
ENDBRANCH   4  22
BRANCH   8  24
HETATM   24  O   UNK     0     156.296 161.835 147.555  0.00  0.00    -0.360 OA
HETATM   25  H   UNK     0     155.999 162.524 146.941  0.00  0.00     0.217 HD
ENDBRANCH   8  24
BRANCH  11  26
HETATM   26  O   UNK     0     154.696 158.955 144.140  0.00  0.00    -0.361 OA
HETATM   27  H   UNK     0     154.892 159.765 143.638  0.00  0.00     0.217 HD
ENDBRANCH  11  26
TORSDOF 6
ENDMDL
MODEL 6
REMARK VINA RESULT:      -7.2      9.482     12.426
REMARK  6 active torsions:
REMARK  status: ('A' for Active; 'I' for Inactive)
REMARK    1  A    between atoms: O_2  and  C_9 
REMARK    2  A    between atoms: O_4  and  C_14 
REMARK    3  A    between atoms: O_5  and  C_19 
REMARK    4  A    between atoms: O_6  and  C_20 
REMARK    5  A    between atoms: O_7  and  C_22 
REMARK    6  A    between atoms: C_8  and  C_10 
ROOT
HETATM    1  O   UNK     0     149.765 149.384 142.438  0.00  0.00    -0.337 OA
HETATM    2  O   UNK     0     148.892 151.221 146.003  0.00  0.00    -0.289 OA
HETATM    3  C   UNK     0     148.738 148.879 143.305  0.00  0.00     0.198 C 
HETATM    4  C   UNK     0     148.066 150.009 144.086  0.00  0.00     0.227 C 
HETATM    5  C   UNK     0     149.117 150.726 144.904  0.00  0.00     0.196 C 
HETATM    6  C   UNK     0     150.449 150.832 144.278  0.00  0.00     0.079 A 
HETATM    7  C   UNK     0     150.691 150.168 143.073  0.00  0.00     0.089 A 
HETATM    8  C   UNK     0     151.449 151.611 144.868  0.00  0.00     0.085 A 
HETATM    9  C   UNK     0     151.926 150.313 142.439  0.00  0.00     0.074 A 
HETATM   10  C   UNK     0     152.687 151.736 144.239  0.00  0.00     0.074 A 
HETATM   11  C   UNK     0     152.924 151.093 143.024  0.00  0.00     0.071 A 
ENDROOT
BRANCH   3  12
HETATM   12  C   UNK     0     147.747 148.128 142.437  0.00  0.00    -0.023 A 
HETATM   13  C   UNK     0     147.642 146.742 142.543  0.00  0.00     0.049 A 
HETATM   14  C   UNK     0     146.730 146.050 141.745  0.00  0.00     0.099 A 
HETATM   15  C   UNK     0     145.927 146.746 140.842  0.00  0.00     0.098 A 
HETATM   16  C   UNK     0     146.033 148.133 140.737  0.00  0.00     0.040 A 
HETATM   17  C   UNK     0     146.944 148.824 141.535  0.00  0.00     0.013 A 
BRANCH  14  18
HETATM   18  O   UNK     0     146.635 144.697 141.855  0.00  0.00    -0.358 OA
HETATM   19  H   UNK     0     147.469 144.360 142.226  0.00  0.00     0.217 HD
ENDBRANCH  14  18
BRANCH  15  20
HETATM   20  O   UNK     0     145.032 146.082 140.057  0.00  0.00    -0.358 OA
HETATM   21  H   UNK     0     144.188 146.566 140.061  0.00  0.00     0.217 HD
ENDBRANCH  15  20
ENDBRANCH   3  12
BRANCH   4  22
HETATM   22  O   UNK     0     147.099 149.479 144.977  0.00  0.00    -0.385 OA
HETATM   23  H   UNK     0     147.485 149.488 145.869  0.00  0.00     0.210 HD
ENDBRANCH   4  22
BRANCH   8  24
HETATM   24  O   UNK     0     151.267 152.276 146.043  0.00  0.00    -0.360 OA
HETATM   25  H   UNK     0     150.379 152.111 146.396  0.00  0.00     0.217 HD
ENDBRANCH   8  24
BRANCH  11  26
HETATM   26  O   UNK     0     154.131 151.225 142.409  0.00  0.00    -0.361 OA
HETATM   27  H   UNK     0     154.064 150.877 141.503  0.00  0.00     0.217 HD
ENDBRANCH  11  26
TORSDOF 6
ENDMDL
MODEL 7
REMARK VINA RESULT:      -7.1      9.842     11.332
REMARK  6 active torsions:
REMARK  status: ('A' for Active; 'I' for Inactive)
REMARK    1  A    between atoms: O_2  and  C_9 
REMARK    2  A    between atoms: O_4  and  C_14 
REMARK    3  A    between atoms: O_5  and  C_19 
REMARK    4  A    between atoms: O_6  and  C_20 
REMARK    5  A    between atoms: O_7  and  C_22 
REMARK    6  A    between atoms: C_8  and  C_10 
ROOT
HETATM    1  O   UNK     0     149.801 149.451 143.133  0.00  0.00    -0.337 OA
HETATM    2  O   UNK     0     150.462 146.244 140.660  0.00  0.00    -0.289 OA
HETATM    3  C   UNK     0     150.865 148.522 143.387  0.00  0.00     0.198 C 
HETATM    4  C   UNK     0     151.418 147.942 142.084  0.00  0.00     0.227 C 
HETATM    5  C   UNK     0     150.295 147.244 141.348  0.00  0.00     0.196 C 
HETATM    6  C   UNK     0     148.964 147.869 141.477  0.00  0.00     0.079 A 
HETATM    7  C   UNK     0     148.798 148.946 142.350  0.00  0.00     0.089 A 
HETATM    8  C   UNK     0     147.889 147.407 140.712  0.00  0.00     0.085 A 
HETATM    9  C   UNK     0     147.560 149.586 142.432  0.00  0.00     0.074 A 
HETATM   10  C   UNK     0     146.649 148.038 140.813  0.00  0.00     0.074 A 
HETATM   11  C   UNK     0     146.486 149.128 141.667  0.00  0.00     0.071 A 
ENDROOT
BRANCH   3  12
HETATM   12  C   UNK     0     151.932 149.263 144.170  0.00  0.00    -0.023 A 
HETATM   13  C   UNK     0     152.583 150.352 143.596  0.00  0.00     0.049 A 
HETATM   14  C   UNK     0     153.565 151.035 144.315  0.00  0.00     0.099 A 
HETATM   15  C   UNK     0     153.893 150.625 145.607  0.00  0.00     0.098 A 
HETATM   16  C   UNK     0     153.239 149.534 146.181  0.00  0.00     0.040 A 
HETATM   17  C   UNK     0     152.258 148.852 145.461  0.00  0.00     0.013 A 
BRANCH  14  18
HETATM   18  O   UNK     0     154.196 152.098 143.746  0.00  0.00    -0.358 OA
HETATM   19  H   UNK     0     154.972 151.770 143.260  0.00  0.00     0.217 HD
ENDBRANCH  14  18
BRANCH  15  20
HETATM   20  O   UNK     0     154.849 151.283 146.321  0.00  0.00    -0.358 OA
HETATM   21  H   UNK     0     154.467 151.578 147.165  0.00  0.00     0.217 HD
ENDBRANCH  15  20
ENDBRANCH   3  12
BRANCH   4  22
HETATM   22  O   UNK     0     152.425 146.984 142.363  0.00  0.00    -0.385 OA
HETATM   23  H   UNK     0     152.172 146.156 141.922  0.00  0.00     0.210 HD
ENDBRANCH   4  22
BRANCH   8  24
HETATM   24  O   UNK     0     147.996 146.358 139.849  0.00  0.00    -0.360 OA
HETATM   25  H   UNK     0     148.638 145.710 140.176  0.00  0.00     0.217 HD
ENDBRANCH   8  24
BRANCH  11  26
HETATM   26  O   UNK     0     145.276 149.747 141.756  0.00  0.00    -0.361 OA
HETATM   27  H   UNK     0     145.078 149.919 142.693  0.00  0.00     0.217 HD
ENDBRANCH  11  26
TORSDOF 6
ENDMDL
MODEL 8
REMARK VINA RESULT:      -7.1      1.701      2.193
REMARK  6 active torsions:
REMARK  status: ('A' for Active; 'I' for Inactive)
REMARK    1  A    between atoms: O_2  and  C_9 
REMARK    2  A    between atoms: O_4  and  C_14 
REMARK    3  A    between atoms: O_5  and  C_19 
REMARK    4  A    between atoms: O_6  and  C_20 
REMARK    5  A    between atoms: O_7  and  C_22 
REMARK    6  A    between atoms: C_8  and  C_10 
ROOT
HETATM    1  O   UNK     0     149.893 157.645 150.740  0.00  0.00    -0.337 OA
HETATM    2  O   UNK     0     148.668 154.130 149.012  0.00  0.00    -0.289 OA
HETATM    3  C   UNK     0     150.500 156.392 151.090  0.00  0.00     0.198 C 
HETATM    4  C   UNK     0     150.499 155.425 149.905  0.00  0.00     0.227 C 
HETATM    5  C   UNK     0     149.069 155.195 149.467  0.00  0.00     0.196 C 
HETATM    6  C   UNK     0     148.171 156.361 149.585  0.00  0.00     0.079 A 
HETATM    7  C   UNK     0     148.640 157.523 150.200  0.00  0.00     0.089 A 
HETATM    8  C   UNK     0     146.876 156.312 149.061  0.00  0.00     0.085 A 
HETATM    9  C   UNK     0     147.822 158.653 150.260  0.00  0.00     0.074 A 
HETATM   10  C   UNK     0     146.057 157.438 149.141  0.00  0.00     0.074 A 
HETATM   11  C   UNK     0     146.530 158.608 149.735  0.00  0.00     0.071 A 
ENDROOT
BRANCH   3  12
HETATM   12  C   UNK     0     151.907 156.692 151.569  0.00  0.00    -0.023 A 
HETATM   13  C   UNK     0     152.598 157.786 151.051  0.00  0.00     0.049 A 
HETATM   14  C   UNK     0     153.893 158.064 151.491  0.00  0.00     0.099 A 
HETATM   15  C   UNK     0     154.494 157.245 152.447  0.00  0.00     0.098 A 
HETATM   16  C   UNK     0     153.800 156.151 152.965  0.00  0.00     0.040 A 
HETATM   17  C   UNK     0     152.506 155.874 152.525  0.00  0.00     0.013 A 
BRANCH  14  18
HETATM   18  O   UNK     0     154.559 159.135 150.979  0.00  0.00    -0.358 OA
HETATM   19  H   UNK     0     154.701 158.982 150.029  0.00  0.00     0.217 HD
ENDBRANCH  14  18
BRANCH  15  20
HETATM   20  O   UNK     0     155.757 157.506 152.886  0.00  0.00    -0.358 OA
HETATM   21  H   UNK     0     155.785 157.400 153.853  0.00  0.00     0.217 HD
ENDBRANCH  15  20
ENDBRANCH   3  12
BRANCH   4  22
HETATM   22  O   UNK     0     151.048 154.177 150.290  0.00  0.00    -0.385 OA
HETATM   23  H   UNK     0     150.701 153.964 151.173  0.00  0.00     0.210 HD
ENDBRANCH   4  22
BRANCH   8  24
HETATM   24  O   UNK     0     146.368 155.203 148.454  0.00  0.00    -0.360 OA
HETATM   25  H   UNK     0     146.794 154.402 148.794  0.00  0.00     0.217 HD
ENDBRANCH   8  24
BRANCH  11  26
HETATM   26  O   UNK     0     145.731 159.707 149.804  0.00  0.00    -0.361 OA
HETATM   27  H   UNK     0     146.134 160.354 150.409  0.00  0.00     0.217 HD
ENDBRANCH  11  26
TORSDOF 6
ENDMDL
MODEL 9
REMARK VINA RESULT:      -7.1      2.187      7.437
REMARK  6 active torsions:
REMARK  status: ('A' for Active; 'I' for Inactive)
REMARK    1  A    between atoms: O_2  and  C_9 
REMARK    2  A    between atoms: O_4  and  C_14 
REMARK    3  A    between atoms: O_5  and  C_19 
REMARK    4  A    between atoms: O_6  and  C_20 
REMARK    5  A    between atoms: O_7  and  C_22 
REMARK    6  A    between atoms: C_8  and  C_10 
ROOT
HETATM    1  O   UNK     0     151.513 156.960 151.340  0.00  0.00    -0.337 OA
HETATM    2  O   UNK     0     155.005 159.031 151.940  0.00  0.00    -0.289 OA
HETATM    3  C   UNK     0     151.513 158.385 151.521  0.00  0.00     0.198 C 
HETATM    4  C   UNK     0     152.794 159.013 150.972  0.00  0.00     0.227 C 
HETATM    5  C   UNK     0     153.980 158.408 151.691  0.00  0.00     0.196 C 
HETATM    6  C   UNK     0     153.846 156.982 152.051  0.00  0.00     0.079 A 
HETATM    7  C   UNK     0     152.625 156.338 151.839  0.00  0.00     0.089 A 
HETATM    8  C   UNK     0     154.936 156.278 152.569  0.00  0.00     0.085 A 
HETATM    9  C   UNK     0     152.506 154.974 152.116  0.00  0.00     0.074 A 
HETATM   10  C   UNK     0     154.805 154.921 152.861  0.00  0.00     0.074 A 
HETATM   11  C   UNK     0     153.595 154.268 152.630  0.00  0.00     0.071 A 
ENDROOT
BRANCH   3  12
HETATM   12  C   UNK     0     150.278 158.926 150.827  0.00  0.00    -0.023 A 
HETATM   13  C   UNK     0     149.786 158.288 149.690  0.00  0.00     0.049 A 
HETATM   14  C   UNK     0     148.649 158.785 149.050  0.00  0.00     0.099 A 
HETATM   15  C   UNK     0     148.010 159.920 149.549  0.00  0.00     0.098 A 
HETATM   16  C   UNK     0     148.504 160.557 150.687  0.00  0.00     0.040 A 
HETATM   17  C   UNK     0     149.640 160.059 151.326  0.00  0.00     0.013 A 
BRANCH  14  18
HETATM   18  O   UNK     0     148.175 158.155 147.940  0.00  0.00    -0.358 OA
HETATM   19  H   UNK     0     148.664 158.487 147.167  0.00  0.00     0.217 HD
ENDBRANCH  14  18
BRANCH  15  20
HETATM   20  O   UNK     0     146.899 160.415 148.934  0.00  0.00    -0.358 OA
HETATM   21  H   UNK     0     146.171 159.777 149.034  0.00  0.00     0.217 HD
ENDBRANCH  15  20
ENDBRANCH   3  12
BRANCH   4  22
HETATM   22  O   UNK     0     152.797 160.410 151.216  0.00  0.00    -0.385 OA
HETATM   23  H   UNK     0     153.672 160.644 151.569  0.00  0.00     0.210 HD
ENDBRANCH   4  22
BRANCH   8  24
HETATM   24  O   UNK     0     156.147 156.860 152.798  0.00  0.00    -0.360 OA
HETATM   25  H   UNK     0     156.270 157.632 152.225  0.00  0.00     0.217 HD
ENDBRANCH   8  24
BRANCH  11  26
HETATM   26  O   UNK     0     153.473 152.942 152.909  0.00  0.00    -0.361 OA
HETATM   27  H   UNK     0     153.264 152.835 153.853  0.00  0.00     0.217 HD
ENDBRANCH  11  26
TORSDOF 6
ENDMDL
MODEL 10
REMARK VINA RESULT:      -7.1      1.962      3.878
REMARK  6 active torsions:
REMARK  status: ('A' for Active; 'I' for Inactive)
REMARK    1  A    between atoms: O_2  and  C_9 
REMARK    2  A    between atoms: O_4  and  C_14 
REMARK    3  A    between atoms: O_5  and  C_19 
REMARK    4  A    between atoms: O_6  and  C_20 
REMARK    5  A    between atoms: O_7  and  C_22 
REMARK    6  A    between atoms: C_8  and  C_10 
ROOT
HETATM    1  O   UNK     0     150.057 157.070 150.731  0.00  0.00    -0.337 OA
HETATM    2  O   UNK     0     148.538 160.871 150.433  0.00  0.00    -0.289 OA
HETATM    3  C   UNK     0     150.919 158.206 150.561  0.00  0.00     0.198 C 
HETATM    4  C   UNK     0     150.328 159.454 151.217  0.00  0.00     0.227 C 
HETATM    5  C   UNK     0     148.979 159.739 150.594  0.00  0.00     0.196 C 
HETATM    6  C   UNK     0     148.189 158.551 150.214  0.00  0.00     0.079 A 
HETATM    7  C   UNK     0     148.768 157.285 150.320  0.00  0.00     0.089 A 
HETATM    8  C   UNK     0     146.868 158.690 149.781  0.00  0.00     0.085 A 
HETATM    9  C   UNK     0     148.010 156.151 150.025  0.00  0.00     0.074 A 
HETATM   10  C   UNK     0     146.122 157.554 149.469  0.00  0.00     0.074 A 
HETATM   11  C   UNK     0     146.689 156.286 149.596  0.00  0.00     0.071 A 
ENDROOT
BRANCH   3  12
HETATM   12  C   UNK     0     152.265 157.841 151.156  0.00  0.00    -0.023 A 
HETATM   13  C   UNK     0     153.436 158.289 150.549  0.00  0.00     0.049 A 
HETATM   14  C   UNK     0     154.676 157.954 151.096  0.00  0.00     0.099 A 
HETATM   15  C   UNK     0     154.740 157.170 152.248  0.00  0.00     0.098 A 
HETATM   16  C   UNK     0     153.566 156.723 152.854  0.00  0.00     0.040 A 
HETATM   17  C   UNK     0     152.328 157.058 152.307  0.00  0.00     0.013 A 
BRANCH  14  18
HETATM   18  O   UNK     0     155.815 158.397 150.496  0.00  0.00    -0.358 OA
HETATM   19  H   UNK     0     155.571 159.060 149.827  0.00  0.00     0.217 HD
ENDBRANCH  14  18
BRANCH  15  20
HETATM   20  O   UNK     0     155.944 156.837 152.792  0.00  0.00    -0.358 OA
HETATM   21  H   UNK     0     156.078 155.878 152.701  0.00  0.00     0.217 HD
ENDBRANCH  15  20
ENDBRANCH   3  12
BRANCH   4  22
HETATM   22  O   UNK     0     151.167 160.573 150.985  0.00  0.00    -0.385 OA
HETATM   23  H   UNK     0     152.075 160.242 150.883  0.00  0.00     0.210 HD
ENDBRANCH   4  22
BRANCH   8  24
HETATM   24  O   UNK     0     146.256 159.901 149.656  0.00  0.00    -0.360 OA
HETATM   25  H   UNK     0     146.877 160.620 149.849  0.00  0.00     0.217 HD
ENDBRANCH   8  24
BRANCH  11  26
HETATM   26  O   UNK     0     145.955 155.179 149.298  0.00  0.00    -0.361 OA
HETATM   27  H   UNK     0     145.480 155.330 148.463  0.00  0.00     0.217 HD
ENDBRANCH  11  26
TORSDOF 6
ENDMDL
