MODEL 1
REMARK VINA RESULT:      -7.9      0.000      0.000
REMARK  5 active torsions:
REMARK  status: ('A' for Active; 'I' for Inactive)
REMARK    1  A    between atoms: O_2  and  C_13 
REMARK    2  A    between atoms: O_4  and  C_16 
REMARK    3  A    between atoms: O_5  and  C_19 
REMARK    4  A    between atoms: O_6  and  C_21 
REMARK    5  A    between atoms: C_9  and  C_10 
ROOT
HETATM    1  O   UNK     0     149.931 157.600 150.790  0.00  0.00    -0.309 OA
HETATM    2  O   UNK     0     147.880 154.120 150.256  0.00  0.00    -0.287 OA
HETATM    3  C   UNK     0     147.871 156.481 150.154  0.00  0.00     0.081 A 
HETATM    4  C   UNK     0     148.630 157.632 150.356  0.00  0.00     0.095 A 
HETATM    5  C   UNK     0     150.512 156.367 151.046  0.00  0.00     0.090 A 
HETATM    6  C   UNK     0     148.487 155.170 150.415  0.00  0.00     0.190 A 
HETATM    7  C   UNK     0     149.888 155.189 150.883  0.00  0.00     0.094 A 
HETATM    8  C   UNK     0     146.550 156.575 149.710  0.00  0.00     0.085 A 
HETATM    9  C   UNK     0     148.072 158.887 150.115  0.00  0.00     0.075 A 
HETATM   10  C   UNK     0     146.752 158.985 149.671  0.00  0.00     0.071 A 
HETATM   11  C   UNK     0     145.994 157.831 149.470  0.00  0.00     0.074 A 
ENDROOT
BRANCH   5  12
HETATM   12  C   UNK     0     151.914 156.446 151.502  0.00  0.00     0.001 A 
HETATM   13  C   UNK     0     152.483 157.684 151.810  0.00  0.00     0.053 A 
HETATM   14  C   UNK     0     153.807 157.759 152.241  0.00  0.00     0.099 A 
HETATM   15  C   UNK     0     154.567 156.596 152.365  0.00  0.00     0.098 A 
HETATM   16  C   UNK     0     154.003 155.359 152.057  0.00  0.00     0.040 A 
HETATM   17  C   UNK     0     152.678 155.284 151.626  0.00  0.00     0.017 A 
BRANCH  14  18
HETATM   18  O   UNK     0     154.348 158.974 152.538  0.00  0.00    -0.358 OA
HETATM   19  H   UNK     0     153.870 159.654 152.033  0.00  0.00     0.217 HD
ENDBRANCH  14  18
BRANCH  15  20
HETATM   20  O   UNK     0     155.861 156.656 152.786  0.00  0.00    -0.358 OA
HETATM   21  H   UNK     0     155.946 156.165 153.620  0.00  0.00     0.217 HD
ENDBRANCH  15  20
ENDBRANCH   5  12
BRANCH   8  22
HETATM   22  O   UNK     0     145.768 155.480 149.498  0.00  0.00    -0.360 OA
HETATM   23  H   UNK     0     144.834 155.734 149.448  0.00  0.00     0.217 HD
ENDBRANCH   8  22
BRANCH  10  24
HETATM   24  O   UNK     0     146.204 160.209 149.434  0.00  0.00    -0.361 OA
HETATM   25  H   UNK     0     145.984 160.278 148.489  0.00  0.00     0.217 HD
ENDBRANCH  10  24
TORSDOF 5
ENDMDL
MODEL 2
REMARK VINA RESULT:      -7.8      0.774      1.341
REMARK  5 active torsions:
REMARK  status: ('A' for Active; 'I' for Inactive)
REMARK    1  A    between atoms: O_2  and  C_13 
REMARK    2  A    between atoms: O_4  and  C_16 
REMARK    3  A    between atoms: O_5  and  C_19 
REMARK    4  A    between atoms: O_6  and  C_21 
REMARK    5  A    between atoms: C_9  and  C_10 
ROOT
HETATM    1  O   UNK     0     150.016 157.572 150.822  0.00  0.00    -0.309 OA
HETATM    2  O   UNK     0     147.961 154.087 150.347  0.00  0.00    -0.287 OA
HETATM    3  C   UNK     0     147.952 156.445 150.211  0.00  0.00     0.081 A 
HETATM    4  C   UNK     0     148.713 157.599 150.394  0.00  0.00     0.095 A 
HETATM    5  C   UNK     0     150.597 156.343 151.092  0.00  0.00     0.090 A 
HETATM    6  C   UNK     0     148.568 155.138 150.488  0.00  0.00     0.190 A 
HETATM    7  C   UNK     0     149.972 155.163 150.949  0.00  0.00     0.094 A 
HETATM    8  C   UNK     0     146.629 156.534 149.773  0.00  0.00     0.085 A 
HETATM    9  C   UNK     0     148.153 158.850 150.137  0.00  0.00     0.075 A 
HETATM   10  C   UNK     0     146.832 158.943 149.698  0.00  0.00     0.071 A 
HETATM   11  C   UNK     0     146.072 157.787 149.517  0.00  0.00     0.074 A 
ENDROOT
BRANCH   5  12
HETATM   12  C   UNK     0     152.001 156.428 151.540  0.00  0.00     0.001 A 
HETATM   13  C   UNK     0     152.450 155.633 152.597  0.00  0.00     0.053 A 
HETATM   14  C   UNK     0     153.777 155.713 153.021  0.00  0.00     0.099 A 
HETATM   15  C   UNK     0     154.659 156.590 152.388  0.00  0.00     0.098 A 
HETATM   16  C   UNK     0     154.214 157.386 151.333  0.00  0.00     0.040 A 
HETATM   17  C   UNK     0     152.887 157.305 150.910  0.00  0.00     0.017 A 
BRANCH  14  18
HETATM   18  O   UNK     0     154.200 154.932 154.054  0.00  0.00    -0.358 OA
HETATM   19  H   UNK     0     154.357 154.034 153.714  0.00  0.00     0.217 HD
ENDBRANCH  14  18
BRANCH  15  20
HETATM   20  O   UNK     0     155.957 156.677 152.792  0.00  0.00    -0.358 OA
HETATM   21  H   UNK     0     156.264 155.795 153.063  0.00  0.00     0.217 HD
ENDBRANCH  15  20
ENDBRANCH   5  12
BRANCH   8  22
HETATM   22  O   UNK     0     145.846 155.436 149.579  0.00  0.00    -0.360 OA
HETATM   23  H   UNK     0     145.429 155.165 150.412  0.00  0.00     0.217 HD
ENDBRANCH   8  22
BRANCH  10  24
HETATM   24  O   UNK     0     146.283 160.164 149.446  0.00  0.00    -0.361 OA
HETATM   25  H   UNK     0     146.469 160.754 150.196  0.00  0.00     0.217 HD
ENDBRANCH  10  24
TORSDOF 5
ENDMDL
MODEL 3
REMARK VINA RESULT:      -7.7      1.400      7.521
REMARK  5 active torsions:
REMARK  status: ('A' for Active; 'I' for Inactive)
REMARK    1  A    between atoms: O_2  and  C_13 
REMARK    2  A    between atoms: O_4  and  C_16 
REMARK    3  A    between atoms: O_5  and  C_19 
REMARK    4  A    between atoms: O_6  and  C_21 
REMARK    5  A    between atoms: C_9  and  C_10 
ROOT
HETATM    1  O   UNK     0     151.781 155.434 151.161  0.00  0.00    -0.309 OA
HETATM    2  O   UNK     0     153.740 158.856 152.185  0.00  0.00    -0.287 OA
HETATM    3  C   UNK     0     153.826 156.511 151.911  0.00  0.00     0.081 A 
HETATM    4  C   UNK     0     153.097 155.380 151.548  0.00  0.00     0.095 A 
HETATM    5  C   UNK     0     151.149 156.668 151.141  0.00  0.00     0.090 A 
HETATM    6  C   UNK     0     153.161 157.823 151.882  0.00  0.00     0.190 A 
HETATM    7  C   UNK     0     151.744 157.827 151.462  0.00  0.00     0.094 A 
HETATM    8  C   UNK     0     155.163 156.395 152.296  0.00  0.00     0.085 A 
HETATM    9  C   UNK     0     153.703 154.124 151.565  0.00  0.00     0.075 A 
HETATM   10  C   UNK     0     155.039 154.005 151.948  0.00  0.00     0.071 A 
HETATM   11  C   UNK     0     155.767 155.138 152.313  0.00  0.00     0.074 A 
ENDROOT
BRANCH   5  12
HETATM   12  C   UNK     0     149.740 156.613 150.706  0.00  0.00     0.001 A 
HETATM   13  C   UNK     0     149.073 155.387 150.636  0.00  0.00     0.053 A 
HETATM   14  C   UNK     0     147.742 155.335 150.225  0.00  0.00     0.099 A 
HETATM   15  C   UNK     0     147.071 156.509 149.883  0.00  0.00     0.098 A 
HETATM   16  C   UNK     0     147.733 157.735 149.950  0.00  0.00     0.040 A 
HETATM   17  C   UNK     0     149.065 157.787 150.362  0.00  0.00     0.017 A 
BRANCH  14  18
HETATM   18  O   UNK     0     147.105 154.131 150.161  0.00  0.00    -0.358 OA
HETATM   19  H   UNK     0     147.715 153.484 149.767  0.00  0.00     0.217 HD
ENDBRANCH  14  18
BRANCH  15  20
HETATM   20  O   UNK     0     145.770 156.472 149.481  0.00  0.00    -0.358 OA
HETATM   21  H   UNK     0     145.506 155.545 149.349  0.00  0.00     0.217 HD
ENDBRANCH  15  20
ENDBRANCH   5  12
BRANCH   8  22
HETATM   22  O   UNK     0     155.917 157.470 152.659  0.00  0.00    -0.360 OA
HETATM   23  H   UNK     0     156.836 157.354 152.370  0.00  0.00     0.217 HD
ENDBRANCH   8  22
BRANCH  10  24
HETATM   24  O   UNK     0     155.635 152.780 151.966  0.00  0.00    -0.361 OA
HETATM   25  H   UNK     0     156.503 152.857 152.396  0.00  0.00     0.217 HD
ENDBRANCH  10  24
TORSDOF 5
ENDMDL
MODEL 4
REMARK VINA RESULT:      -7.6      1.392      7.201
REMARK  5 active torsions:
REMARK  status: ('A' for Active; 'I' for Inactive)
REMARK    1  A    between atoms: O_2  and  C_13 
REMARK    2  A    between atoms: O_4  and  C_16 
REMARK    3  A    between atoms: O_5  and  C_19 
REMARK    4  A    between atoms: O_6  and  C_21 
REMARK    5  A    between atoms: C_9  and  C_10 
ROOT
HETATM    1  O   UNK     0     150.685 156.218 151.228  0.00  0.00    -0.309 OA
HETATM    2  O   UNK     0     153.069 159.424 152.025  0.00  0.00    -0.287 OA
HETATM    3  C   UNK     0     152.781 157.080 152.101  0.00  0.00     0.081 A 
HETATM    4  C   UNK     0     151.917 156.029 151.801  0.00  0.00     0.095 A 
HETATM    5  C   UNK     0     150.281 157.513 150.943  0.00  0.00     0.090 A 
HETATM    6  C   UNK     0     152.360 158.455 151.792  0.00  0.00     0.190 A 
HETATM    7  C   UNK     0     151.025 158.606 151.178  0.00  0.00     0.094 A 
HETATM    8  C   UNK     0     154.025 156.828 152.685  0.00  0.00     0.085 A 
HETATM    9  C   UNK     0     152.292 154.716 152.083  0.00  0.00     0.075 A 
HETATM   10  C   UNK     0     153.534 154.459 152.666  0.00  0.00     0.071 A 
HETATM   11  C   UNK     0     154.398 155.513 152.966  0.00  0.00     0.074 A 
ENDROOT
BRANCH   5  12
HETATM   12  C   UNK     0     148.944 157.602 150.323  0.00  0.00     0.001 A 
HETATM   13  C   UNK     0     148.306 158.839 150.204  0.00  0.00     0.053 A 
HETATM   14  C   UNK     0     147.043 158.923 149.619  0.00  0.00     0.099 A 
HETATM   15  C   UNK     0     146.413 157.770 149.151  0.00  0.00     0.098 A 
HETATM   16  C   UNK     0     147.046 156.533 149.269  0.00  0.00     0.040 A 
HETATM   17  C   UNK     0     148.310 156.449 149.854  0.00  0.00     0.017 A 
BRANCH  14  18
HETATM   18  O   UNK     0     146.434 160.137 149.510  0.00  0.00    -0.358 OA
HETATM   19  H   UNK     0     146.728 160.695 150.250  0.00  0.00     0.217 HD
ENDBRANCH  14  18
BRANCH  15  20
HETATM   20  O   UNK     0     145.180 157.839 148.577  0.00  0.00    -0.358 OA
HETATM   21  H   UNK     0     144.521 157.490 149.200  0.00  0.00     0.217 HD
ENDBRANCH  15  20
ENDBRANCH   5  12
BRANCH   8  22
HETATM   22  O   UNK     0     154.904 157.820 152.997  0.00  0.00    -0.360 OA
HETATM   23  H   UNK     0     155.465 158.030 152.234  0.00  0.00     0.217 HD
ENDBRANCH   8  22
BRANCH  10  24
HETATM   24  O   UNK     0     153.904 153.178 152.942  0.00  0.00    -0.361 OA
HETATM   25  H   UNK     0     153.251 152.571 152.555  0.00  0.00     0.217 HD
ENDBRANCH  10  24
TORSDOF 5
ENDMDL
MODEL 5
REMARK VINA RESULT:      -7.6     10.549     13.322
REMARK  5 active torsions:
REMARK  status: ('A' for Active; 'I' for Inactive)
REMARK    1  A    between atoms: O_2  and  C_13 
REMARK    2  A    between atoms: O_4  and  C_16 
REMARK    3  A    between atoms: O_5  and  C_19 
REMARK    4  A    between atoms: O_6  and  C_21 
REMARK    5  A    between atoms: C_9  and  C_10 
ROOT
HETATM    1  O   UNK     0     149.687 149.153 142.050  0.00  0.00    -0.309 OA
HETATM    2  O   UNK     0     148.112 151.095 145.266  0.00  0.00    -0.287 OA
HETATM    3  C   UNK     0     149.991 150.713 143.886  0.00  0.00     0.081 A 
HETATM    4  C   UNK     0     150.466 150.018 142.775  0.00  0.00     0.095 A 
HETATM    5  C   UNK     0     148.372 148.957 142.445  0.00  0.00     0.090 A 
HETATM    6  C   UNK     0     148.595 150.516 144.303  0.00  0.00     0.190 A 
HETATM    7  C   UNK     0     147.798 149.573 143.491  0.00  0.00     0.094 A 
HETATM    8  C   UNK     0     150.831 151.582 144.586  0.00  0.00     0.085 A 
HETATM    9  C   UNK     0     151.785 150.188 142.357  0.00  0.00     0.075 A 
HETATM   10  C   UNK     0     152.627 151.055 143.054  0.00  0.00     0.071 A 
HETATM   11  C   UNK     0     152.151 151.750 144.166  0.00  0.00     0.074 A 
ENDROOT
BRANCH   5  12
HETATM   12  C   UNK     0     147.623 148.013 141.594  0.00  0.00     0.001 A 
HETATM   13  C   UNK     0     148.153 147.598 140.369  0.00  0.00     0.053 A 
HETATM   14  C   UNK     0     147.445 146.706 139.565  0.00  0.00     0.099 A 
HETATM   15  C   UNK     0     146.204 146.224 139.982  0.00  0.00     0.098 A 
HETATM   16  C   UNK     0     145.671 146.636 141.203  0.00  0.00     0.040 A 
HETATM   17  C   UNK     0     146.379 147.529 142.008  0.00  0.00     0.017 A 
BRANCH  14  18
HETATM   18  O   UNK     0     147.975 146.311 138.373  0.00  0.00    -0.358 OA
HETATM   19  H   UNK     0     148.629 145.613 138.545  0.00  0.00     0.217 HD
ENDBRANCH  14  18
BRANCH  15  20
HETATM   20  O   UNK     0     145.503 145.352 139.205  0.00  0.00    -0.358 OA
HETATM   21  H   UNK     0     145.930 145.290 138.334  0.00  0.00     0.217 HD
ENDBRANCH  15  20
ENDBRANCH   5  12
BRANCH   8  22
HETATM   22  O   UNK     0     150.415 152.284 145.677  0.00  0.00    -0.360 OA
HETATM   23  H   UNK     0     149.457 152.191 145.796  0.00  0.00     0.217 HD
ENDBRANCH   8  22
BRANCH  10  24
HETATM   24  O   UNK     0     153.916 151.224 142.649  0.00  0.00    -0.361 OA
HETATM   25  H   UNK     0     154.021 152.123 142.295  0.00  0.00     0.217 HD
ENDBRANCH  10  24
TORSDOF 5
ENDMDL
MODEL 6
REMARK VINA RESULT:      -7.5      2.245      4.014
REMARK  5 active torsions:
REMARK  status: ('A' for Active; 'I' for Inactive)
REMARK    1  A    between atoms: O_2  and  C_13 
REMARK    2  A    between atoms: O_4  and  C_16 
REMARK    3  A    between atoms: O_5  and  C_19 
REMARK    4  A    between atoms: O_6  and  C_21 
REMARK    5  A    between atoms: C_9  and  C_10 
ROOT
HETATM    1  O   UNK     0     148.567 156.611 149.462  0.00  0.00    -0.309 OA
HETATM    2  O   UNK     0     144.920 158.426 149.384  0.00  0.00    -0.287 OA
HETATM    3  C   UNK     0     146.237 156.560 148.776  0.00  0.00     0.081 A 
HETATM    4  C   UNK     0     147.509 155.996 148.841  0.00  0.00     0.095 A 
HETATM    5  C   UNK     0     148.360 157.853 150.043  0.00  0.00     0.090 A 
HETATM    6  C   UNK     0     146.011 157.873 149.400  0.00  0.00     0.190 A 
HETATM    7  C   UNK     0     147.182 158.495 150.053  0.00  0.00     0.094 A 
HETATM    8  C   UNK     0     145.198 155.887 148.131  0.00  0.00     0.085 A 
HETATM    9  C   UNK     0     147.750 154.751 148.259  0.00  0.00     0.075 A 
HETATM   10  C   UNK     0     146.714 154.075 147.614  0.00  0.00     0.071 A 
HETATM   11  C   UNK     0     145.441 154.642 147.550  0.00  0.00     0.074 A 
ENDROOT
BRANCH   5  12
HETATM   12  C   UNK     0     149.560 158.421 150.687  0.00  0.00     0.001 A 
HETATM   13  C   UNK     0     149.547 159.735 151.162  0.00  0.00     0.053 A 
HETATM   14  C   UNK     0     150.681 160.272 151.771  0.00  0.00     0.099 A 
HETATM   15  C   UNK     0     151.833 159.497 151.906  0.00  0.00     0.098 A 
HETATM   16  C   UNK     0     151.851 158.186 151.432  0.00  0.00     0.040 A 
HETATM   17  C   UNK     0     150.716 157.648 150.824  0.00  0.00     0.017 A 
BRANCH  14  18
HETATM   18  O   UNK     0     150.652 161.555 152.229  0.00  0.00    -0.358 OA
HETATM   19  H   UNK     0     149.769 161.729 152.598  0.00  0.00     0.217 HD
ENDBRANCH  14  18
BRANCH  15  20
HETATM   20  O   UNK     0     152.946 160.010 152.500  0.00  0.00    -0.358 OA
HETATM   21  H   UNK     0     152.788 160.945 152.715  0.00  0.00     0.217 HD
ENDBRANCH  15  20
ENDBRANCH   5  12
BRANCH   8  22
HETATM   22  O   UNK     0     143.937 156.397 148.042  0.00  0.00    -0.360 OA
HETATM   23  H   UNK     0     143.881 157.039 147.317  0.00  0.00     0.217 HD
ENDBRANCH   8  22
BRANCH  10  24
HETATM   24  O   UNK     0     146.946 152.859 147.045  0.00  0.00    -0.361 OA
HETATM   25  H   UNK     0     147.211 152.989 146.119  0.00  0.00     0.217 HD
ENDBRANCH  10  24
TORSDOF 5
ENDMDL
MODEL 7
REMARK VINA RESULT:      -7.5      1.991      7.241
REMARK  5 active torsions:
REMARK  status: ('A' for Active; 'I' for Inactive)
REMARK    1  A    between atoms: O_2  and  C_13 
REMARK    2  A    between atoms: O_4  and  C_16 
REMARK    3  A    between atoms: O_5  and  C_19 
REMARK    4  A    between atoms: O_6  and  C_21 
REMARK    5  A    between atoms: C_9  and  C_10 
ROOT
HETATM    1  O   UNK     0     151.755 155.892 151.261  0.00  0.00    -0.309 OA
HETATM    2  O   UNK     0     153.093 152.051 151.031  0.00  0.00    -0.287 OA
HETATM    3  C   UNK     0     153.568 154.304 151.560  0.00  0.00     0.081 A 
HETATM    4  C   UNK     0     153.046 155.595 151.616  0.00  0.00     0.095 A 
HETATM    5  C   UNK     0     150.937 154.862 150.820  0.00  0.00     0.090 A 
HETATM    6  C   UNK     0     152.702 153.207 151.101  0.00  0.00     0.190 A 
HETATM    7  C   UNK     0     151.321 153.579 150.728  0.00  0.00     0.094 A 
HETATM    8  C   UNK     0     154.891 154.061 151.935  0.00  0.00     0.085 A 
HETATM    9  C   UNK     0     153.845 156.653 152.048  0.00  0.00     0.075 A 
HETATM   10  C   UNK     0     155.168 156.414 152.424  0.00  0.00     0.071 A 
HETATM   11  C   UNK     0     155.689 155.121 152.367  0.00  0.00     0.074 A 
ENDROOT
BRANCH   5  12
HETATM   12  C   UNK     0     149.569 155.290 150.469  0.00  0.00     0.001 A 
HETATM   13  C   UNK     0     148.657 154.369 149.948  0.00  0.00     0.053 A 
HETATM   14  C   UNK     0     147.364 154.774 149.617  0.00  0.00     0.099 A 
HETATM   15  C   UNK     0     146.978 156.101 149.806  0.00  0.00     0.098 A 
HETATM   16  C   UNK     0     147.885 157.023 150.326  0.00  0.00     0.040 A 
HETATM   17  C   UNK     0     149.179 156.619 150.657  0.00  0.00     0.017 A 
BRANCH  14  18
HETATM   18  O   UNK     0     146.485 153.864 149.109  0.00  0.00    -0.358 OA
HETATM   19  H   UNK     0     145.732 154.346 148.728  0.00  0.00     0.217 HD
ENDBRANCH  14  18
BRANCH  15  20
HETATM   20  O   UNK     0     145.718 156.507 149.488  0.00  0.00    -0.358 OA
HETATM   21  H   UNK     0     145.233 155.760 149.099  0.00  0.00     0.217 HD
ENDBRANCH  15  20
ENDBRANCH   5  12
BRANCH   8  22
HETATM   22  O   UNK     0     155.448 152.818 151.898  0.00  0.00    -0.360 OA
HETATM   23  H   UNK     0     154.837 152.161 152.266  0.00  0.00     0.217 HD
ENDBRANCH   8  22
BRANCH  10  24
HETATM   24  O   UNK     0     155.951 157.444 152.847  0.00  0.00    -0.361 OA
HETATM   25  H   UNK     0     156.510 157.136 153.581  0.00  0.00     0.217 HD
ENDBRANCH  10  24
TORSDOF 5
ENDMDL
MODEL 8
REMARK VINA RESULT:      -7.5      1.552      6.656
REMARK  5 active torsions:
REMARK  status: ('A' for Active; 'I' for Inactive)
REMARK    1  A    between atoms: O_2  and  C_13 
REMARK    2  A    between atoms: O_4  and  C_16 
REMARK    3  A    between atoms: O_5  and  C_19 
REMARK    4  A    between atoms: O_6  and  C_21 
REMARK    5  A    between atoms: C_9  and  C_10 
ROOT
HETATM    1  O   UNK     0     151.471 157.108 151.358  0.00  0.00    -0.309 OA
HETATM    2  O   UNK     0     151.620 153.039 151.214  0.00  0.00    -0.287 OA
HETATM    3  C   UNK     0     152.746 155.065 151.674  0.00  0.00     0.081 A 
HETATM    4  C   UNK     0     152.626 156.453 151.702  0.00  0.00     0.095 A 
HETATM    5  C   UNK     0     150.379 156.354 150.957  0.00  0.00     0.090 A 
HETATM    6  C   UNK     0     151.586 154.261 151.259  0.00  0.00     0.190 A 
HETATM    7  C   UNK     0     150.368 155.013 150.896  0.00  0.00     0.094 A 
HETATM    8  C   UNK     0     153.948 154.452 152.036  0.00  0.00     0.085 A 
HETATM    9  C   UNK     0     153.710 157.238 152.093  0.00  0.00     0.075 A 
HETATM   10  C   UNK     0     154.912 156.630 152.456  0.00  0.00     0.071 A 
HETATM   11  C   UNK     0     155.031 155.240 152.427  0.00  0.00     0.074 A 
ENDROOT
BRANCH   5  12
HETATM   12  C   UNK     0     149.188 157.157 150.616  0.00  0.00     0.001 A 
HETATM   13  C   UNK     0     149.238 158.552 150.683  0.00  0.00     0.053 A 
HETATM   14  C   UNK     0     148.113 159.310 150.361  0.00  0.00     0.099 A 
HETATM   15  C   UNK     0     146.934 158.677 149.968  0.00  0.00     0.098 A 
HETATM   16  C   UNK     0     146.879 157.285 149.900  0.00  0.00     0.040 A 
HETATM   17  C   UNK     0     148.005 156.526 150.223  0.00  0.00     0.017 A 
BRANCH  14  18
HETATM   18  O   UNK     0     148.177 160.669 150.432  0.00  0.00    -0.358 OA
HETATM   19  H   UNK     0     147.344 161.033 150.088  0.00  0.00     0.217 HD
ENDBRANCH  14  18
BRANCH  15  20
HETATM   20  O   UNK     0     145.829 159.406 149.649  0.00  0.00    -0.358 OA
HETATM   21  H   UNK     0     146.057 160.351 149.671  0.00  0.00     0.217 HD
ENDBRANCH  15  20
ENDBRANCH   5  12
BRANCH   8  22
HETATM   22  O   UNK     0     154.115 153.100 152.025  0.00  0.00    -0.360 OA
HETATM   23  H   UNK     0     153.757 152.720 151.208  0.00  0.00     0.217 HD
ENDBRANCH   8  22
BRANCH  10  24
HETATM   24  O   UNK     0     155.973 157.394 152.839  0.00  0.00    -0.361 OA
HETATM   25  H   UNK     0     155.797 157.758 153.724  0.00  0.00     0.217 HD
ENDBRANCH  10  24
TORSDOF 5
ENDMDL
MODEL 9
REMARK VINA RESULT:      -7.5      1.209      2.877
REMARK  5 active torsions:
REMARK  status: ('A' for Active; 'I' for Inactive)
REMARK    1  A    between atoms: O_2  and  C_13 
REMARK    2  A    between atoms: O_4  and  C_16 
REMARK    3  A    between atoms: O_5  and  C_19 
REMARK    4  A    between atoms: O_6  and  C_21 
REMARK    5  A    between atoms: C_9  and  C_10 
ROOT
HETATM    1  O   UNK     0     150.063 157.129 150.832  0.00  0.00    -0.309 OA
HETATM    2  O   UNK     0     148.885 160.994 150.309  0.00  0.00    -0.287 OA
HETATM    3  C   UNK     0     148.323 158.702 150.201  0.00  0.00     0.081 A 
HETATM    4  C   UNK     0     148.790 157.405 150.401  0.00  0.00     0.095 A 
HETATM    5  C   UNK     0     150.924 158.191 151.070  0.00  0.00     0.090 A 
HETATM    6  C   UNK     0     149.230 159.831 150.461  0.00  0.00     0.190 A 
HETATM    7  C   UNK     0     150.590 159.482 150.920  0.00  0.00     0.094 A 
HETATM    8  C   UNK     0     147.015 158.922 149.762  0.00  0.00     0.085 A 
HETATM    9  C   UNK     0     147.951 156.317 150.164  0.00  0.00     0.075 A 
HETATM   10  C   UNK     0     146.644 156.532 149.725  0.00  0.00     0.071 A 
HETATM   11  C   UNK     0     146.178 157.831 149.525  0.00  0.00     0.074 A 
ENDROOT
BRANCH   5  12
HETATM   12  C   UNK     0     152.265 157.784 151.534  0.00  0.00     0.001 A 
HETATM   13  C   UNK     0     153.377 158.580 151.252  0.00  0.00     0.053 A 
HETATM   14  C   UNK     0     154.644 158.196 151.690  0.00  0.00     0.099 A 
HETATM   15  C   UNK     0     154.803 157.013 152.413  0.00  0.00     0.098 A 
HETATM   16  C   UNK     0     153.695 156.215 152.695  0.00  0.00     0.040 A 
HETATM   17  C   UNK     0     152.428 156.599 152.257  0.00  0.00     0.017 A 
BRANCH  14  18
HETATM   18  O   UNK     0     155.720 158.983 151.407  0.00  0.00    -0.358 OA
HETATM   19  H   UNK     0     156.474 158.406 151.196  0.00  0.00     0.217 HD
ENDBRANCH  14  18
BRANCH  15  20
HETATM   20  O   UNK     0     156.035 156.627 152.847  0.00  0.00    -0.358 OA
HETATM   21  H   UNK     0     156.712 157.134 152.368  0.00  0.00     0.217 HD
ENDBRANCH  15  20
ENDBRANCH   5  12
BRANCH   8  22
HETATM   22  O   UNK     0     146.512 160.170 149.552  0.00  0.00    -0.360 OA
HETATM   23  H   UNK     0     147.082 160.840 149.961  0.00  0.00     0.217 HD
ENDBRANCH   8  22
BRANCH  10  24
HETATM   24  O   UNK     0     145.821 155.472 149.493  0.00  0.00    -0.361 OA
HETATM   25  H   UNK     0     144.915 155.798 149.361  0.00  0.00     0.217 HD
ENDBRANCH  10  24
TORSDOF 5
ENDMDL
MODEL 10
REMARK VINA RESULT:      -7.4      2.237      4.049
REMARK  5 active torsions:
REMARK  status: ('A' for Active; 'I' for Inactive)
REMARK    1  A    between atoms: O_2  and  C_13 
REMARK    2  A    between atoms: O_4  and  C_16 
REMARK    3  A    between atoms: O_5  and  C_19 
REMARK    4  A    between atoms: O_6  and  C_21 
REMARK    5  A    between atoms: C_9  and  C_10 
ROOT
HETATM    1  O   UNK     0     151.223 157.338 151.055  0.00  0.00    -0.309 OA
HETATM    2  O   UNK     0     152.345 160.962 152.540  0.00  0.00    -0.287 OA
HETATM    3  C   UNK     0     150.687 159.673 151.459  0.00  0.00     0.081 A 
HETATM    4  C   UNK     0     150.367 158.406 150.973  0.00  0.00     0.095 A 
HETATM    5  C   UNK     0     152.465 157.531 151.641  0.00  0.00     0.090 A 
HETATM    6  C   UNK     0     152.000 159.879 152.090  0.00  0.00     0.190 A 
HETATM    7  C   UNK     0     152.887 158.699 152.152  0.00  0.00     0.094 A 
HETATM    8  C   UNK     0     149.774 160.723 151.348  0.00  0.00     0.085 A 
HETATM    9  C   UNK     0     149.128 158.183 150.372  0.00  0.00     0.075 A 
HETATM   10  C   UNK     0     148.213 159.231 150.259  0.00  0.00     0.071 A 
HETATM   11  C   UNK     0     148.536 160.497 150.746  0.00  0.00     0.074 A 
ENDROOT
BRANCH   5  12
HETATM   12  C   UNK     0     153.304 156.317 151.683  0.00  0.00     0.001 A 
HETATM   13  C   UNK     0     154.391 156.244 152.557  0.00  0.00     0.053 A 
HETATM   14  C   UNK     0     155.184 155.097 152.596  0.00  0.00     0.099 A 
HETATM   15  C   UNK     0     154.892 154.019 151.761  0.00  0.00     0.098 A 
HETATM   16  C   UNK     0     153.808 154.088 150.886  0.00  0.00     0.040 A 
HETATM   17  C   UNK     0     153.015 155.235 150.847  0.00  0.00     0.017 A 
BRANCH  14  18
HETATM   18  O   UNK     0     156.241 155.041 153.454  0.00  0.00    -0.358 OA
HETATM   19  H   UNK     0     156.975 154.589 153.006  0.00  0.00     0.217 HD
ENDBRANCH  14  18
BRANCH  15  20
HETATM   20  O   UNK     0     155.658 152.893 151.791  0.00  0.00    -0.358 OA
HETATM   21  H   UNK     0     156.402 153.033 152.401  0.00  0.00     0.217 HD
ENDBRANCH  15  20
ENDBRANCH   5  12
BRANCH   8  22
HETATM   22  O   UNK     0     150.040 161.978 151.808  0.00  0.00    -0.360 OA
HETATM   23  H   UNK     0     150.846 162.327 151.396  0.00  0.00     0.217 HD
ENDBRANCH   8  22
BRANCH  10  24
HETATM   24  O   UNK     0     147.003 159.016 149.673  0.00  0.00    -0.361 OA
HETATM   25  H   UNK     0     147.028 158.168 149.199  0.00  0.00     0.217 HD
ENDBRANCH  10  24
TORSDOF 5
ENDMDL
