MODEL 1
REMARK VINA RESULT:      -8.6      0.000      0.000
REMARK  13 active torsions:
REMARK  status: ('A' for Active; 'I' for Inactive)
REMARK    1  A    between atoms: C_2  and  O_12 
REMARK    2  A    between atoms: C_3  and  O_10 
REMARK    3  A    between atoms: C_4  and  O_8 
REMARK    4  A    between atoms: C_5  and  O_6 
REMARK    5  A    between atoms: C_22  and  C_23 
REMARK    6  A    between atoms: O_12  and  C_13 
REMARK    7  A    between atoms: C_13  and  C_14 
REMARK    8  A    between atoms: C_15  and  C_16 
REMARK    9  A    between atoms: C_23  and  O_24 
REMARK   10  A    between atoms: O_24  and  C_25 
REMARK   11  A    between atoms: C_26  and  O_34 
REMARK   12  A    between atoms: C_27  and  O_32 
REMARK   13  A    between atoms: C_28  and  O_30 
ROOT
ATOM      1  O   LIG     1      74.738  33.681  33.318  0.00  0.00    -0.341 OA
ATOM      2  C   LIG     1      74.429  32.662  34.266  0.00  0.00     0.282 C 
ATOM      3  C   LIG     1      73.167  33.024  35.049  0.00  0.00     0.201 C 
ATOM      4  C   LIG     1      72.000  33.334  34.112  0.00  0.00     0.179 C 
ATOM      5  C   LIG     1      72.417  34.311  33.013  0.00  0.00     0.177 C 
ATOM      6  C   LIG     1      73.711  33.849  32.339  0.00  0.00     0.178 C 
ENDROOT
BRANCH   6   7
ATOM      7  C   LIG     1      74.211  34.867  31.318  0.00  0.00     0.197 C 
BRANCH   7   8
ATOM      8  O   LIG     1      73.742  36.149  31.693  0.00  0.00    -0.346 OA
BRANCH   8   9
ATOM      9  C   LIG     1      74.539  37.188  31.134  0.00  0.00     0.281 C 
ATOM     10  O   LIG     1      74.609  38.332  31.992  0.00  0.00    -0.346 OA
ATOM     11  C   LIG     1      73.365  39.012  32.146  0.00  0.00     0.197 C 
ATOM     12  C   LIG     1      72.861  39.520  30.802  0.00  0.00     0.171 C 
ATOM     13  C   LIG     1      72.711  38.365  29.810  0.00  0.00     0.178 C 
ATOM     14  C   LIG     1      74.012  37.558  29.740  0.00  0.00     0.201 C 
BRANCH  12  15
ATOM     15  O   LIG     1      71.616  40.186  30.959  0.00  0.00    -0.387 OA
ATOM     16  H   LIG     1      71.467  40.310  31.912  0.00  0.00     0.210 HD
ENDBRANCH  12  15
BRANCH  13  17
ATOM     17  O   LIG     1      71.646  37.516  30.234  0.00  0.00    -0.386 OA
ATOM     18  H   LIG     1      70.811  37.988  30.068  0.00  0.00     0.210 HD
ENDBRANCH  13  17
BRANCH  14  19
ATOM     19  O   LIG     1      75.012  38.332  29.082  0.00  0.00    -0.384 OA
ATOM     20  H   LIG     1      75.184  39.128  29.612  0.00  0.00     0.210 HD
ENDBRANCH  14  19
ENDBRANCH   8   9
ENDBRANCH   7   8
ENDBRANCH   6   7
BRANCH   5  21
ATOM     21  O   LIG     1      71.381  34.394  32.038  0.00  0.00    -0.386 OA
ATOM     22  H   LIG     1      70.967  35.272  32.114  0.00  0.00     0.210 HD
ENDBRANCH   5  21
BRANCH   2  23
ATOM     23  O   LIG     1      75.502  32.527  35.196  0.00  0.00    -0.345 OA
BRANCH  23  24
ATOM     24  C   LIG     1      75.771  33.754  35.855  0.00  0.00     0.190 C 
BRANCH  24  25
ATOM     25  C   LIG     1      77.013  33.599  36.672  0.00  0.00     0.001 C 
ATOM     26  C   LIG     1      77.085  33.922  37.973  0.00  0.00     0.006 C 
BRANCH  26  27
ATOM     27  C   LIG     1      78.281  33.773  38.820  0.00  0.00    -0.025 A 
ATOM     28  C   LIG     1      79.013  32.597  38.761  0.00  0.00     0.008 A 
ATOM     29  C   LIG     1      80.145  32.458  39.563  0.00  0.00     0.001 A 
ATOM     30  C   LIG     1      80.531  33.493  40.414  0.00  0.00     0.000 A 
ATOM     31  C   LIG     1      79.784  34.670  40.463  0.00  0.00     0.001 A 
ATOM     32  C   LIG     1      78.652  34.811  39.660  0.00  0.00     0.008 A 
ENDBRANCH  26  27
ENDBRANCH  24  25
ENDBRANCH  23  24
ENDBRANCH   2  23
BRANCH   4  33
ATOM     33  O   LIG     1      70.939  33.935  34.857  0.00  0.00    -0.386 OA
ATOM     34  H   LIG     1      70.102  33.601  34.492  0.00  0.00     0.210 HD
ENDBRANCH   4  33
BRANCH   3  35
ATOM     35  O   LIG     1      72.825  31.916  35.882  0.00  0.00    -0.384 OA
ATOM     36  H   LIG     1      72.534  32.264  36.742  0.00  0.00     0.210 HD
ENDBRANCH   3  35
TORSDOF 13
ENDMDL
MODEL 2
REMARK VINA RESULT:      -8.6     23.149     25.327
REMARK  13 active torsions:
REMARK  status: ('A' for Active; 'I' for Inactive)
REMARK    1  A    between atoms: C_2  and  O_12 
REMARK    2  A    between atoms: C_3  and  O_10 
REMARK    3  A    between atoms: C_4  and  O_8 
REMARK    4  A    between atoms: C_5  and  O_6 
REMARK    5  A    between atoms: C_22  and  C_23 
REMARK    6  A    between atoms: O_12  and  C_13 
REMARK    7  A    between atoms: C_13  and  C_14 
REMARK    8  A    between atoms: C_15  and  C_16 
REMARK    9  A    between atoms: C_23  and  O_24 
REMARK   10  A    between atoms: O_24  and  C_25 
REMARK   11  A    between atoms: C_26  and  O_34 
REMARK   12  A    between atoms: C_27  and  O_32 
REMARK   13  A    between atoms: C_28  and  O_30 
ROOT
ATOM      1  O   LIG     1      61.584  17.552  25.312  0.00  0.00    -0.341 OA
ATOM      2  C   LIG     1      62.309  18.346  24.376  0.00  0.00     0.282 C 
ATOM      3  C   LIG     1      61.382  19.358  23.700  0.00  0.00     0.201 C 
ATOM      4  C   LIG     1      60.629  20.198  24.730  0.00  0.00     0.179 C 
ATOM      5  C   LIG     1      59.998  19.318  25.808  0.00  0.00     0.177 C 
ATOM      6  C   LIG     1      61.022  18.329  26.371  0.00  0.00     0.178 C 
ENDROOT
BRANCH   6   7
ATOM      7  C   LIG     1      60.387  17.361  27.365  0.00  0.00     0.197 C 
BRANCH   7   8
ATOM      8  O   LIG     1      59.026  17.185  27.015  0.00  0.00    -0.346 OA
BRANCH   8   9
ATOM      9  C   LIG     1      58.546  15.900  27.395  0.00  0.00     0.281 C 
ATOM     10  O   LIG     1      57.704  15.323  26.391  0.00  0.00    -0.346 OA
ATOM     11  C   LIG     1      56.472  16.018  26.205  0.00  0.00     0.197 C 
ATOM     12  C   LIG     1      55.658  16.020  27.493  0.00  0.00     0.171 C 
ATOM     13  C   LIG     1      56.454  16.654  28.634  0.00  0.00     0.178 C 
ATOM     14  C   LIG     1      57.829  15.989  28.751  0.00  0.00     0.201 C 
BRANCH  12  15
ATOM     15  O   LIG     1      54.438  16.723  27.306  0.00  0.00    -0.387 OA
ATOM     16  H   LIG     1      53.752  16.069  27.086  0.00  0.00     0.210 HD
ENDBRANCH  12  15
BRANCH  13  17
ATOM     17  O   LIG     1      56.618  18.048  28.376  0.00  0.00    -0.386 OA
ATOM     18  H   LIG     1      55.745  18.408  28.144  0.00  0.00     0.210 HD
ENDBRANCH  13  17
BRANCH  14  19
ATOM     19  O   LIG     1      57.672  14.665  29.254  0.00  0.00    -0.384 OA
ATOM     20  H   LIG     1      58.060  14.044  28.615  0.00  0.00     0.210 HD
ENDBRANCH  14  19
ENDBRANCH   8   9
ENDBRANCH   7   8
ENDBRANCH   6   7
BRANCH   5  21
ATOM     21  O   LIG     1      59.508  20.141  26.863  0.00  0.00    -0.386 OA
ATOM     22  H   LIG     1      59.852  19.789  27.703  0.00  0.00     0.210 HD
ENDBRANCH   5  21
BRANCH   2  23
ATOM     23  O   LIG     1      62.863  17.510  23.362  0.00  0.00    -0.345 OA
BRANCH  23  24
ATOM     24  C   LIG     1      63.723  16.527  23.915  0.00  0.00     0.190 C 
BRANCH  24  25
ATOM     25  C   LIG     1      65.060  16.628  23.253  0.00  0.00     0.001 C 
ATOM     26  C   LIG     1      65.286  16.246  21.987  0.00  0.00     0.006 C 
BRANCH  26  27
ATOM     27  C   LIG     1      66.580  16.340  21.290  0.00  0.00    -0.025 A 
ATOM     28  C   LIG     1      66.693  17.155  20.174  0.00  0.00     0.008 A 
ATOM     29  C   LIG     1      67.918  17.244  19.515  0.00  0.00     0.001 A 
ATOM     30  C   LIG     1      69.014  16.516  19.977  0.00  0.00     0.000 A 
ATOM     31  C   LIG     1      68.886  15.700  21.101  0.00  0.00     0.001 A 
ATOM     32  C   LIG     1      67.660  15.611  21.761  0.00  0.00     0.008 A 
ENDBRANCH  26  27
ENDBRANCH  24  25
ENDBRANCH  23  24
ENDBRANCH   2  23
BRANCH   4  33
ATOM     33  O   LIG     1      59.582  20.920  24.081  0.00  0.00    -0.386 OA
ATOM     34  H   LIG     1      59.348  20.431  23.274  0.00  0.00     0.210 HD
ENDBRANCH   4  33
BRANCH   3  35
ATOM     35  O   LIG     1      62.177  20.213  22.880  0.00  0.00    -0.384 OA
ATOM     36  H   LIG     1      63.079  20.227  23.243  0.00  0.00     0.210 HD
ENDBRANCH   3  35
TORSDOF 13
ENDMDL
MODEL 3
REMARK VINA RESULT:      -8.5     23.369     25.882
REMARK  13 active torsions:
REMARK  status: ('A' for Active; 'I' for Inactive)
REMARK    1  A    between atoms: C_2  and  O_12 
REMARK    2  A    between atoms: C_3  and  O_10 
REMARK    3  A    between atoms: C_4  and  O_8 
REMARK    4  A    between atoms: C_5  and  O_6 
REMARK    5  A    between atoms: C_22  and  C_23 
REMARK    6  A    between atoms: O_12  and  C_13 
REMARK    7  A    between atoms: C_13  and  C_14 
REMARK    8  A    between atoms: C_15  and  C_16 
REMARK    9  A    between atoms: C_23  and  O_24 
REMARK   10  A    between atoms: O_24  and  C_25 
REMARK   11  A    between atoms: C_26  and  O_34 
REMARK   12  A    between atoms: C_27  and  O_32 
REMARK   13  A    between atoms: C_28  and  O_30 
ROOT
ATOM      1  O   LIG     1      60.270  18.309  26.442  0.00  0.00    -0.341 OA
ATOM      2  C   LIG     1      60.549  19.260  25.418  0.00  0.00     0.282 C 
ATOM      3  C   LIG     1      59.283  20.030  25.042  0.00  0.00     0.201 C 
ATOM      4  C   LIG     1      58.627  20.658  26.271  0.00  0.00     0.179 C 
ATOM      5  C   LIG     1      58.491  19.643  27.406  0.00  0.00     0.177 C 
ATOM      6  C   LIG     1      59.818  18.920  27.651  0.00  0.00     0.178 C 
ENDROOT
BRANCH   6   7
ATOM      7  C   LIG     1      59.677  17.821  28.700  0.00  0.00     0.197 C 
BRANCH   7   8
ATOM      8  O   LIG     1      58.317  17.430  28.763  0.00  0.00    -0.346 OA
BRANCH   8   9
ATOM      9  C   LIG     1      58.168  16.018  28.657  0.00  0.00     0.281 C 
ATOM     10  O   LIG     1      58.642  15.521  27.401  0.00  0.00    -0.346 OA
ATOM     11  C   LIG     1      57.867  15.950  26.284  0.00  0.00     0.197 C 
ATOM     12  C   LIG     1      56.427  15.470  26.414  0.00  0.00     0.171 C 
ATOM     13  C   LIG     1      55.804  15.981  27.714  0.00  0.00     0.178 C 
ATOM     14  C   LIG     1      56.703  15.628  28.904  0.00  0.00     0.201 C 
BRANCH  12  15
ATOM     15  O   LIG     1      55.656  15.910  25.304  0.00  0.00    -0.387 OA
ATOM     16  H   LIG     1      55.491  15.138  24.736  0.00  0.00     0.210 HD
ENDBRANCH  12  15
BRANCH  13  17
ATOM     17  O   LIG     1      55.648  17.397  27.637  0.00  0.00    -0.386 OA
ATOM     18  H   LIG     1      56.421  17.801  28.068  0.00  0.00     0.210 HD
ENDBRANCH  13  17
BRANCH  14  19
ATOM     19  O   LIG     1      56.654  14.221  29.131  0.00  0.00    -0.384 OA
ATOM     20  H   LIG     1      56.862  13.767  28.297  0.00  0.00     0.210 HD
ENDBRANCH  14  19
ENDBRANCH   8   9
ENDBRANCH   7   8
ENDBRANCH   6   7
BRANCH   5  21
ATOM     21  O   LIG     1      58.094  20.318  28.597  0.00  0.00    -0.386 OA
ATOM     22  H   LIG     1      57.168  20.082  28.780  0.00  0.00     0.210 HD
ENDBRANCH   5  21
BRANCH   2  23
ATOM     23  O   LIG     1      61.020  18.589  24.251  0.00  0.00    -0.345 OA
BRANCH  23  24
ATOM     24  C   LIG     1      61.317  17.228  24.522  0.00  0.00     0.190 C 
BRANCH  24  25
ATOM     25  C   LIG     1      62.369  16.766  23.566  0.00  0.00     0.001 C 
ATOM     26  C   LIG     1      62.572  17.328  22.364  0.00  0.00     0.006 C 
BRANCH  26  27
ATOM     27  C   LIG     1      63.604  16.915  21.397  0.00  0.00    -0.025 A 
ATOM     28  C   LIG     1      64.483  17.863  20.897  0.00  0.00     0.008 A 
ATOM     29  C   LIG     1      65.459  17.472  19.982  0.00  0.00     0.001 A 
ATOM     30  C   LIG     1      65.544  16.140  19.577  0.00  0.00     0.000 A 
ATOM     31  C   LIG     1      64.652  15.198  20.088  0.00  0.00     0.001 A 
ATOM     32  C   LIG     1      63.675  15.588  21.004  0.00  0.00     0.008 A 
ENDBRANCH  26  27
ENDBRANCH  24  25
ENDBRANCH  23  24
ENDBRANCH   2  23
BRANCH   4  33
ATOM     33  O   LIG     1      57.319  21.118  25.930  0.00  0.00    -0.386 OA
ATOM     34  H   LIG     1      56.904  20.433  25.378  0.00  0.00     0.210 HD
ENDBRANCH   4  33
BRANCH   3  35
ATOM     35  O   LIG     1      59.641  21.057  24.118  0.00  0.00    -0.384 OA
ATOM     36  H   LIG     1      59.721  20.655  23.237  0.00  0.00     0.210 HD
ENDBRANCH   3  35
TORSDOF 13
ENDMDL
MODEL 4
REMARK VINA RESULT:      -8.3     22.741     25.728
REMARK  13 active torsions:
REMARK  status: ('A' for Active; 'I' for Inactive)
REMARK    1  A    between atoms: C_2  and  O_12 
REMARK    2  A    between atoms: C_3  and  O_10 
REMARK    3  A    between atoms: C_4  and  O_8 
REMARK    4  A    between atoms: C_5  and  O_6 
REMARK    5  A    between atoms: C_22  and  C_23 
REMARK    6  A    between atoms: O_12  and  C_13 
REMARK    7  A    between atoms: C_13  and  C_14 
REMARK    8  A    between atoms: C_15  and  C_16 
REMARK    9  A    between atoms: C_23  and  O_24 
REMARK   10  A    between atoms: O_24  and  C_25 
REMARK   11  A    between atoms: C_26  and  O_34 
REMARK   12  A    between atoms: C_27  and  O_32 
REMARK   13  A    between atoms: C_28  and  O_30 
ROOT
ATOM      1  O   LIG     1      60.282  17.752  25.559  0.00  0.00    -0.341 OA
ATOM      2  C   LIG     1      61.638  18.193  25.542  0.00  0.00     0.282 C 
ATOM      3  C   LIG     1      61.827  19.303  24.508  0.00  0.00     0.201 C 
ATOM      4  C   LIG     1      60.836  20.445  24.729  0.00  0.00     0.179 C 
ATOM      5  C   LIG     1      59.412  19.917  24.901  0.00  0.00     0.177 C 
ATOM      6  C   LIG     1      59.373  18.788  25.934  0.00  0.00     0.178 C 
ENDROOT
BRANCH   6   7
ATOM      7  C   LIG     1      57.983  18.166  26.038  0.00  0.00     0.197 C 
BRANCH   7   8
ATOM      8  O   LIG     1      57.801  17.691  27.360  0.00  0.00    -0.346 OA
BRANCH   8   9
ATOM      9  C   LIG     1      56.453  17.298  27.598  0.00  0.00     0.281 C 
ATOM     10  O   LIG     1      56.206  17.044  28.986  0.00  0.00    -0.346 OA
ATOM     11  C   LIG     1      56.902  15.909  29.495  0.00  0.00     0.197 C 
ATOM     12  C   LIG     1      56.487  14.646  28.751  0.00  0.00     0.171 C 
ATOM     13  C   LIG     1      56.747  14.794  27.251  0.00  0.00     0.178 C 
ATOM     14  C   LIG     1      56.101  16.082  26.729  0.00  0.00     0.201 C 
BRANCH  12  15
ATOM     15  O   LIG     1      57.193  13.520  29.254  0.00  0.00    -0.387 OA
ATOM     16  H   LIG     1      57.331  12.905  28.513  0.00  0.00     0.210 HD
ENDBRANCH  12  15
BRANCH  13  17
ATOM     17  O   LIG     1      58.153  14.836  27.018  0.00  0.00    -0.386 OA
ATOM     18  H   LIG     1      58.438  13.936  26.783  0.00  0.00     0.210 HD
ENDBRANCH  13  17
BRANCH  14  19
ATOM     19  O   LIG     1      54.684  15.934  26.731  0.00  0.00    -0.384 OA
ATOM     20  H   LIG     1      54.304  16.615  27.311  0.00  0.00     0.210 HD
ENDBRANCH  14  19
ENDBRANCH   8   9
ENDBRANCH   7   8
ENDBRANCH   6   7
BRANCH   5  21
ATOM     21  O   LIG     1      58.563  20.978  25.330  0.00  0.00    -0.386 OA
ATOM     22  H   LIG     1      58.862  21.263  26.211  0.00  0.00     0.210 HD
ENDBRANCH   5  21
BRANCH   2  23
ATOM     23  O   LIG     1      62.493  17.109  25.187  0.00  0.00    -0.345 OA
BRANCH  23  24
ATOM     24  C   LIG     1      61.921  16.313  24.162  0.00  0.00     0.190 C 
BRANCH  24  25
ATOM     25  C   LIG     1      62.872  16.254  23.010  0.00  0.00     0.001 C 
ATOM     26  C   LIG     1      64.141  16.684  23.079  0.00  0.00     0.006 C 
BRANCH  26  27
ATOM     27  C   LIG     1      65.116  16.633  21.976  0.00  0.00    -0.025 A 
ATOM     28  C   LIG     1      66.270  15.880  22.125  0.00  0.00     0.008 A 
ATOM     29  C   LIG     1      67.193  15.832  21.080  0.00  0.00     0.001 A 
ATOM     30  C   LIG     1      66.951  16.537  19.902  0.00  0.00     0.000 A 
ATOM     31  C   LIG     1      65.785  17.291  19.766  0.00  0.00     0.001 A 
ATOM     32  C   LIG     1      64.862  17.339  20.811  0.00  0.00     0.008 A 
ENDBRANCH  26  27
ENDBRANCH  24  25
ENDBRANCH  23  24
ENDBRANCH   2  23
BRANCH   4  33
ATOM     33  O   LIG     1      60.850  21.313  23.594  0.00  0.00    -0.386 OA
ATOM     34  H   LIG     1      61.218  22.165  23.885  0.00  0.00     0.210 HD
ENDBRANCH   4  33
BRANCH   3  35
ATOM     35  O   LIG     1      63.159  19.802  24.626  0.00  0.00    -0.384 OA
ATOM     36  H   LIG     1      63.667  19.179  25.172  0.00  0.00     0.210 HD
ENDBRANCH   3  35
TORSDOF 13
ENDMDL
MODEL 5
REMARK VINA RESULT:      -8.3      2.075      3.305
REMARK  13 active torsions:
REMARK  status: ('A' for Active; 'I' for Inactive)
REMARK    1  A    between atoms: C_2  and  O_12 
REMARK    2  A    between atoms: C_3  and  O_10 
REMARK    3  A    between atoms: C_4  and  O_8 
REMARK    4  A    between atoms: C_5  and  O_6 
REMARK    5  A    between atoms: C_22  and  C_23 
REMARK    6  A    between atoms: O_12  and  C_13 
REMARK    7  A    between atoms: C_13  and  C_14 
REMARK    8  A    between atoms: C_15  and  C_16 
REMARK    9  A    between atoms: C_23  and  O_24 
REMARK   10  A    between atoms: O_24  and  C_25 
REMARK   11  A    between atoms: C_26  and  O_34 
REMARK   12  A    between atoms: C_27  and  O_32 
REMARK   13  A    between atoms: C_28  and  O_30 
ROOT
ATOM      1  O   LIG     1      73.122  34.687  30.934  0.00  0.00    -0.341 OA
ATOM      2  C   LIG     1      72.444  33.792  31.814  0.00  0.00     0.282 C 
ATOM      3  C   LIG     1      71.292  34.507  32.521  0.00  0.00     0.201 C 
ATOM      4  C   LIG     1      70.353  35.176  31.518  0.00  0.00     0.179 C 
ATOM      5  C   LIG     1      71.132  36.000  30.493  0.00  0.00     0.177 C 
ATOM      6  C   LIG     1      72.276  35.178  29.893  0.00  0.00     0.178 C 
ENDROOT
BRANCH   6   7
ATOM      7  C   LIG     1      73.140  36.014  28.954  0.00  0.00     0.197 C 
BRANCH   7   8
ATOM      8  O   LIG     1      73.063  37.369  29.358  0.00  0.00    -0.346 OA
BRANCH   8   9
ATOM      9  C   LIG     1      74.325  37.862  29.797  0.00  0.00     0.281 C 
ATOM     10  O   LIG     1      74.652  37.403  31.113  0.00  0.00    -0.346 OA
ATOM     11  C   LIG     1      73.800  37.922  32.131  0.00  0.00     0.197 C 
ATOM     12  C   LIG     1      73.885  39.443  32.179  0.00  0.00     0.171 C 
ATOM     13  C   LIG     1      73.515  40.046  30.823  0.00  0.00     0.178 C 
ATOM     14  C   LIG     1      74.345  39.396  29.712  0.00  0.00     0.201 C 
BRANCH  12  15
ATOM     15  O   LIG     1      73.025  39.956  33.187  0.00  0.00    -0.387 OA
ATOM     16  H   LIG     1      72.929  39.269  33.869  0.00  0.00     0.210 HD
ENDBRANCH  12  15
BRANCH  13  17
ATOM     17  O   LIG     1      72.127  39.827  30.573  0.00  0.00    -0.386 OA
ATOM     18  H   LIG     1      71.732  40.686  30.343  0.00  0.00     0.210 HD
ENDBRANCH  13  17
BRANCH  14  19
ATOM     19  O   LIG     1      75.700  39.826  29.822  0.00  0.00    -0.384 OA
ATOM     20  H   LIG     1      76.150  39.261  30.471  0.00  0.00     0.210 HD
ENDBRANCH  14  19
ENDBRANCH   8   9
ENDBRANCH   7   8
ENDBRANCH   6   7
BRANCH   5  21
ATOM     21  O   LIG     1      70.252  36.413  29.451  0.00  0.00    -0.386 OA
ATOM     22  H   LIG     1      70.576  37.263  29.105  0.00  0.00     0.210 HD
ENDBRANCH   5  21
BRANCH   2  23
ATOM     23  O   LIG     1      73.347  33.320  32.811  0.00  0.00    -0.345 OA
BRANCH  23  24
ATOM     24  C   LIG     1      74.198  34.357  33.272  0.00  0.00     0.190 C 
BRANCH  24  25
ATOM     25  C   LIG     1      75.029  33.834  34.398  0.00  0.00     0.001 C 
ATOM     26  C   LIG     1      74.536  33.071  35.386  0.00  0.00     0.006 C 
BRANCH  26  27
ATOM     27  C   LIG     1      75.318  32.522  36.507  0.00  0.00    -0.025 A 
ATOM     28  C   LIG     1      76.279  33.313  37.117  0.00  0.00     0.008 A 
ATOM     29  C   LIG     1      77.019  32.793  38.178  0.00  0.00     0.001 A 
ATOM     30  C   LIG     1      76.791  31.488  38.615  0.00  0.00     0.000 A 
ATOM     31  C   LIG     1      75.821  30.704  37.992  0.00  0.00     0.001 A 
ATOM     32  C   LIG     1      75.080  31.224  36.931  0.00  0.00     0.008 A 
ENDBRANCH  26  27
ENDBRANCH  24  25
ENDBRANCH  23  24
ENDBRANCH   2  23
BRANCH   4  33
ATOM     33  O   LIG     1      69.467  36.057  32.210  0.00  0.00    -0.386 OA
ATOM     34  H   LIG     1      68.607  35.609  32.281  0.00  0.00     0.210 HD
ENDBRANCH   4  33
BRANCH   3  35
ATOM     35  O   LIG     1      70.565  33.541  33.280  0.00  0.00    -0.384 OA
ATOM     36  H   LIG     1      71.143  33.222  33.993  0.00  0.00     0.210 HD
ENDBRANCH   3  35
TORSDOF 13
ENDMDL
MODEL 6
REMARK VINA RESULT:      -8.0      2.808      5.838
REMARK  13 active torsions:
REMARK  status: ('A' for Active; 'I' for Inactive)
REMARK    1  A    between atoms: C_2  and  O_12 
REMARK    2  A    between atoms: C_3  and  O_10 
REMARK    3  A    between atoms: C_4  and  O_8 
REMARK    4  A    between atoms: C_5  and  O_6 
REMARK    5  A    between atoms: C_22  and  C_23 
REMARK    6  A    between atoms: O_12  and  C_13 
REMARK    7  A    between atoms: C_13  and  C_14 
REMARK    8  A    between atoms: C_15  and  C_16 
REMARK    9  A    between atoms: C_23  and  O_24 
REMARK   10  A    between atoms: O_24  and  C_25 
REMARK   11  A    between atoms: C_26  and  O_34 
REMARK   12  A    between atoms: C_27  and  O_32 
REMARK   13  A    between atoms: C_28  and  O_30 
ROOT
ATOM      1  O   LIG     1      72.815  35.852  30.714  0.00  0.00    -0.341 OA
ATOM      2  C   LIG     1      73.337  36.894  31.535  0.00  0.00     0.282 C 
ATOM      3  C   LIG     1      74.528  37.568  30.852  0.00  0.00     0.201 C 
ATOM      4  C   LIG     1      74.167  38.046  29.447  0.00  0.00     0.179 C 
ATOM      5  C   LIG     1      73.464  36.946  28.651  0.00  0.00     0.177 C 
ATOM      6  C   LIG     1      72.321  36.334  29.464  0.00  0.00     0.178 C 
ENDROOT
BRANCH   6   7
ATOM      7  C   LIG     1      71.679  35.155  28.737  0.00  0.00     0.197 C 
BRANCH   7   8
ATOM      8  O   LIG     1      72.295  33.961  29.183  0.00  0.00    -0.346 OA
BRANCH   8   9
ATOM      9  C   LIG     1      72.589  33.082  28.102  0.00  0.00     0.281 C 
ATOM     10  O   LIG     1      72.746  31.728  28.539  0.00  0.00    -0.346 OA
ATOM     11  C   LIG     1      73.891  31.519  29.363  0.00  0.00     0.197 C 
ATOM     12  C   LIG     1      75.167  31.873  28.609  0.00  0.00     0.171 C 
ATOM     13  C   LIG     1      75.123  33.324  28.126  0.00  0.00     0.178 C 
ATOM     14  C   LIG     1      73.829  33.581  27.345  0.00  0.00     0.201 C 
BRANCH  12  15
ATOM     15  O   LIG     1      76.303  31.675  29.438  0.00  0.00    -0.387 OA
ATOM     16  H   LIG     1      76.401  30.718  29.579  0.00  0.00     0.210 HD
ENDBRANCH  12  15
BRANCH  13  17
ATOM     17  O   LIG     1      75.182  34.198  29.252  0.00  0.00    -0.386 OA
ATOM     18  H   LIG     1      74.562  34.929  29.088  0.00  0.00     0.210 HD
ENDBRANCH  13  17
BRANCH  14  19
ATOM     19  O   LIG     1      73.888  32.896  26.096  0.00  0.00    -0.384 OA
ATOM     20  H   LIG     1      73.592  33.503  25.398  0.00  0.00     0.210 HD
ENDBRANCH  14  19
ENDBRANCH   8   9
ENDBRANCH   7   8
ENDBRANCH   6   7
BRANCH   5  21
ATOM     21  O   LIG     1      72.943  37.497  27.444  0.00  0.00    -0.386 OA
ATOM     22  H   LIG     1      73.401  37.071  26.698  0.00  0.00     0.210 HD
ENDBRANCH   5  21
BRANCH   2  23
ATOM     23  O   LIG     1      73.789  36.351  32.774  0.00  0.00    -0.345 OA
BRANCH  23  24
ATOM     24  C   LIG     1      74.706  35.289  32.570  0.00  0.00     0.190 C 
BRANCH  24  25
ATOM     25  C   LIG     1      74.753  34.449  33.805  0.00  0.00     0.001 C 
ATOM     26  C   LIG     1      75.863  34.279  34.540  0.00  0.00     0.006 C 
BRANCH  26  27
ATOM     27  C   LIG     1      75.953  33.474  35.770  0.00  0.00    -0.025 A 
ATOM     28  C   LIG     1      76.752  33.914  36.813  0.00  0.00     0.008 A 
ATOM     29  C   LIG     1      76.837  33.152  37.977  0.00  0.00     0.001 A 
ATOM     30  C   LIG     1      76.123  31.958  38.084  0.00  0.00     0.000 A 
ATOM     31  C   LIG     1      75.323  31.528  37.026  0.00  0.00     0.001 A 
ATOM     32  C   LIG     1      75.238  32.291  35.861  0.00  0.00     0.008 A 
ENDBRANCH  26  27
ENDBRANCH  24  25
ENDBRANCH  23  24
ENDBRANCH   2  23
BRANCH   4  33
ATOM     33  O   LIG     1      75.358  38.406  28.745  0.00  0.00    -0.386 OA
ATOM     34  H   LIG     1      75.213  38.208  27.805  0.00  0.00     0.210 HD
ENDBRANCH   4  33
BRANCH   3  35
ATOM     35  O   LIG     1      74.925  38.685  31.646  0.00  0.00    -0.384 OA
ATOM     36  H   LIG     1      75.763  39.025  31.291  0.00  0.00     0.210 HD
ENDBRANCH   3  35
TORSDOF 13
ENDMDL
MODEL 7
REMARK VINA RESULT:      -8.0     22.169     24.884
REMARK  13 active torsions:
REMARK  status: ('A' for Active; 'I' for Inactive)
REMARK    1  A    between atoms: C_2  and  O_12 
REMARK    2  A    between atoms: C_3  and  O_10 
REMARK    3  A    between atoms: C_4  and  O_8 
REMARK    4  A    between atoms: C_5  and  O_6 
REMARK    5  A    between atoms: C_22  and  C_23 
REMARK    6  A    between atoms: O_12  and  C_13 
REMARK    7  A    between atoms: C_13  and  C_14 
REMARK    8  A    between atoms: C_15  and  C_16 
REMARK    9  A    between atoms: C_23  and  O_24 
REMARK   10  A    between atoms: O_24  and  C_25 
REMARK   11  A    between atoms: C_26  and  O_34 
REMARK   12  A    between atoms: C_27  and  O_32 
REMARK   13  A    between atoms: C_28  and  O_30 
ROOT
ATOM      1  O   LIG     1      61.100  19.151  24.989  0.00  0.00    -0.341 OA
ATOM      2  C   LIG     1      62.328  18.726  24.403  0.00  0.00     0.282 C 
ATOM      3  C   LIG     1      62.909  17.543  25.179  0.00  0.00     0.201 C 
ATOM      4  C   LIG     1      61.892  16.410  25.312  0.00  0.00     0.179 C 
ATOM      5  C   LIG     1      60.539  16.934  25.791  0.00  0.00     0.177 C 
ATOM      6  C   LIG     1      60.095  18.137  24.955  0.00  0.00     0.178 C 
ENDROOT
BRANCH   6   7
ATOM      7  C   LIG     1      58.803  18.749  25.489  0.00  0.00     0.197 C 
BRANCH   7   8
ATOM      8  O   LIG     1      58.532  18.192  26.762  0.00  0.00    -0.346 OA
BRANCH   8   9
ATOM      9  C   LIG     1      57.159  18.325  27.115  0.00  0.00     0.281 C 
ATOM     10  O   LIG     1      56.985  19.092  28.311  0.00  0.00    -0.346 OA
ATOM     11  C   LIG     1      57.495  18.458  29.481  0.00  0.00     0.197 C 
ATOM     12  C   LIG     1      56.790  17.130  29.723  0.00  0.00     0.171 C 
ATOM     13  C   LIG     1      56.946  16.208  28.513  0.00  0.00     0.178 C 
ATOM     14  C   LIG     1      56.514  16.936  27.236  0.00  0.00     0.201 C 
BRANCH  12  15
ATOM     15  O   LIG     1      57.310  16.496  30.883  0.00  0.00    -0.387 OA
ATOM     16  H   LIG     1      58.276  16.439  30.779  0.00  0.00     0.210 HD
ENDBRANCH  12  15
BRANCH  13  17
ATOM     17  O   LIG     1      58.311  15.810  28.397  0.00  0.00    -0.386 OA
ATOM     18  H   LIG     1      58.336  15.003  27.854  0.00  0.00     0.210 HD
ENDBRANCH  13  17
BRANCH  14  19
ATOM     19  O   LIG     1      55.098  17.107  27.246  0.00  0.00    -0.384 OA
ATOM     20  H   LIG     1      54.732  16.599  27.989  0.00  0.00     0.210 HD
ENDBRANCH  14  19
ENDBRANCH   8   9
ENDBRANCH   7   8
ENDBRANCH   6   7
BRANCH   5  21
ATOM     21  O   LIG     1      59.566  15.898  25.682  0.00  0.00    -0.386 OA
ATOM     22  H   LIG     1      58.767  16.279  25.278  0.00  0.00     0.210 HD
ENDBRANCH   5  21
BRANCH   2  23
ATOM     23  O   LIG     1      63.276  19.790  24.445  0.00  0.00    -0.345 OA
BRANCH  23  24
ATOM     24  C   LIG     1      63.299  20.510  23.223  0.00  0.00     0.190 C 
BRANCH  24  25
ATOM     25  C   LIG     1      64.091  19.734  22.220  0.00  0.00     0.001 C 
ATOM     26  C   LIG     1      65.421  19.576  22.294  0.00  0.00     0.006 C 
BRANCH  26  27
ATOM     27  C   LIG     1      66.239  18.809  21.339  0.00  0.00    -0.025 A 
ATOM     28  C   LIG     1      67.604  19.043  21.271  0.00  0.00     0.008 A 
ATOM     29  C   LIG     1      68.378  18.317  20.367  0.00  0.00     0.001 A 
ATOM     30  C   LIG     1      67.778  17.366  19.542  0.00  0.00     0.000 A 
ATOM     31  C   LIG     1      66.405  17.140  19.621  0.00  0.00     0.001 A 
ATOM     32  C   LIG     1      65.630  17.867  20.525  0.00  0.00     0.008 A 
ENDBRANCH  26  27
ENDBRANCH  24  25
ENDBRANCH  23  24
ENDBRANCH   2  23
BRANCH   4  33
ATOM     33  O   LIG     1      62.362  15.459  26.269  0.00  0.00    -0.386 OA
ATOM     34  H   LIG     1      63.206  15.791  26.618  0.00  0.00     0.210 HD
ENDBRANCH   4  33
BRANCH   3  35
ATOM     35  O   LIG     1      64.058  17.070  24.477  0.00  0.00    -0.384 OA
ATOM     36  H   LIG     1      63.881  17.145  23.524  0.00  0.00     0.210 HD
ENDBRANCH   3  35
TORSDOF 13
ENDMDL
MODEL 8
REMARK VINA RESULT:      -7.8     20.361     23.718
REMARK  13 active torsions:
REMARK  status: ('A' for Active; 'I' for Inactive)
REMARK    1  A    between atoms: C_2  and  O_12 
REMARK    2  A    between atoms: C_3  and  O_10 
REMARK    3  A    between atoms: C_4  and  O_8 
REMARK    4  A    between atoms: C_5  and  O_6 
REMARK    5  A    between atoms: C_22  and  C_23 
REMARK    6  A    between atoms: O_12  and  C_13 
REMARK    7  A    between atoms: C_13  and  C_14 
REMARK    8  A    between atoms: C_15  and  C_16 
REMARK    9  A    between atoms: C_23  and  O_24 
REMARK   10  A    between atoms: O_24  and  C_25 
REMARK   11  A    between atoms: C_26  and  O_34 
REMARK   12  A    between atoms: C_27  and  O_32 
REMARK   13  A    between atoms: C_28  and  O_30 
ROOT
ATOM      1  O   LIG     1      66.599  17.247  22.340  0.00  0.00    -0.341 OA
ATOM      2  C   LIG     1      65.726  16.662  21.377  0.00  0.00     0.282 C 
ATOM      3  C   LIG     1      66.448  16.477  20.042  0.00  0.00     0.201 C 
ATOM      4  C   LIG     1      67.748  15.694  20.215  0.00  0.00     0.179 C 
ATOM      5  C   LIG     1      68.584  16.256  21.364  0.00  0.00     0.177 C 
ATOM      6  C   LIG     1      67.732  16.425  22.624  0.00  0.00     0.178 C 
ENDROOT
BRANCH   6   7
ATOM      7  C   LIG     1      68.515  17.094  23.751  0.00  0.00     0.197 C 
BRANCH   7   8
ATOM      8  O   LIG     1      69.576  17.839  23.181  0.00  0.00    -0.346 OA
BRANCH   8   9
ATOM      9  C   LIG     1      70.424  18.397  24.179  0.00  0.00     0.281 C 
ATOM     10  O   LIG     1      70.803  19.743  23.870  0.00  0.00    -0.346 OA
ATOM     11  C   LIG     1      71.641  19.855  22.722  0.00  0.00     0.197 C 
ATOM     12  C   LIG     1      72.940  19.085  22.928  0.00  0.00     0.171 C 
ATOM     13  C   LIG     1      72.652  17.613  23.229  0.00  0.00     0.178 C 
ATOM     14  C   LIG     1      71.652  17.497  24.384  0.00  0.00     0.201 C 
BRANCH  12  15
ATOM     15  O   LIG     1      73.766  19.189  21.777  0.00  0.00    -0.387 OA
ATOM     16  H   LIG     1      73.566  20.039  21.348  0.00  0.00     0.210 HD
ENDBRANCH  12  15
BRANCH  13  17
ATOM     17  O   LIG     1      72.111  16.991  22.065  0.00  0.00    -0.386 OA
ATOM     18  H   LIG     1      72.335  16.045  22.107  0.00  0.00     0.210 HD
ENDBRANCH  13  17
BRANCH  14  19
ATOM     19  O   LIG     1      72.287  17.887  25.599  0.00  0.00    -0.384 OA
ATOM     20  H   LIG     1      73.085  17.346  25.718  0.00  0.00     0.210 HD
ENDBRANCH  14  19
ENDBRANCH   8   9
ENDBRANCH   7   8
ENDBRANCH   6   7
BRANCH   5  21
ATOM     21  O   LIG     1      69.664  15.368  21.641  0.00  0.00    -0.386 OA
ATOM     22  H   LIG     1      69.571  14.593  21.060  0.00  0.00     0.210 HD
ENDBRANCH   5  21
BRANCH   2  23
ATOM     23  O   LIG     1      64.606  17.517  21.158  0.00  0.00    -0.345 OA
BRANCH  23  24
ATOM     24  C   LIG     1      64.515  18.517  22.161  0.00  0.00     0.190 C 
BRANCH  24  25
ATOM     25  C   LIG     1      63.114  18.554  22.679  0.00  0.00     0.001 C 
ATOM     26  C   LIG     1      62.781  18.192  23.928  0.00  0.00     0.006 C 
BRANCH  26  27
ATOM     27  C   LIG     1      61.418  18.226  24.487  0.00  0.00    -0.025 A 
ATOM     28  C   LIG     1      60.620  19.336  24.264  0.00  0.00     0.008 A 
ATOM     29  C   LIG     1      59.330  19.367  24.793  0.00  0.00     0.001 A 
ATOM     30  C   LIG     1      58.855  18.288  25.538  0.00  0.00     0.000 A 
ATOM     31  C   LIG     1      59.669  17.177  25.755  0.00  0.00     0.001 A 
ATOM     32  C   LIG     1      60.960  17.146  25.225  0.00  0.00     0.008 A 
ENDBRANCH  26  27
ENDBRANCH  24  25
ENDBRANCH  23  24
ENDBRANCH   2  23
BRANCH   4  33
ATOM     33  O   LIG     1      68.523  15.786  19.019  0.00  0.00    -0.386 OA
ATOM     34  H   LIG     1      69.393  15.396  19.205  0.00  0.00     0.210 HD
ENDBRANCH   4  33
BRANCH   3  35
ATOM     35  O   LIG     1      65.580  15.767  19.159  0.00  0.00    -0.384 OA
ATOM     36  H   LIG     1      64.765  15.553  19.644  0.00  0.00     0.210 HD
ENDBRANCH   3  35
TORSDOF 13
ENDMDL
MODEL 9
REMARK VINA RESULT:      -7.8     20.985     24.229
REMARK  13 active torsions:
REMARK  status: ('A' for Active; 'I' for Inactive)
REMARK    1  A    between atoms: C_2  and  O_12 
REMARK    2  A    between atoms: C_3  and  O_10 
REMARK    3  A    between atoms: C_4  and  O_8 
REMARK    4  A    between atoms: C_5  and  O_6 
REMARK    5  A    between atoms: C_22  and  C_23 
REMARK    6  A    between atoms: O_12  and  C_13 
REMARK    7  A    between atoms: C_13  and  C_14 
REMARK    8  A    between atoms: C_15  and  C_16 
REMARK    9  A    between atoms: C_23  and  O_24 
REMARK   10  A    between atoms: O_24  and  C_25 
REMARK   11  A    between atoms: C_26  and  O_34 
REMARK   12  A    between atoms: C_27  and  O_32 
REMARK   13  A    between atoms: C_28  and  O_30 
ROOT
ATOM      1  O   LIG     1      65.952  17.629  21.981  0.00  0.00    -0.341 OA
ATOM      2  C   LIG     1      65.106  16.509  22.230  0.00  0.00     0.282 C 
ATOM      3  C   LIG     1      64.633  15.891  20.914  0.00  0.00     0.201 C 
ATOM      4  C   LIG     1      65.812  15.551  20.003  0.00  0.00     0.179 C 
ATOM      5  C   LIG     1      66.781  16.727  19.889  0.00  0.00     0.177 C 
ATOM      6  C   LIG     1      67.141  17.271  21.274  0.00  0.00     0.178 C 
ENDROOT
BRANCH   6   7
ATOM      7  C   LIG     1      68.015  18.519  21.181  0.00  0.00     0.197 C 
BRANCH   7   8
ATOM      8  O   LIG     1      69.186  18.306  21.948  0.00  0.00    -0.346 OA
BRANCH   8   9
ATOM      9  C   LIG     1      70.329  18.111  21.122  0.00  0.00     0.281 C 
ATOM     10  O   LIG     1      71.007  16.886  21.424  0.00  0.00    -0.346 OA
ATOM     11  C   LIG     1      71.611  16.866  22.715  0.00  0.00     0.197 C 
ATOM     12  C   LIG     1      72.654  17.969  22.837  0.00  0.00     0.171 C 
ATOM     13  C   LIG     1      72.026  19.338  22.570  0.00  0.00     0.178 C 
ATOM     14  C   LIG     1      71.270  19.320  21.237  0.00  0.00     0.201 C 
BRANCH  12  15
ATOM     15  O   LIG     1      73.245  17.953  24.129  0.00  0.00    -0.387 OA
ATOM     16  H   LIG     1      72.596  18.321  24.753  0.00  0.00     0.210 HD
ENDBRANCH  12  15
BRANCH  13  17
ATOM     17  O   LIG     1      71.122  19.656  23.628  0.00  0.00    -0.386 OA
ATOM     18  H   LIG     1      71.596  20.229  24.255  0.00  0.00     0.210 HD
ENDBRANCH  13  17
BRANCH  14  19
ATOM     19  O   LIG     1      72.206  19.255  20.164  0.00  0.00    -0.384 OA
ATOM     20  H   LIG     1      71.713  19.221  19.328  0.00  0.00     0.210 HD
ENDBRANCH  14  19
ENDBRANCH   8   9
ENDBRANCH   7   8
ENDBRANCH   6   7
BRANCH   5  21
ATOM     21  O   LIG     1      67.968  16.298  19.228  0.00  0.00    -0.386 OA
ATOM     22  H   LIG     1      67.750  15.508  18.703  0.00  0.00     0.210 HD
ENDBRANCH   5  21
BRANCH   2  23
ATOM     23  O   LIG     1      63.954  16.928  22.959  0.00  0.00    -0.345 OA
BRANCH  23  24
ATOM     24  C   LIG     1      64.140  16.769  24.357  0.00  0.00     0.190 C 
BRANCH  24  25
ATOM     25  C   LIG     1      62.801  16.671  25.013  0.00  0.00     0.001 C 
ATOM     26  C   LIG     1      61.743  17.410  24.644  0.00  0.00     0.006 C 
BRANCH  26  27
ATOM     27  C   LIG     1      60.403  17.338  25.251  0.00  0.00    -0.025 A 
ATOM     28  C   LIG     1      59.662  18.499  25.400  0.00  0.00     0.008 A 
ATOM     29  C   LIG     1      58.393  18.430  25.974  0.00  0.00     0.001 A 
ATOM     30  C   LIG     1      57.882  17.202  26.394  0.00  0.00     0.000 A 
ATOM     31  C   LIG     1      58.640  16.042  26.238  0.00  0.00     0.001 A 
ATOM     32  C   LIG     1      59.909  16.110  25.662  0.00  0.00     0.008 A 
ENDBRANCH  26  27
ENDBRANCH  24  25
ENDBRANCH  23  24
ENDBRANCH   2  23
BRANCH   4  33
ATOM     33  O   LIG     1      65.329  15.247  18.693  0.00  0.00    -0.386 OA
ATOM     34  H   LIG     1      64.510  14.733  18.797  0.00  0.00     0.210 HD
ENDBRANCH   4  33
BRANCH   3  35
ATOM     35  O   LIG     1      63.906  14.700  21.214  0.00  0.00    -0.384 OA
ATOM     36  H   LIG     1      64.477  13.940  21.012  0.00  0.00     0.210 HD
ENDBRANCH   3  35
TORSDOF 13
ENDMDL
