MODEL 1
REMARK VINA RESULT:      -7.9      0.000      0.000
REMARK  13 active torsions:
REMARK  status: ('A' for Active; 'I' for Inactive)
REMARK    1  A    between atoms: C_2  and  O_12 
REMARK    2  A    between atoms: C_3  and  O_10 
REMARK    3  A    between atoms: C_4  and  O_8 
REMARK    4  A    between atoms: C_5  and  O_6 
REMARK    5  A    between atoms: C_22  and  C_23 
REMARK    6  A    between atoms: O_12  and  C_13 
REMARK    7  A    between atoms: C_13  and  C_14 
REMARK    8  A    between atoms: C_15  and  C_16 
REMARK    9  A    between atoms: C_23  and  O_24 
REMARK   10  A    between atoms: O_24  and  C_25 
REMARK   11  A    between atoms: C_26  and  O_34 
REMARK   12  A    between atoms: C_27  and  O_32 
REMARK   13  A    between atoms: C_28  and  O_30 
ROOT
ATOM      1  O   LIG     1     170.028 173.694 168.857  0.00  0.00    -0.341 OA
ATOM      2  C   LIG     1     168.672 173.897 169.250  0.00  0.00     0.282 C 
ATOM      3  C   LIG     1     168.446 173.391 170.675  0.00  0.00     0.201 C 
ATOM      4  C   LIG     1     169.444 174.011 171.651  0.00  0.00     0.179 C 
ATOM      5  C   LIG     1     170.873 173.915 171.119  0.00  0.00     0.177 C 
ATOM      6  C   LIG     1     170.950 174.417 169.675  0.00  0.00     0.178 C 
ENDROOT
BRANCH   6   7
ATOM      7  C   LIG     1     172.342 174.223 169.082  0.00  0.00     0.197 C 
BRANCH   7   8
ATOM      8  O   LIG     1     172.206 173.878 167.715  0.00  0.00    -0.346 OA
BRANCH   8   9
ATOM      9  C   LIG     1     173.182 172.924 167.311  0.00  0.00     0.281 C 
ATOM     10  O   LIG     1     173.484 173.024 165.915  0.00  0.00    -0.346 OA
ATOM     11  C   LIG     1     172.398 172.662 165.064  0.00  0.00     0.197 C 
ATOM     12  C   LIG     1     171.985 171.216 165.307  0.00  0.00     0.171 C 
ATOM     13  C   LIG     1     171.600 171.004 166.772  0.00  0.00     0.178 C 
ATOM     14  C   LIG     1     172.719 171.509 167.690  0.00  0.00     0.201 C 
BRANCH  12  15
ATOM     15  O   LIG     1     170.895 170.864 164.467  0.00  0.00    -0.387 OA
ATOM     16  H   LIG     1     171.022 169.940 164.192  0.00  0.00     0.210 HD
ENDBRANCH  12  15
BRANCH  13  17
ATOM     17  O   LIG     1     170.396 171.716 167.051  0.00  0.00    -0.386 OA
ATOM     18  H   LIG     1     169.809 171.116 167.544  0.00  0.00     0.210 HD
ENDBRANCH  13  17
BRANCH  14  19
ATOM     19  O   LIG     1     173.842 170.637 167.590  0.00  0.00    -0.384 OA
ATOM     20  H   LIG     1     174.633 171.118 167.883  0.00  0.00     0.210 HD
ENDBRANCH  14  19
ENDBRANCH   8   9
ENDBRANCH   7   8
ENDBRANCH   6   7
BRANCH   5  21
ATOM     21  O   LIG     1     171.736 174.700 171.937  0.00  0.00    -0.386 OA
ATOM     22  H   LIG     1     172.214 175.321 171.360  0.00  0.00     0.210 HD
ENDBRANCH   5  21
BRANCH   2  23
ATOM     23  O   LIG     1     167.805 173.172 168.381  0.00  0.00    -0.345 OA
BRANCH  23  24
ATOM     24  C   LIG     1     167.112 174.040 167.499  0.00  0.00     0.190 C 
BRANCH  24  25
ATOM     25  C   LIG     1     165.649 173.744 167.581  0.00  0.00     0.001 C 
ATOM     26  C   LIG     1     164.809 174.402 168.394  0.00  0.00     0.006 C 
BRANCH  26  27
ATOM     27  C   LIG     1     163.360 174.154 168.498  0.00  0.00    -0.025 A 
ATOM     28  C   LIG     1     162.728 174.323 169.720  0.00  0.00     0.008 A 
ATOM     29  C   LIG     1     161.357 174.089 169.817  0.00  0.00     0.001 A 
ATOM     30  C   LIG     1     160.635 173.689 168.693  0.00  0.00     0.000 A 
ATOM     31  C   LIG     1     161.284 173.523 167.470  0.00  0.00     0.001 A 
ATOM     32  C   LIG     1     162.656 173.757 167.372  0.00  0.00     0.008 A 
ENDBRANCH  26  27
ENDBRANCH  24  25
ENDBRANCH  23  24
ENDBRANCH   2  23
BRANCH   4  33
ATOM     33  O   LIG     1     169.389 173.312 172.896  0.00  0.00    -0.386 OA
ATOM     34  H   LIG     1     170.214 173.504 173.374  0.00  0.00     0.210 HD
ENDBRANCH   4  33
BRANCH   3  35
ATOM     35  O   LIG     1     167.119 173.740 171.067  0.00  0.00    -0.384 OA
ATOM     36  H   LIG     1     166.662 174.107 170.292  0.00  0.00     0.210 HD
ENDBRANCH   3  35
TORSDOF 13
ENDMDL
MODEL 2
REMARK VINA RESULT:      -7.9      3.999      8.880
REMARK  13 active torsions:
REMARK  status: ('A' for Active; 'I' for Inactive)
REMARK    1  A    between atoms: C_2  and  O_12 
REMARK    2  A    between atoms: C_3  and  O_10 
REMARK    3  A    between atoms: C_4  and  O_8 
REMARK    4  A    between atoms: C_5  and  O_6 
REMARK    5  A    between atoms: C_22  and  C_23 
REMARK    6  A    between atoms: O_12  and  C_13 
REMARK    7  A    between atoms: C_13  and  C_14 
REMARK    8  A    between atoms: C_15  and  C_16 
REMARK    9  A    between atoms: C_23  and  O_24 
REMARK   10  A    between atoms: O_24  and  C_25 
REMARK   11  A    between atoms: C_26  and  O_34 
REMARK   12  A    between atoms: C_27  and  O_32 
REMARK   13  A    between atoms: C_28  and  O_30 
ROOT
ATOM      1  O   LIG     1     164.652 172.544 169.235  0.00  0.00    -0.341 OA
ATOM      2  C   LIG     1     165.032 173.593 168.347  0.00  0.00     0.282 C 
ATOM      3  C   LIG     1     163.966 173.797 167.270  0.00  0.00     0.201 C 
ATOM      4  C   LIG     1     162.585 174.015 167.888  0.00  0.00     0.179 C 
ATOM      5  C   LIG     1     162.281 172.960 168.951  0.00  0.00     0.177 C 
ATOM      6  C   LIG     1     163.443 172.833 169.939  0.00  0.00     0.178 C 
ENDROOT
BRANCH   6   7
ATOM      7  C   LIG     1     163.213 171.705 170.940  0.00  0.00     0.197 C 
BRANCH   7   8
ATOM      8  O   LIG     1     163.810 170.524 170.435  0.00  0.00    -0.346 OA
BRANCH   8   9
ATOM      9  C   LIG     1     162.856 169.481 170.265  0.00  0.00     0.281 C 
ATOM     10  O   LIG     1     163.456 168.185 170.362  0.00  0.00    -0.346 OA
ATOM     11  C   LIG     1     164.359 167.888 169.299  0.00  0.00     0.197 C 
ATOM     12  C   LIG     1     163.638 167.923 167.957  0.00  0.00     0.171 C 
ATOM     13  C   LIG     1     162.987 169.289 167.730  0.00  0.00     0.178 C 
ATOM     14  C   LIG     1     162.114 169.663 168.932  0.00  0.00     0.201 C 
BRANCH  12  15
ATOM     15  O   LIG     1     164.544 167.639 166.900  0.00  0.00    -0.387 OA
ATOM     16  H   LIG     1     165.042 166.840 167.146  0.00  0.00     0.210 HD
ENDBRANCH  12  15
BRANCH  13  17
ATOM     17  O   LIG     1     164.005 170.273 167.555  0.00  0.00    -0.386 OA
ATOM     18  H   LIG     1     163.718 170.867 166.840  0.00  0.00     0.210 HD
ENDBRANCH  13  17
BRANCH  14  19
ATOM     19  O   LIG     1     160.958 168.828 168.954  0.00  0.00    -0.384 OA
ATOM     20  H   LIG     1     161.142 168.062 169.522  0.00  0.00     0.210 HD
ENDBRANCH  14  19
ENDBRANCH   8   9
ENDBRANCH   7   8
ENDBRANCH   6   7
BRANCH   5  21
ATOM     21  O   LIG     1     161.099 173.329 169.658  0.00  0.00    -0.386 OA
ATOM     22  H   LIG     1     161.369 173.770 170.482  0.00  0.00     0.210 HD
ENDBRANCH   5  21
BRANCH   2  23
ATOM     23  O   LIG     1     166.256 173.255 167.697  0.00  0.00    -0.345 OA
BRANCH  23  24
ATOM     24  C   LIG     1     167.360 173.910 168.302  0.00  0.00     0.190 C 
BRANCH  24  25
ATOM     25  C   LIG     1     168.577 173.059 168.130  0.00  0.00     0.001 C 
ATOM     26  C   LIG     1     169.792 173.558 167.854  0.00  0.00     0.006 C 
BRANCH  26  27
ATOM     27  C   LIG     1     171.020 172.761 167.691  0.00  0.00    -0.025 A 
ATOM     28  C   LIG     1     171.077 171.795 166.698  0.00  0.00     0.008 A 
ATOM     29  C   LIG     1     172.240 171.042 166.545  0.00  0.00     0.001 A 
ATOM     30  C   LIG     1     173.331 171.261 167.385  0.00  0.00     0.000 A 
ATOM     31  C   LIG     1     173.259 172.236 168.380  0.00  0.00     0.001 A 
ATOM     32  C   LIG     1     172.096 172.991 168.534  0.00  0.00     0.008 A 
ENDBRANCH  26  27
ENDBRANCH  24  25
ENDBRANCH  23  24
ENDBRANCH   2  23
BRANCH   4  33
ATOM     33  O   LIG     1     161.588 173.917 166.870  0.00  0.00    -0.386 OA
ATOM     34  H   LIG     1     161.185 174.797 166.772  0.00  0.00     0.210 HD
ENDBRANCH   4  33
BRANCH   3  35
ATOM     35  O   LIG     1     164.325 174.940 166.496  0.00  0.00    -0.384 OA
ATOM     36  H   LIG     1     163.940 174.837 165.609  0.00  0.00     0.210 HD
ENDBRANCH   3  35
TORSDOF 13
ENDMDL
MODEL 3
REMARK VINA RESULT:      -7.7     14.228     18.593
REMARK  13 active torsions:
REMARK  status: ('A' for Active; 'I' for Inactive)
REMARK    1  A    between atoms: C_2  and  O_12 
REMARK    2  A    between atoms: C_3  and  O_10 
REMARK    3  A    between atoms: C_4  and  O_8 
REMARK    4  A    between atoms: C_5  and  O_6 
REMARK    5  A    between atoms: C_22  and  C_23 
REMARK    6  A    between atoms: O_12  and  C_13 
REMARK    7  A    between atoms: C_13  and  C_14 
REMARK    8  A    between atoms: C_15  and  C_16 
REMARK    9  A    between atoms: C_23  and  O_24 
REMARK   10  A    between atoms: O_24  and  C_25 
REMARK   11  A    between atoms: C_26  and  O_34 
REMARK   12  A    between atoms: C_27  and  O_32 
REMARK   13  A    between atoms: C_28  and  O_30 
ROOT
ATOM      1  O   LIG     1     153.789 177.973 158.681  0.00  0.00    -0.341 OA
ATOM      2  C   LIG     1     154.127 179.134 157.926  0.00  0.00     0.282 C 
ATOM      3  C   LIG     1     153.873 180.399 158.747  0.00  0.00     0.201 C 
ATOM      4  C   LIG     1     154.588 180.341 160.096  0.00  0.00     0.179 C 
ATOM      5  C   LIG     1     154.328 179.012 160.804  0.00  0.00     0.177 C 
ATOM      6  C   LIG     1     154.584 177.834 159.859  0.00  0.00     0.178 C 
ENDROOT
BRANCH   6   7
ATOM      7  C   LIG     1     154.220 176.501 160.507  0.00  0.00     0.197 C 
BRANCH   7   8
ATOM      8  O   LIG     1     155.163 176.223 161.525  0.00  0.00    -0.346 OA
BRANCH   8   9
ATOM      9  C   LIG     1     154.585 175.476 162.591  0.00  0.00     0.281 C 
ATOM     10  O   LIG     1     154.072 176.323 163.624  0.00  0.00    -0.346 OA
ATOM     11  C   LIG     1     155.080 177.045 164.329  0.00  0.00     0.197 C 
ATOM     12  C   LIG     1     156.051 176.087 165.008  0.00  0.00     0.171 C 
ATOM     13  C   LIG     1     156.692 175.152 163.982  0.00  0.00     0.178 C 
ATOM     14  C   LIG     1     155.608 174.470 163.140  0.00  0.00     0.201 C 
BRANCH  12  15
ATOM     15  O   LIG     1     157.060 176.811 165.698  0.00  0.00    -0.387 OA
ATOM     16  H   LIG     1     156.716 177.023 166.583  0.00  0.00     0.210 HD
ENDBRANCH  12  15
BRANCH  13  17
ATOM     17  O   LIG     1     157.554 175.906 163.131  0.00  0.00    -0.386 OA
ATOM     18  H   LIG     1     158.033 175.275 162.566  0.00  0.00     0.210 HD
ENDBRANCH  13  17
BRANCH  14  19
ATOM     19  O   LIG     1     154.909 173.525 163.946  0.00  0.00    -0.384 OA
ATOM     20  H   LIG     1     154.719 173.935 164.806  0.00  0.00     0.210 HD
ENDBRANCH  14  19
ENDBRANCH   8   9
ENDBRANCH   7   8
ENDBRANCH   6   7
BRANCH   5  21
ATOM     21  O   LIG     1     155.188 178.904 161.935  0.00  0.00    -0.386 OA
ATOM     22  H   LIG     1     155.542 179.789 162.128  0.00  0.00     0.210 HD
ENDBRANCH   5  21
BRANCH   2  23
ATOM     23  O   LIG     1     153.318 179.200 156.753  0.00  0.00    -0.345 OA
BRANCH  23  24
ATOM     24  C   LIG     1     154.027 178.749 155.610  0.00  0.00     0.190 C 
BRANCH  24  25
ATOM     25  C   LIG     1     154.707 179.917 154.973  0.00  0.00     0.001 C 
ATOM     26  C   LIG     1     155.934 179.851 154.434  0.00  0.00     0.006 C 
BRANCH  26  27
ATOM     27  C   LIG     1     156.637 180.971 153.784  0.00  0.00    -0.025 A 
ATOM     28  C   LIG     1     156.177 181.446 152.566  0.00  0.00     0.008 A 
ATOM     29  C   LIG     1     156.843 182.506 151.951  0.00  0.00     0.001 A 
ATOM     30  C   LIG     1     157.961 183.076 152.560  0.00  0.00     0.000 A 
ATOM     31  C   LIG     1     158.412 182.587 153.786  0.00  0.00     0.001 A 
ATOM     32  C   LIG     1     157.746 181.527 154.401  0.00  0.00     0.008 A 
ENDBRANCH  26  27
ENDBRANCH  24  25
ENDBRANCH  23  24
ENDBRANCH   2  23
BRANCH   4  33
ATOM     33  O   LIG     1     154.106 181.391 160.936  0.00  0.00    -0.386 OA
ATOM     34  H   LIG     1     153.146 181.268 161.033  0.00  0.00     0.210 HD
ENDBRANCH   4  33
BRANCH   3  35
ATOM     35  O   LIG     1     154.353 181.519 158.003  0.00  0.00    -0.384 OA
ATOM     36  H   LIG     1     154.385 181.266 157.065  0.00  0.00     0.210 HD
ENDBRANCH   3  35
TORSDOF 13
ENDMDL
MODEL 4
REMARK VINA RESULT:      -7.7      1.280      2.084
REMARK  13 active torsions:
REMARK  status: ('A' for Active; 'I' for Inactive)
REMARK    1  A    between atoms: C_2  and  O_12 
REMARK    2  A    between atoms: C_3  and  O_10 
REMARK    3  A    between atoms: C_4  and  O_8 
REMARK    4  A    between atoms: C_5  and  O_6 
REMARK    5  A    between atoms: C_22  and  C_23 
REMARK    6  A    between atoms: O_12  and  C_13 
REMARK    7  A    between atoms: C_13  and  C_14 
REMARK    8  A    between atoms: C_15  and  C_16 
REMARK    9  A    between atoms: C_23  and  O_24 
REMARK   10  A    between atoms: O_24  and  C_25 
REMARK   11  A    between atoms: C_26  and  O_34 
REMARK   12  A    between atoms: C_27  and  O_32 
REMARK   13  A    between atoms: C_28  and  O_30 
ROOT
ATOM      1  O   LIG     1     169.041 173.835 168.588  0.00  0.00    -0.341 OA
ATOM      2  C   LIG     1     168.198 174.164 169.690  0.00  0.00     0.282 C 
ATOM      3  C   LIG     1     168.961 174.025 171.008  0.00  0.00     0.201 C 
ATOM      4  C   LIG     1     170.255 174.837 170.990  0.00  0.00     0.179 C 
ATOM      5  C   LIG     1     171.056 174.576 169.715  0.00  0.00     0.177 C 
ATOM      6  C   LIG     1     170.165 174.709 168.477  0.00  0.00     0.178 C 
ENDROOT
BRANCH   6   7
ATOM      7  C   LIG     1     170.913 174.339 167.200  0.00  0.00     0.197 C 
BRANCH   7   8
ATOM      8  O   LIG     1     172.011 173.513 167.544  0.00  0.00    -0.346 OA
BRANCH   8   9
ATOM      9  C   LIG     1     171.744 172.141 167.276  0.00  0.00     0.281 C 
ATOM     10  O   LIG     1     172.894 171.317 167.497  0.00  0.00    -0.346 OA
ATOM     11  C   LIG     1     173.959 171.560 166.581  0.00  0.00     0.197 C 
ATOM     12  C   LIG     1     173.510 171.287 165.151  0.00  0.00     0.171 C 
ATOM     13  C   LIG     1     172.300 172.151 164.792  0.00  0.00     0.178 C 
ATOM     14  C   LIG     1     171.201 171.983 165.847  0.00  0.00     0.201 C 
BRANCH  12  15
ATOM     15  O   LIG     1     174.572 171.542 164.241  0.00  0.00    -0.387 OA
ATOM     16  H   LIG     1     174.591 170.811 163.600  0.00  0.00     0.210 HD
ENDBRANCH  12  15
BRANCH  13  17
ATOM     17  O   LIG     1     172.699 173.519 164.730  0.00  0.00    -0.386 OA
ATOM     18  H   LIG     1     172.136 173.958 164.070  0.00  0.00     0.210 HD
ENDBRANCH  13  17
BRANCH  14  19
ATOM     19  O   LIG     1     170.631 170.682 165.733  0.00  0.00    -0.384 OA
ATOM     20  H   LIG     1     170.507 170.482 164.790  0.00  0.00     0.210 HD
ENDBRANCH  14  19
ENDBRANCH   8   9
ENDBRANCH   7   8
ENDBRANCH   6   7
BRANCH   5  21
ATOM     21  O   LIG     1     172.126 175.513 169.629  0.00  0.00    -0.386 OA
ATOM     22  H   LIG     1     172.719 175.360 170.386  0.00  0.00     0.210 HD
ENDBRANCH   5  21
BRANCH   2  23
ATOM     23  O   LIG     1     167.086 173.272 169.729  0.00  0.00    -0.345 OA
BRANCH  23  24
ATOM     24  C   LIG     1     166.645 172.938 168.422  0.00  0.00     0.190 C 
BRANCH  24  25
ATOM     25  C   LIG     1     165.151 172.982 168.391  0.00  0.00     0.001 C 
ATOM     26  C   LIG     1     164.434 174.005 168.881  0.00  0.00     0.006 C 
BRANCH  26  27
ATOM     27  C   LIG     1     162.964 174.098 168.859  0.00  0.00    -0.025 A 
ATOM     28  C   LIG     1     162.284 173.834 167.681  0.00  0.00     0.008 A 
ATOM     29  C   LIG     1     160.892 173.922 167.662  0.00  0.00     0.001 A 
ATOM     30  C   LIG     1     160.199 174.275 168.819  0.00  0.00     0.000 A 
ATOM     31  C   LIG     1     160.896 174.538 169.998  0.00  0.00     0.001 A 
ATOM     32  C   LIG     1     162.289 174.450 170.017  0.00  0.00     0.008 A 
ENDBRANCH  26  27
ENDBRANCH  24  25
ENDBRANCH  23  24
ENDBRANCH   2  23
BRANCH   4  33
ATOM     33  O   LIG     1     171.066 174.464 172.106  0.00  0.00    -0.386 OA
ATOM     34  H   LIG     1     170.476 174.096 172.784  0.00  0.00     0.210 HD
ENDBRANCH   4  33
BRANCH   3  35
ATOM     35  O   LIG     1     168.120 174.495 172.062  0.00  0.00    -0.384 OA
ATOM     36  H   LIG     1     167.197 174.403 171.774  0.00  0.00     0.210 HD
ENDBRANCH   3  35
TORSDOF 13
ENDMDL
MODEL 5
REMARK VINA RESULT:      -7.7      7.193      9.824
REMARK  13 active torsions:
REMARK  status: ('A' for Active; 'I' for Inactive)
REMARK    1  A    between atoms: C_2  and  O_12 
REMARK    2  A    between atoms: C_3  and  O_10 
REMARK    3  A    between atoms: C_4  and  O_8 
REMARK    4  A    between atoms: C_5  and  O_6 
REMARK    5  A    between atoms: C_22  and  C_23 
REMARK    6  A    between atoms: O_12  and  C_13 
REMARK    7  A    between atoms: C_13  and  C_14 
REMARK    8  A    between atoms: C_15  and  C_16 
REMARK    9  A    between atoms: C_23  and  O_24 
REMARK   10  A    between atoms: O_24  and  C_25 
REMARK   11  A    between atoms: C_26  and  O_34 
REMARK   12  A    between atoms: C_27  and  O_32 
REMARK   13  A    between atoms: C_28  and  O_30 
ROOT
ATOM      1  O   LIG     1     162.774 169.873 170.244  0.00  0.00    -0.341 OA
ATOM      2  C   LIG     1     163.578 169.428 171.334  0.00  0.00     0.282 C 
ATOM      3  C   LIG     1     163.891 167.938 171.195  0.00  0.00     0.201 C 
ATOM      4  C   LIG     1     164.512 167.624 169.834  0.00  0.00     0.179 C 
ATOM      5  C   LIG     1     163.706 168.254 168.699  0.00  0.00     0.177 C 
ATOM      6  C   LIG     1     163.432 169.733 168.984  0.00  0.00     0.178 C 
ENDROOT
BRANCH   6   7
ATOM      7  C   LIG     1     162.530 170.356 167.921  0.00  0.00     0.197 C 
BRANCH   7   8
ATOM      8  O   LIG     1     161.803 171.417 168.513  0.00  0.00    -0.346 OA
BRANCH   8   9
ATOM      9  C   LIG     1     162.394 172.682 168.235  0.00  0.00     0.281 C 
ATOM     10  O   LIG     1     162.694 173.409 169.431  0.00  0.00    -0.346 OA
ATOM     11  C   LIG     1     161.538 173.816 170.161  0.00  0.00     0.197 C 
ATOM     12  C   LIG     1     160.664 174.732 169.315  0.00  0.00     0.171 C 
ATOM     13  C   LIG     1     160.249 174.035 168.017  0.00  0.00     0.178 C 
ATOM     14  C   LIG     1     161.485 173.488 167.295  0.00  0.00     0.201 C 
BRANCH  12  15
ATOM     15  O   LIG     1     159.508 175.125 170.042  0.00  0.00    -0.387 OA
ATOM     16  H   LIG     1     159.673 174.935 170.981  0.00  0.00     0.210 HD
ENDBRANCH  12  15
BRANCH  13  17
ATOM     17  O   LIG     1     159.360 172.962 168.322  0.00  0.00    -0.386 OA
ATOM     18  H   LIG     1     158.460 173.331 168.364  0.00  0.00     0.210 HD
ENDBRANCH  13  17
BRANCH  14  19
ATOM     19  O   LIG     1     162.245 174.574 166.771  0.00  0.00    -0.384 OA
ATOM     20  H   LIG     1     162.933 174.807 167.415  0.00  0.00     0.210 HD
ENDBRANCH  14  19
ENDBRANCH   8   9
ENDBRANCH   7   8
ENDBRANCH   6   7
BRANCH   5  21
ATOM     21  O   LIG     1     164.436 168.137 167.480  0.00  0.00    -0.386 OA
ATOM     22  H   LIG     1     164.017 167.439 166.947  0.00  0.00     0.210 HD
ENDBRANCH   5  21
BRANCH   2  23
ATOM     23  O   LIG     1     162.875 169.618 172.560  0.00  0.00    -0.345 OA
BRANCH  23  24
ATOM     24  C   LIG     1     162.639 170.994 172.813  0.00  0.00     0.190 C 
BRANCH  24  25
ATOM     25  C   LIG     1     161.499 171.119 173.772  0.00  0.00     0.001 C 
ATOM     26  C   LIG     1     161.660 171.169 175.104  0.00  0.00     0.006 C 
BRANCH  26  27
ATOM     27  C   LIG     1     160.570 171.306 176.086  0.00  0.00    -0.025 A 
ATOM     28  C   LIG     1     160.874 171.647 177.394  0.00  0.00     0.008 A 
ATOM     29  C   LIG     1     159.842 171.777 178.323  0.00  0.00     0.001 A 
ATOM     30  C   LIG     1     158.520 171.563 177.933  0.00  0.00     0.000 A 
ATOM     31  C   LIG     1     158.229 171.220 176.613  0.00  0.00     0.001 A 
ATOM     32  C   LIG     1     159.262 171.090 175.683  0.00  0.00     0.008 A 
ENDBRANCH  26  27
ENDBRANCH  24  25
ENDBRANCH  23  24
ENDBRANCH   2  23
BRANCH   4  33
ATOM     33  O   LIG     1     164.527 166.210 169.632  0.00  0.00    -0.386 OA
ATOM     34  H   LIG     1     164.791 165.799 170.473  0.00  0.00     0.210 HD
ENDBRANCH   4  33
BRANCH   3  35
ATOM     35  O   LIG     1     164.805 167.575 172.229  0.00  0.00    -0.384 OA
ATOM     36  H   LIG     1     165.597 167.196 171.811  0.00  0.00     0.210 HD
ENDBRANCH   3  35
TORSDOF 13
ENDMDL
MODEL 6
REMARK VINA RESULT:      -7.7      3.617      5.770
REMARK  13 active torsions:
REMARK  status: ('A' for Active; 'I' for Inactive)
REMARK    1  A    between atoms: C_2  and  O_12 
REMARK    2  A    between atoms: C_3  and  O_10 
REMARK    3  A    between atoms: C_4  and  O_8 
REMARK    4  A    between atoms: C_5  and  O_6 
REMARK    5  A    between atoms: C_22  and  C_23 
REMARK    6  A    between atoms: O_12  and  C_13 
REMARK    7  A    between atoms: C_13  and  C_14 
REMARK    8  A    between atoms: C_15  and  C_16 
REMARK    9  A    between atoms: C_23  and  O_24 
REMARK   10  A    between atoms: O_24  and  C_25 
REMARK   11  A    between atoms: C_26  and  O_34 
REMARK   12  A    between atoms: C_27  and  O_32 
REMARK   13  A    between atoms: C_28  and  O_30 
ROOT
ATOM      1  O   LIG     1     170.246 174.622 170.282  0.00  0.00    -0.341 OA
ATOM      2  C   LIG     1     169.571 174.101 171.425  0.00  0.00     0.282 C 
ATOM      3  C   LIG     1     168.062 174.064 171.185  0.00  0.00     0.201 C 
ATOM      4  C   LIG     1     167.720 173.310 169.901  0.00  0.00     0.179 C 
ATOM      5  C   LIG     1     168.578 173.790 168.732  0.00  0.00     0.177 C 
ATOM      6  C   LIG     1     170.059 173.814 169.119  0.00  0.00     0.178 C 
ENDROOT
BRANCH   6   7
ATOM      7  C   LIG     1     170.925 174.400 168.008  0.00  0.00     0.197 C 
BRANCH   7   8
ATOM      8  O   LIG     1     171.388 173.340 167.191  0.00  0.00    -0.346 OA
BRANCH   8   9
ATOM      9  C   LIG     1     172.681 172.895 167.586  0.00  0.00     0.281 C 
ATOM     10  O   LIG     1     173.719 173.510 166.815  0.00  0.00    -0.346 OA
ATOM     11  C   LIG     1     173.720 173.126 165.442  0.00  0.00     0.197 C 
ATOM     12  C   LIG     1     173.923 171.623 165.305  0.00  0.00     0.171 C 
ATOM     13  C   LIG     1     172.837 170.860 166.065  0.00  0.00     0.178 C 
ATOM     14  C   LIG     1     172.753 171.362 167.510  0.00  0.00     0.201 C 
BRANCH  12  15
ATOM     15  O   LIG     1     173.911 171.244 163.936  0.00  0.00    -0.387 OA
ATOM     16  H   LIG     1     174.022 172.052 163.406  0.00  0.00     0.210 HD
ENDBRANCH  12  15
BRANCH  13  17
ATOM     17  O   LIG     1     171.582 171.057 165.417  0.00  0.00    -0.386 OA
ATOM     18  H   LIG     1     171.129 171.788 165.873  0.00  0.00     0.210 HD
ENDBRANCH  13  17
BRANCH  14  19
ATOM     19  O   LIG     1     173.912 170.939 168.225  0.00  0.00    -0.384 OA
ATOM     20  H   LIG     1     173.782 170.017 168.504  0.00  0.00     0.210 HD
ENDBRANCH  14  19
ENDBRANCH   8   9
ENDBRANCH   7   8
ENDBRANCH   6   7
BRANCH   5  21
ATOM     21  O   LIG     1     168.396 172.915 167.622  0.00  0.00    -0.386 OA
ATOM     22  H   LIG     1     168.571 172.007 167.924  0.00  0.00     0.210 HD
ENDBRANCH   5  21
BRANCH   2  23
ATOM     23  O   LIG     1     169.819 174.937 172.554  0.00  0.00    -0.345 OA
BRANCH  23  24
ATOM     24  C   LIG     1     170.247 176.229 172.156  0.00  0.00     0.190 C 
BRANCH  24  25
ATOM     25  C   LIG     1     169.356 177.248 172.791  0.00  0.00     0.001 C 
ATOM     26  C   LIG     1     169.812 178.378 173.354  0.00  0.00     0.006 C 
BRANCH  26  27
ATOM     27  C   LIG     1     168.973 179.416 173.977  0.00  0.00    -0.025 A 
ATOM     28  C   LIG     1     168.035 179.049 174.929  0.00  0.00     0.008 A 
ATOM     29  C   LIG     1     167.241 180.032 175.518  0.00  0.00     0.001 A 
ATOM     30  C   LIG     1     167.393 181.368 175.148  0.00  0.00     0.000 A 
ATOM     31  C   LIG     1     168.341 181.722 174.188  0.00  0.00     0.001 A 
ATOM     32  C   LIG     1     169.136 180.739 173.598  0.00  0.00     0.008 A 
ENDBRANCH  26  27
ENDBRANCH  24  25
ENDBRANCH  23  24
ENDBRANCH   2  23
BRANCH   4  33
ATOM     33  O   LIG     1     166.350 173.539 169.566  0.00  0.00    -0.386 OA
ATOM     34  H   LIG     1     166.321 174.303 168.965  0.00  0.00     0.210 HD
ENDBRANCH   4  33
BRANCH   3  35
ATOM     35  O   LIG     1     167.448 173.411 172.297  0.00  0.00    -0.384 OA
ATOM     36  H   LIG     1     167.648 172.462 172.236  0.00  0.00     0.210 HD
ENDBRANCH   3  35
TORSDOF 13
ENDMDL
MODEL 7
REMARK VINA RESULT:      -7.6     13.917     18.388
REMARK  13 active torsions:
REMARK  status: ('A' for Active; 'I' for Inactive)
REMARK    1  A    between atoms: C_2  and  O_12 
REMARK    2  A    between atoms: C_3  and  O_10 
REMARK    3  A    between atoms: C_4  and  O_8 
REMARK    4  A    between atoms: C_5  and  O_6 
REMARK    5  A    between atoms: C_22  and  C_23 
REMARK    6  A    between atoms: O_12  and  C_13 
REMARK    7  A    between atoms: C_13  and  C_14 
REMARK    8  A    between atoms: C_15  and  C_16 
REMARK    9  A    between atoms: C_23  and  O_24 
REMARK   10  A    between atoms: O_24  and  C_25 
REMARK   11  A    between atoms: C_26  and  O_34 
REMARK   12  A    between atoms: C_27  and  O_32 
REMARK   13  A    between atoms: C_28  and  O_30 
ROOT
ATOM      1  O   LIG     1     153.118 178.311 160.119  0.00  0.00    -0.341 OA
ATOM      2  C   LIG     1     153.805 178.806 158.972  0.00  0.00     0.282 C 
ATOM      3  C   LIG     1     154.003 180.318 159.077  0.00  0.00     0.201 C 
ATOM      4  C   LIG     1     154.690 180.699 160.388  0.00  0.00     0.179 C 
ATOM      5  C   LIG     1     154.020 180.021 161.582  0.00  0.00     0.177 C 
ATOM      6  C   LIG     1     153.848 178.521 161.328  0.00  0.00     0.178 C 
ENDROOT
BRANCH   6   7
ATOM      7  C   LIG     1     153.077 177.841 162.456  0.00  0.00     0.197 C 
BRANCH   7   8
ATOM      8  O   LIG     1     154.006 177.356 163.408  0.00  0.00    -0.346 OA
BRANCH   8   9
ATOM      9  C   LIG     1     155.016 176.557 162.801  0.00  0.00     0.281 C 
ATOM     10  O   LIG     1     154.620 175.186 162.685  0.00  0.00    -0.346 OA
ATOM     11  C   LIG     1     154.480 174.521 163.939  0.00  0.00     0.197 C 
ATOM     12  C   LIG     1     155.802 174.518 164.696  0.00  0.00     0.171 C 
ATOM     13  C   LIG     1     156.303 175.947 164.911  0.00  0.00     0.178 C 
ATOM     14  C   LIG     1     156.334 176.702 163.577  0.00  0.00     0.201 C 
BRANCH  12  15
ATOM     15  O   LIG     1     155.654 173.865 165.949  0.00  0.00    -0.387 OA
ATOM     16  H   LIG     1     156.491 173.409 166.143  0.00  0.00     0.210 HD
ENDBRANCH  12  15
BRANCH  13  17
ATOM     17  O   LIG     1     155.433 176.620 165.820  0.00  0.00    -0.386 OA
ATOM     18  H   LIG     1     154.993 177.336 165.329  0.00  0.00     0.210 HD
ENDBRANCH  13  17
BRANCH  14  19
ATOM     19  O   LIG     1     157.383 176.181 162.765  0.00  0.00    -0.384 OA
ATOM     20  H   LIG     1     158.081 175.836 163.347  0.00  0.00     0.210 HD
ENDBRANCH  14  19
ENDBRANCH   8   9
ENDBRANCH   7   8
ENDBRANCH   6   7
BRANCH   5  21
ATOM     21  O   LIG     1     154.820 180.214 162.745  0.00  0.00    -0.386 OA
ATOM     22  H   LIG     1     154.582 179.525 163.390  0.00  0.00     0.210 HD
ENDBRANCH   5  21
BRANCH   2  23
ATOM     23  O   LIG     1     153.036 178.543 157.799  0.00  0.00    -0.345 OA
BRANCH  23  24
ATOM     24  C   LIG     1     153.719 177.663 156.920  0.00  0.00     0.190 C 
BRANCH  24  25
ATOM     25  C   LIG     1     154.193 178.439 155.734  0.00  0.00     0.001 C 
ATOM     26  C   LIG     1     155.483 178.516 155.371  0.00  0.00     0.006 C 
BRANCH  26  27
ATOM     27  C   LIG     1     155.994 179.255 154.203  0.00  0.00    -0.025 A 
ATOM     28  C   LIG     1     157.153 178.822 153.580  0.00  0.00     0.008 A 
ATOM     29  C   LIG     1     157.636 179.522 152.475  0.00  0.00     0.001 A 
ATOM     30  C   LIG     1     156.955 180.646 152.008  0.00  0.00     0.000 A 
ATOM     31  C   LIG     1     155.790 181.070 152.645  0.00  0.00     0.001 A 
ATOM     32  C   LIG     1     155.306 180.369 153.751  0.00  0.00     0.008 A 
ENDBRANCH  26  27
ENDBRANCH  24  25
ENDBRANCH  23  24
ENDBRANCH   2  23
BRANCH   4  33
ATOM     33  O   LIG     1     154.602 182.113 160.577  0.00  0.00    -0.386 OA
ATOM     34  H   LIG     1     153.673 182.367 160.447  0.00  0.00     0.210 HD
ENDBRANCH   4  33
BRANCH   3  35
ATOM     35  O   LIG     1     154.811 180.741 157.978  0.00  0.00    -0.384 OA
ATOM     36  H   LIG     1     154.859 180.009 157.341  0.00  0.00     0.210 HD
ENDBRANCH   3  35
TORSDOF 13
ENDMDL
MODEL 8
REMARK VINA RESULT:      -7.5      2.720      8.494
REMARK  13 active torsions:
REMARK  status: ('A' for Active; 'I' for Inactive)
REMARK    1  A    between atoms: C_2  and  O_12 
REMARK    2  A    between atoms: C_3  and  O_10 
REMARK    3  A    between atoms: C_4  and  O_8 
REMARK    4  A    between atoms: C_5  and  O_6 
REMARK    5  A    between atoms: C_22  and  C_23 
REMARK    6  A    between atoms: O_12  and  C_13 
REMARK    7  A    between atoms: C_13  and  C_14 
REMARK    8  A    between atoms: C_15  and  C_16 
REMARK    9  A    between atoms: C_23  and  O_24 
REMARK   10  A    between atoms: O_24  and  C_25 
REMARK   11  A    between atoms: C_26  and  O_34 
REMARK   12  A    between atoms: C_27  and  O_32 
REMARK   13  A    between atoms: C_28  and  O_30 
ROOT
ATOM      1  O   LIG     1     167.931 173.441 169.767  0.00  0.00    -0.341 OA
ATOM      2  C   LIG     1     168.672 173.207 170.962  0.00  0.00     0.282 C 
ATOM      3  C   LIG     1     168.363 174.283 172.004  0.00  0.00     0.201 C 
ATOM      4  C   LIG     1     166.860 174.401 172.253  0.00  0.00     0.179 C 
ATOM      5  C   LIG     1     166.086 174.490 170.938  0.00  0.00     0.177 C 
ATOM      6  C   LIG     1     166.519 173.381 169.976  0.00  0.00     0.178 C 
ENDROOT
BRANCH   6   7
ATOM      7  C   LIG     1     165.845 173.519 168.614  0.00  0.00     0.197 C 
BRANCH   7   8
ATOM      8  O   LIG     1     164.563 172.922 168.683  0.00  0.00    -0.346 OA
BRANCH   8   9
ATOM      9  C   LIG     1     163.746 173.295 167.579  0.00  0.00     0.281 C 
ATOM     10  O   LIG     1     163.053 174.526 167.816  0.00  0.00    -0.346 OA
ATOM     11  C   LIG     1     162.074 174.444 168.849  0.00  0.00     0.197 C 
ATOM     12  C   LIG     1     161.006 173.417 168.497  0.00  0.00     0.171 C 
ATOM     13  C   LIG     1     161.637 172.044 168.259  0.00  0.00     0.178 C 
ATOM     14  C   LIG     1     162.774 172.155 167.239  0.00  0.00     0.201 C 
BRANCH  12  15
ATOM     15  O   LIG     1     160.040 173.330 169.535  0.00  0.00    -0.387 OA
ATOM     16  H   LIG     1     159.570 174.181 169.571  0.00  0.00     0.210 HD
ENDBRANCH  12  15
BRANCH  13  17
ATOM     17  O   LIG     1     162.149 171.540 169.492  0.00  0.00    -0.386 OA
ATOM     18  H   LIG     1     161.470 170.957 169.874  0.00  0.00     0.210 HD
ENDBRANCH  13  17
BRANCH  14  19
ATOM     19  O   LIG     1     162.227 172.414 165.948  0.00  0.00    -0.384 OA
ATOM     20  H   LIG     1     162.873 172.929 165.437  0.00  0.00     0.210 HD
ENDBRANCH  14  19
ENDBRANCH   8   9
ENDBRANCH   7   8
ENDBRANCH   6   7
BRANCH   5  21
ATOM     21  O   LIG     1     164.691 174.367 171.202  0.00  0.00    -0.386 OA
ATOM     22  H   LIG     1     164.384 175.206 171.588  0.00  0.00     0.210 HD
ENDBRANCH   5  21
BRANCH   2  23
ATOM     23  O   LIG     1     170.070 173.255 170.680  0.00  0.00    -0.345 OA
BRANCH  23  24
ATOM     24  C   LIG     1     170.387 174.339 169.823  0.00  0.00     0.190 C 
BRANCH  24  25
ATOM     25  C   LIG     1     171.298 173.849 168.744  0.00  0.00     0.001 C 
ATOM     26  C   LIG     1     171.044 172.760 168.002  0.00  0.00     0.006 C 
BRANCH  26  27
ATOM     27  C   LIG     1     171.903 172.249 166.920  0.00  0.00    -0.025 A 
ATOM     28  C   LIG     1     171.329 171.874 165.716  0.00  0.00     0.008 A 
ATOM     29  C   LIG     1     172.144 171.390 164.693  0.00  0.00     0.001 A 
ATOM     30  C   LIG     1     173.521 171.287 164.886  0.00  0.00     0.000 A 
ATOM     31  C   LIG     1     174.085 171.669 166.103  0.00  0.00     0.001 A 
ATOM     32  C   LIG     1     173.270 172.153 167.127  0.00  0.00     0.008 A 
ENDBRANCH  26  27
ENDBRANCH  24  25
ENDBRANCH  23  24
ENDBRANCH   2  23
BRANCH   4  33
ATOM     33  O   LIG     1     166.594 175.587 173.003  0.00  0.00    -0.386 OA
ATOM     34  H   LIG     1     166.062 175.330 173.775  0.00  0.00     0.210 HD
ENDBRANCH   4  33
BRANCH   3  35
ATOM     35  O   LIG     1     169.020 173.928 173.221  0.00  0.00    -0.384 OA
ATOM     36  H   LIG     1     168.494 174.279 173.959  0.00  0.00     0.210 HD
ENDBRANCH   3  35
TORSDOF 13
ENDMDL
MODEL 9
REMARK VINA RESULT:      -7.2      2.707      8.277
REMARK  13 active torsions:
REMARK  status: ('A' for Active; 'I' for Inactive)
REMARK    1  A    between atoms: C_2  and  O_12 
REMARK    2  A    between atoms: C_3  and  O_10 
REMARK    3  A    between atoms: C_4  and  O_8 
REMARK    4  A    between atoms: C_5  and  O_6 
REMARK    5  A    between atoms: C_22  and  C_23 
REMARK    6  A    between atoms: O_12  and  C_13 
REMARK    7  A    between atoms: C_13  and  C_14 
REMARK    8  A    between atoms: C_15  and  C_16 
REMARK    9  A    between atoms: C_23  and  O_24 
REMARK   10  A    between atoms: O_24  and  C_25 
REMARK   11  A    between atoms: C_26  and  O_34 
REMARK   12  A    between atoms: C_27  and  O_32 
REMARK   13  A    between atoms: C_28  and  O_30 
ROOT
ATOM      1  O   LIG     1     166.289 173.666 169.647  0.00  0.00    -0.341 OA
ATOM      2  C   LIG     1     167.445 172.931 170.043  0.00  0.00     0.282 C 
ATOM      3  C   LIG     1     168.261 173.726 171.063  0.00  0.00     0.201 C 
ATOM      4  C   LIG     1     167.401 174.159 172.249  0.00  0.00     0.179 C 
ATOM      5  C   LIG     1     166.095 174.801 171.781  0.00  0.00     0.177 C 
ATOM      6  C   LIG     1     165.402 173.922 170.737  0.00  0.00     0.178 C 
ENDROOT
BRANCH   6   7
ATOM      7  C   LIG     1     164.156 174.595 170.169  0.00  0.00     0.197 C 
BRANCH   7   8
ATOM      8  O   LIG     1     163.949 174.120 168.851  0.00  0.00    -0.346 OA
BRANCH   8   9
ATOM      9  C   LIG     1     162.628 173.620 168.671  0.00  0.00     0.281 C 
ATOM     10  O   LIG     1     162.459 172.326 169.261  0.00  0.00    -0.346 OA
ATOM     11  C   LIG     1     163.215 171.300 168.623  0.00  0.00     0.197 C 
ATOM     12  C   LIG     1     162.803 171.158 167.163  0.00  0.00     0.171 C 
ATOM     13  C   LIG     1     162.981 172.484 166.421  0.00  0.00     0.178 C 
ATOM     14  C   LIG     1     162.270 173.611 167.177  0.00  0.00     0.201 C 
BRANCH  12  15
ATOM     15  O   LIG     1     163.567 170.143 166.528  0.00  0.00    -0.387 OA
ATOM     16  H   LIG     1     163.775 170.450 165.629  0.00  0.00     0.210 HD
ENDBRANCH  12  15
BRANCH  13  17
ATOM     17  O   LIG     1     164.372 172.782 166.316  0.00  0.00    -0.386 OA
ATOM     18  H   LIG     1     164.694 172.391 165.486  0.00  0.00     0.210 HD
ENDBRANCH  13  17
BRANCH  14  19
ATOM     19  O   LIG     1     160.860 173.441 167.062  0.00  0.00    -0.384 OA
ATOM     20  H   LIG     1     160.423 174.099 167.628  0.00  0.00     0.210 HD
ENDBRANCH  14  19
ENDBRANCH   8   9
ENDBRANCH   7   8
ENDBRANCH   6   7
BRANCH   5  21
ATOM     21  O   LIG     1     165.229 174.978 172.898  0.00  0.00    -0.386 OA
ATOM     22  H   LIG     1     164.546 174.286 172.861  0.00  0.00     0.210 HD
ENDBRANCH   5  21
BRANCH   2  23
ATOM     23  O   LIG     1     168.274 172.688 168.908  0.00  0.00    -0.345 OA
BRANCH  23  24
ATOM     24  C   LIG     1     168.704 173.901 168.313  0.00  0.00     0.190 C 
BRANCH  24  25
ATOM     25  C   LIG     1     169.919 173.628 167.485  0.00  0.00     0.001 C 
ATOM     26  C   LIG     1     170.658 172.515 167.607  0.00  0.00     0.006 C 
BRANCH  26  27
ATOM     27  C   LIG     1     171.852 172.196 166.805  0.00  0.00    -0.025 A 
ATOM     28  C   LIG     1     171.740 172.104 165.427  0.00  0.00     0.008 A 
ATOM     29  C   LIG     1     172.871 171.802 164.669  0.00  0.00     0.001 A 
ATOM     30  C   LIG     1     174.098 171.596 165.297  0.00  0.00     0.000 A 
ATOM     31  C   LIG     1     174.196 171.693 166.685  0.00  0.00     0.001 A 
ATOM     32  C   LIG     1     173.065 171.995 167.444  0.00  0.00     0.008 A 
ENDBRANCH  26  27
ENDBRANCH  24  25
ENDBRANCH  23  24
ENDBRANCH   2  23
BRANCH   4  33
ATOM     33  O   LIG     1     168.113 175.124 173.026  0.00  0.00    -0.386 OA
ATOM     34  H   LIG     1     168.282 175.891 172.454  0.00  0.00     0.210 HD
ENDBRANCH   4  33
BRANCH   3  35
ATOM     35  O   LIG     1     169.326 172.896 171.528  0.00  0.00    -0.384 OA
ATOM     36  H   LIG     1     169.103 171.974 171.317  0.00  0.00     0.210 HD
ENDBRANCH   3  35
TORSDOF 13
ENDMDL
MODEL 10
REMARK VINA RESULT:      -7.2      2.658      8.264
REMARK  13 active torsions:
REMARK  status: ('A' for Active; 'I' for Inactive)
REMARK    1  A    between atoms: C_2  and  O_12 
REMARK    2  A    between atoms: C_3  and  O_10 
REMARK    3  A    between atoms: C_4  and  O_8 
REMARK    4  A    between atoms: C_5  and  O_6 
REMARK    5  A    between atoms: C_22  and  C_23 
REMARK    6  A    between atoms: O_12  and  C_13 
REMARK    7  A    between atoms: C_13  and  C_14 
REMARK    8  A    between atoms: C_15  and  C_16 
REMARK    9  A    between atoms: C_23  and  O_24 
REMARK   10  A    between atoms: O_24  and  C_25 
REMARK   11  A    between atoms: C_26  and  O_34 
REMARK   12  A    between atoms: C_27  and  O_32 
REMARK   13  A    between atoms: C_28  and  O_30 
ROOT
ATOM      1  O   LIG     1     167.828 173.954 170.219  0.00  0.00    -0.341 OA
ATOM      2  C   LIG     1     168.560 173.212 171.192  0.00  0.00     0.282 C 
ATOM      3  C   LIG     1     168.416 173.851 172.573  0.00  0.00     0.201 C 
ATOM      4  C   LIG     1     166.946 174.033 172.951  0.00  0.00     0.179 C 
ATOM      5  C   LIG     1     166.160 174.689 171.818  0.00  0.00     0.177 C 
ATOM      6  C   LIG     1     166.425 173.976 170.489  0.00  0.00     0.178 C 
ENDROOT
BRANCH   6   7
ATOM      7  C   LIG     1     165.743 174.684 169.322  0.00  0.00     0.197 C 
BRANCH   7   8
ATOM      8  O   LIG     1     164.429 174.172 169.191  0.00  0.00    -0.346 OA
BRANCH   8   9
ATOM      9  C   LIG     1     164.344 173.193 168.162  0.00  0.00     0.281 C 
ATOM     10  O   LIG     1     163.525 173.630 167.071  0.00  0.00    -0.346 OA
ATOM     11  C   LIG     1     162.148 173.775 167.408  0.00  0.00     0.197 C 
ATOM     12  C   LIG     1     161.565 172.445 167.869  0.00  0.00     0.171 C 
ATOM     13  C   LIG     1     162.346 171.900 169.066  0.00  0.00     0.178 C 
ATOM     14  C   LIG     1     163.844 171.862 168.746  0.00  0.00     0.201 C 
BRANCH  12  15
ATOM     15  O   LIG     1     160.195 172.597 168.215  0.00  0.00    -0.387 OA
ATOM     16  H   LIG     1     160.143 173.269 168.917  0.00  0.00     0.210 HD
ENDBRANCH  12  15
BRANCH  13  17
ATOM     17  O   LIG     1     162.120 172.740 170.197  0.00  0.00    -0.386 OA
ATOM     18  H   LIG     1     162.766 172.491 170.880  0.00  0.00     0.210 HD
ENDBRANCH  13  17
BRANCH  14  19
ATOM     19  O   LIG     1     164.096 170.838 167.788  0.00  0.00    -0.384 OA
ATOM     20  H   LIG     1     164.404 171.254 166.965  0.00  0.00     0.210 HD
ENDBRANCH  14  19
ENDBRANCH   8   9
ENDBRANCH   7   8
ENDBRANCH   6   7
BRANCH   5  21
ATOM     21  O   LIG     1     164.767 174.632 172.114  0.00  0.00    -0.386 OA
ATOM     22  H   LIG     1     164.370 175.481 171.854  0.00  0.00     0.210 HD
ENDBRANCH   5  21
BRANCH   2  23
ATOM     23  O   LIG     1     169.945 173.206 170.851  0.00  0.00    -0.345 OA
BRANCH  23  24
ATOM     24  C   LIG     1     170.347 174.451 170.302  0.00  0.00     0.190 C 
BRANCH  24  25
ATOM     25  C   LIG     1     171.246 174.194 169.135  0.00  0.00     0.001 C 
ATOM     26  C   LIG     1     171.376 172.991 168.555  0.00  0.00     0.006 C 
BRANCH  26  27
ATOM     27  C   LIG     1     172.237 172.695 167.397  0.00  0.00    -0.025 A 
ATOM     28  C   LIG     1     171.957 173.284 166.174  0.00  0.00     0.008 A 
ATOM     29  C   LIG     1     172.773 173.004 165.079  0.00  0.00     0.001 A 
ATOM     30  C   LIG     1     173.857 172.137 165.218  0.00  0.00     0.000 A 
ATOM     31  C   LIG     1     174.126 171.551 166.455  0.00  0.00     0.001 A 
ATOM     32  C   LIG     1     173.310 171.832 167.551  0.00  0.00     0.008 A 
ENDBRANCH  26  27
ENDBRANCH  24  25
ENDBRANCH  23  24
ENDBRANCH   2  23
BRANCH   4  33
ATOM     33  O   LIG     1     166.852 174.877 174.100  0.00  0.00    -0.386 OA
ATOM     34  H   LIG     1     167.736 174.919 174.504  0.00  0.00     0.210 HD
ENDBRANCH   4  33
BRANCH   3  35
ATOM     35  O   LIG     1     169.049 173.000 173.528  0.00  0.00    -0.384 OA
ATOM     36  H   LIG     1     169.825 173.467 173.880  0.00  0.00     0.210 HD
ENDBRANCH   3  35
TORSDOF 13
ENDMDL
