REMARK VINA RESULT:      -5.2      8.201      8.626
REMARK  5 active torsions:
REMARK  status: ('A' for Active; 'I' for Inactive)
REMARK    1  A    between atoms: C_1  and  O_7 
REMARK    2  A    between atoms: C_2  and  O_13 
REMARK    3  A    between atoms: C_4  and  C_9 
REMARK    4  A    between atoms: C_6  and  O_15 
REMARK    5  A    between atoms: C_9  and  O_11 
ROOT
ATOM      1  C   UNL     1     190.518 183.926 181.474  0.00  0.00     0.201 A 
ATOM      2  C   UNL     1     189.412 184.569 182.030  0.00  0.00     0.163 A 
ATOM      3  C   UNL     1     189.315 185.959 181.981  0.00  0.00     0.064 A 
ATOM      4  C   UNL     1     190.325 186.708 181.377  0.00  0.00     0.066 A 
ATOM      5  C   UNL     1     191.431 186.066 180.820  0.00  0.00     0.064 A 
ATOM      6  C   UNL     1     191.528 184.676 180.869  0.00  0.00     0.163 A 
ENDROOT
BRANCH   4   7
ATOM      7  C   UNL     1     190.224 188.158 181.325  0.00  0.00     0.337 C 
ATOM      8  O   UNL     1     190.620 188.935 182.199  0.00  0.00    -0.245 OA
BRANCH   7   9
ATOM      9  O   UNL     1     189.629 188.597 180.182  0.00  0.00    -0.477 OA
ATOM     10  H   UNL     1     190.208 189.212 179.682  0.00  0.00     0.295 HD
ENDBRANCH   7   9
ENDBRANCH   4   7
BRANCH   2  11
ATOM     11  O   UNL     1     188.418 183.848 182.622  0.00  0.00    -0.503 OA
ATOM     12  H   UNL     1     188.573 182.906 182.438  0.00  0.00     0.292 HD
ENDBRANCH   2  11
BRANCH   6  13
ATOM     13  O   UNL     1     192.613 184.060 180.323  0.00  0.00    -0.503 OA
ATOM     14  H   UNL     1     192.602 183.118 180.571  0.00  0.00     0.292 HD
ENDBRANCH   6  13
BRANCH   1  15
ATOM     15  O   UNL     1     190.613 182.567 181.520  0.00  0.00    -0.501 OA
ATOM     16  H   UNL     1     189.718 182.194 181.435  0.00  0.00     0.292 HD
ENDBRANCH   1  15
TORSDOF 5
