REMARK VINA RESULT:      -5.2      8.207      8.781
REMARK  5 active torsions:
REMARK  status: ('A' for Active; 'I' for Inactive)
REMARK    1  A    between atoms: C_1  and  O_7 
REMARK    2  A    between atoms: C_2  and  O_13 
REMARK    3  A    between atoms: C_4  and  C_9 
REMARK    4  A    between atoms: C_6  and  O_15 
REMARK    5  A    between atoms: C_9  and  O_11 
ROOT
ATOM      1  C   UNL     1     190.508 183.927 181.479  0.00  0.00     0.201 A 
ATOM      2  C   UNL     1     191.503 184.695 180.873  0.00  0.00     0.163 A 
ATOM      3  C   UNL     1     191.388 186.084 180.840  0.00  0.00     0.064 A 
ATOM      4  C   UNL     1     190.277 186.707 181.411  0.00  0.00     0.066 A 
ATOM      5  C   UNL     1     189.283 185.939 182.015  0.00  0.00     0.064 A 
ATOM      6  C   UNL     1     189.397 184.550 182.050  0.00  0.00     0.163 A 
ENDROOT
BRANCH   4   7
ATOM      7  C   UNL     1     190.158 188.156 181.376  0.00  0.00     0.337 C 
ATOM      8  O   UNL     1     190.461 188.921 182.297  0.00  0.00    -0.245 OA
BRANCH   7   9
ATOM      9  O   UNL     1     189.662 188.609 180.192  0.00  0.00    -0.477 OA
ATOM     10  H   UNL     1     190.377 188.888 179.580  0.00  0.00     0.295 HD
ENDBRANCH   7   9
ENDBRANCH   4   7
BRANCH   2  11
ATOM     11  O   UNL     1     192.594 184.100 180.314  0.00  0.00    -0.503 OA
ATOM     12  H   UNL     1     192.471 183.136 180.358  0.00  0.00     0.292 HD
ENDBRANCH   2  11
BRANCH   6  13
ATOM     13  O   UNL     1     188.419 183.810 182.643  0.00  0.00    -0.503 OA
ATOM     14  H   UNL     1     187.817 183.472 181.957  0.00  0.00     0.292 HD
ENDBRANCH   6  13
BRANCH   1  15
ATOM     15  O   UNL     1     190.621 182.569 181.513  0.00  0.00    -0.501 OA
ATOM     16  H   UNL     1     189.773 182.198 181.812  0.00  0.00     0.292 HD
ENDBRANCH   1  15
TORSDOF 5
