MODEL 1
REMARK VINA RESULT:      -8.1      0.000      0.000
REMARK  6 active torsions:
REMARK  status: ('A' for Active; 'I' for Inactive)
REMARK    1  A    between atoms: C_2  and  C_17 
REMARK    2  A    between atoms: C_3  and  O_15 
REMARK    3  A    between atoms: C_6  and  O_12 
REMARK    4  A    between atoms: C_8  and  O_10 
REMARK    5  A    between atoms: C_20  and  O_24 
REMARK    6  A    between atoms: C_21  and  O_22 
ROOT
ATOM      1  O   LIG     1     -28.806   4.662   5.383  0.00  0.00    -0.451 OA
ATOM      2  C   LIG     1     -27.971   4.200   6.389  0.00  0.00     0.181 A 
ATOM      3  C   LIG     1     -27.220   4.990   7.179  0.00  0.00     0.208 A 
ATOM      4  C   LIG     1     -27.286   6.459   6.992  0.00  0.00     0.238 A 
ATOM      5  C   LIG     1     -28.184   6.943   5.932  0.00  0.00     0.109 A 
ATOM      6  C   LIG     1     -28.320   8.310   5.679  0.00  0.00     0.135 A 
ATOM      7  C   LIG     1     -29.177   8.741   4.667  0.00  0.00     0.091 A 
ATOM      8  C   LIG     1     -29.895   7.812   3.911  0.00  0.00     0.124 A 
ATOM      9  C   LIG     1     -29.757   6.448   4.167  0.00  0.00     0.092 A 
ATOM     10  O   LIG     1     -26.628   7.228   7.681  0.00  0.00    -0.283 OA
ATOM     11  C   LIG     1     -28.901   6.014   5.180  0.00  0.00     0.147 A 
ENDROOT
BRANCH   2  12
ATOM     12  C   LIG     1     -27.962   2.731   6.500  0.00  0.00     0.025 A 
ATOM     13  C   LIG     1     -28.815   2.095   7.402  0.00  0.00     0.060 A 
ATOM     14  C   LIG     1     -28.808   0.704   7.507  0.00  0.00     0.159 A 
ATOM     15  C   LIG     1     -27.945  -0.051   6.710  0.00  0.00     0.158 A 
ATOM     16  C   LIG     1     -27.093   0.586   5.808  0.00  0.00     0.050 A 
ATOM     17  C   LIG     1     -27.101   1.977   5.703  0.00  0.00     0.015 A 
BRANCH  14  18
ATOM     18  O   LIG     1     -29.643   0.093   8.392  0.00  0.00    -0.503 OA
ATOM     19  H   LIG     1     -30.288   0.735   8.731  0.00  0.00     0.292 HD
ENDBRANCH  14  18
BRANCH  15  20
ATOM     20  O   LIG     1     -27.930  -1.410   6.802  0.00  0.00    -0.503 OA
ATOM     21  H   LIG     1     -27.169  -1.763   6.316  0.00  0.00     0.292 HD
ENDBRANCH  15  20
ENDBRANCH   2  12
BRANCH   3  22
ATOM     22  O   LIG     1     -26.375   4.497   8.149  0.00  0.00    -0.501 OA
ATOM     23  H   LIG     1     -26.658   4.810   9.024  0.00  0.00     0.292 HD
ENDBRANCH   3  22
BRANCH   8  24
ATOM     24  O   LIG     1     -30.730   8.237   2.924  0.00  0.00    -0.507 OA
ATOM     25  H   LIG     1     -31.642   8.244   3.264  0.00  0.00     0.292 HD
ENDBRANCH   8  24
BRANCH   6  26
ATOM     26  O   LIG     1     -27.643   9.259   6.385  0.00  0.00    -0.506 OA
ATOM     27  H   LIG     1     -28.255   9.789   6.917  0.00  0.00     0.292 HD
ENDBRANCH   6  26
TORSDOF 6
ENDMDL
MODEL 2
REMARK VINA RESULT:      -7.7      2.291      7.153
REMARK  6 active torsions:
REMARK  status: ('A' for Active; 'I' for Inactive)
REMARK    1  A    between atoms: C_2  and  C_17 
REMARK    2  A    between atoms: C_3  and  O_15 
REMARK    3  A    between atoms: C_6  and  O_12 
REMARK    4  A    between atoms: C_8  and  O_10 
REMARK    5  A    between atoms: C_20  and  O_24 
REMARK    6  A    between atoms: C_21  and  O_22 
ROOT
ATOM      1  O   LIG     1     -29.693   4.912   4.334  0.00  0.00    -0.451 OA
ATOM      2  C   LIG     1     -28.897   5.927   3.827  0.00  0.00     0.181 A 
ATOM      3  C   LIG     1     -27.552   5.931   3.861  0.00  0.00     0.208 A 
ATOM      4  C   LIG     1     -26.848   4.772   4.461  0.00  0.00     0.238 A 
ATOM      5  C   LIG     1     -27.698   3.692   4.984  0.00  0.00     0.109 A 
ATOM      6  C   LIG     1     -27.132   2.555   5.566  0.00  0.00     0.135 A 
ATOM      7  C   LIG     1     -27.961   1.547   6.056  0.00  0.00     0.091 A 
ATOM      8  C   LIG     1     -29.348   1.672   5.965  0.00  0.00     0.124 A 
ATOM      9  C   LIG     1     -29.910   2.809   5.384  0.00  0.00     0.092 A 
ATOM     10  O   LIG     1     -25.626   4.718   4.519  0.00  0.00    -0.283 OA
ATOM     11  C   LIG     1     -29.083   3.819   4.892  0.00  0.00     0.147 A 
ENDROOT
BRANCH   2  12
ATOM     12  C   LIG     1     -29.677   7.039   3.256  0.00  0.00     0.025 A 
ATOM     13  C   LIG     1     -29.698   7.241   1.876  0.00  0.00     0.060 A 
ATOM     14  C   LIG     1     -30.438   8.293   1.336  0.00  0.00     0.159 A 
ATOM     15  C   LIG     1     -31.156   9.144   2.177  0.00  0.00     0.158 A 
ATOM     16  C   LIG     1     -31.136   8.942   3.556  0.00  0.00     0.050 A 
ATOM     17  C   LIG     1     -30.397   7.890   4.096  0.00  0.00     0.015 A 
BRANCH  14  18
ATOM     18  O   LIG     1     -30.449   8.482  -0.013  0.00  0.00    -0.503 OA
ATOM     19  H   LIG     1     -30.673   7.649  -0.459  0.00  0.00     0.292 HD
ENDBRANCH  14  18
BRANCH  15  20
ATOM     20  O   LIG     1     -31.884  10.174   1.661  0.00  0.00    -0.503 OA
ATOM     21  H   LIG     1     -31.299  10.778   1.176  0.00  0.00     0.292 HD
ENDBRANCH  15  20
ENDBRANCH   2  12
BRANCH   3  22
ATOM     22  O   LIG     1     -26.790   6.973   3.378  0.00  0.00    -0.501 OA
ATOM     23  H   LIG     1     -27.326   7.530   2.790  0.00  0.00     0.292 HD
ENDBRANCH   3  22
BRANCH   8  24
ATOM     24  O   LIG     1     -30.154   0.686   6.445  0.00  0.00    -0.507 OA
ATOM     25  H   LIG     1     -29.647  -0.143   6.487  0.00  0.00     0.292 HD
ENDBRANCH   8  24
BRANCH   6  26
ATOM     26  O   LIG     1     -25.785   2.382   5.681  0.00  0.00    -0.506 OA
ATOM     27  H   LIG     1     -25.585   1.522   6.081  0.00  0.00     0.292 HD
ENDBRANCH   6  26
TORSDOF 6
ENDMDL
MODEL 3
REMARK VINA RESULT:      -7.5      7.503     11.257
REMARK  6 active torsions:
REMARK  status: ('A' for Active; 'I' for Inactive)
REMARK    1  A    between atoms: C_2  and  C_17 
REMARK    2  A    between atoms: C_3  and  O_15 
REMARK    3  A    between atoms: C_6  and  O_12 
REMARK    4  A    between atoms: C_8  and  O_10 
REMARK    5  A    between atoms: C_20  and  O_24 
REMARK    6  A    between atoms: C_21  and  O_22 
ROOT
ATOM      1  O   LIG     1     -31.045  11.025  -1.207  0.00  0.00    -0.451 OA
ATOM      2  C   LIG     1     -32.315  10.751  -0.724  0.00  0.00     0.181 A 
ATOM      3  C   LIG     1     -33.405  10.585  -1.495  0.00  0.00     0.208 A 
ATOM      4  C   LIG     1     -33.261  10.680  -2.967  0.00  0.00     0.238 A 
ATOM      5  C   LIG     1     -31.908  10.959  -3.474  0.00  0.00     0.109 A 
ATOM      6  C   LIG     1     -31.667  11.064  -4.846  0.00  0.00     0.135 A 
ATOM      7  C   LIG     1     -30.375  11.330  -5.299  0.00  0.00     0.091 A 
ATOM      8  C   LIG     1     -29.330  11.490  -4.388  0.00  0.00     0.124 A 
ATOM      9  C   LIG     1     -29.575  11.384  -3.019  0.00  0.00     0.092 A 
ATOM     10  O   LIG     1     -34.216  10.538  -3.720  0.00  0.00    -0.283 OA
ATOM     11  C   LIG     1     -30.866  11.117  -2.563  0.00  0.00     0.147 A 
ENDROOT
BRANCH   2  12
ATOM     12  C   LIG     1     -32.367  10.679   0.747  0.00  0.00     0.025 A 
ATOM     13  C   LIG     1     -31.807   9.589   1.413  0.00  0.00     0.060 A 
ATOM     14  C   LIG     1     -31.856   9.522   2.806  0.00  0.00     0.159 A 
ATOM     15  C   LIG     1     -32.467  10.545   3.532  0.00  0.00     0.158 A 
ATOM     16  C   LIG     1     -33.027  11.635   2.866  0.00  0.00     0.050 A 
ATOM     17  C   LIG     1     -32.978  11.702   1.474  0.00  0.00     0.015 A 
BRANCH  14  18
ATOM     18  O   LIG     1     -31.307   8.453   3.446  0.00  0.00    -0.503 OA
ATOM     19  H   LIG     1     -31.905   8.148   4.148  0.00  0.00     0.292 HD
ENDBRANCH  14  18
BRANCH  15  20
ATOM     20  O   LIG     1     -32.520  10.491   4.893  0.00  0.00    -0.503 OA
ATOM     21  H   LIG     1     -31.689  10.129   5.239  0.00  0.00     0.292 HD
ENDBRANCH  15  20
ENDBRANCH   2  12
BRANCH   3  22
ATOM     22  O   LIG     1     -34.661  10.346  -0.981  0.00  0.00    -0.501 OA
ATOM     23  H   LIG     1     -35.327  10.439  -1.681  0.00  0.00     0.292 HD
ENDBRANCH   3  22
BRANCH   8  24
ATOM     24  O   LIG     1     -28.071  11.749  -4.834  0.00  0.00    -0.507 OA
ATOM     25  H   LIG     1     -27.460  11.742  -4.077  0.00  0.00     0.292 HD
ENDBRANCH   8  24
BRANCH   6  26
ATOM     26  O   LIG     1     -32.650  10.918  -5.779  0.00  0.00    -0.506 OA
ATOM     27  H   LIG     1     -33.382  10.392  -5.422  0.00  0.00     0.292 HD
ENDBRANCH   6  26
TORSDOF 6
ENDMDL
MODEL 4
REMARK VINA RESULT:      -7.5      1.320      3.164
REMARK  6 active torsions:
REMARK  status: ('A' for Active; 'I' for Inactive)
REMARK    1  A    between atoms: C_2  and  C_17 
REMARK    2  A    between atoms: C_3  and  O_15 
REMARK    3  A    between atoms: C_6  and  O_12 
REMARK    4  A    between atoms: C_8  and  O_10 
REMARK    5  A    between atoms: C_20  and  O_24 
REMARK    6  A    between atoms: C_21  and  O_22 
ROOT
ATOM      1  O   LIG     1     -27.041   4.832   7.374  0.00  0.00    -0.451 OA
ATOM      2  C   LIG     1     -27.839   4.250   6.402  0.00  0.00     0.181 A 
ATOM      3  C   LIG     1     -28.517   4.933   5.461  0.00  0.00     0.208 A 
ATOM      4  C   LIG     1     -28.405   6.412   5.432  0.00  0.00     0.238 A 
ATOM      5  C   LIG     1     -27.547   7.022   6.459  0.00  0.00     0.109 A 
ATOM      6  C   LIG     1     -27.373   8.407   6.514  0.00  0.00     0.135 A 
ATOM      7  C   LIG     1     -26.554   8.959   7.499  0.00  0.00     0.091 A 
ATOM      8  C   LIG     1     -25.912   8.133   8.423  0.00  0.00     0.124 A 
ATOM      9  C   LIG     1     -26.089   6.751   8.365  0.00  0.00     0.092 A 
ATOM     10  O   LIG     1     -28.997   7.087   4.600  0.00  0.00    -0.283 OA
ATOM     11  C   LIG     1     -26.906   6.195   7.380  0.00  0.00     0.147 A 
ENDROOT
BRANCH   2  12
ATOM     12  C   LIG     1     -27.897   2.781   6.508  0.00  0.00     0.025 A 
ATOM     13  C   LIG     1     -28.807   2.180   7.378  0.00  0.00     0.060 A 
ATOM     14  C   LIG     1     -28.863   0.790   7.478  0.00  0.00     0.159 A 
ATOM     15  C   LIG     1     -28.007   0.001   6.709  0.00  0.00     0.158 A 
ATOM     16  C   LIG     1     -27.098   0.602   5.839  0.00  0.00     0.050 A 
ATOM     17  C   LIG     1     -27.043   1.992   5.738  0.00  0.00     0.015 A 
BRANCH  14  18
ATOM     18  O   LIG     1     -29.753   0.214   8.332  0.00  0.00    -0.503 OA
ATOM     19  H   LIG     1     -30.556  -0.040   7.847  0.00  0.00     0.292 HD
ENDBRANCH  14  18
BRANCH  15  20
ATOM     20  O   LIG     1     -28.053  -1.358   6.796  0.00  0.00    -0.503 OA
ATOM     21  H   LIG     1     -27.292  -1.680   7.305  0.00  0.00     0.292 HD
ENDBRANCH  15  20
ENDBRANCH   2  12
BRANCH   3  22
ATOM     22  O   LIG     1     -29.329   4.326   4.528  0.00  0.00    -0.501 OA
ATOM     23  H   LIG     1     -28.881   4.304   3.666  0.00  0.00     0.292 HD
ENDBRANCH   3  22
BRANCH   8  24
ATOM     24  O   LIG     1     -25.115   8.677   9.383  0.00  0.00    -0.507 OA
ATOM     25  H   LIG     1     -25.670   8.961  10.130  0.00  0.00     0.292 HD
ENDBRANCH   8  24
BRANCH   6  26
ATOM     26  O   LIG     1     -27.975   9.259   5.637  0.00  0.00    -0.506 OA
ATOM     27  H   LIG     1     -28.725   9.706   6.058  0.00  0.00     0.292 HD
ENDBRANCH   6  26
TORSDOF 6
ENDMDL
MODEL 5
REMARK VINA RESULT:      -7.1     20.539     21.946
REMARK  6 active torsions:
REMARK  status: ('A' for Active; 'I' for Inactive)
REMARK    1  A    between atoms: C_2  and  C_17 
REMARK    2  A    between atoms: C_3  and  O_15 
REMARK    3  A    between atoms: C_6  and  O_12 
REMARK    4  A    between atoms: C_8  and  O_10 
REMARK    5  A    between atoms: C_20  and  O_24 
REMARK    6  A    between atoms: C_21  and  O_22 
ROOT
ATOM      1  O   LIG     1      -9.723   1.342  -3.021  0.00  0.00    -0.451 OA
ATOM      2  C   LIG     1      -8.695   1.056  -2.135  0.00  0.00     0.181 A 
ATOM      3  C   LIG     1      -7.481   0.603  -2.497  0.00  0.00     0.208 A 
ATOM      4  C   LIG     1      -7.191   0.405  -3.937  0.00  0.00     0.238 A 
ATOM      5  C   LIG     1      -8.281   0.723  -4.872  0.00  0.00     0.109 A 
ATOM      6  C   LIG     1      -8.107   0.573  -6.250  0.00  0.00     0.135 A 
ATOM      7  C   LIG     1      -9.159   0.880  -7.114  0.00  0.00     0.091 A 
ATOM      8  C   LIG     1     -10.376   1.335  -6.605  0.00  0.00     0.124 A 
ATOM      9  C   LIG     1     -10.546   1.483  -5.228  0.00  0.00     0.092 A 
ATOM     10  O   LIG     1      -6.104  -0.003  -4.327  0.00  0.00    -0.283 OA
ATOM     11  C   LIG     1      -9.496   1.178  -4.362  0.00  0.00     0.147 A 
ENDROOT
BRANCH   2  12
ATOM     12  C   LIG     1      -9.071   1.276  -0.727  0.00  0.00     0.025 A 
ATOM     13  C   LIG     1      -9.870   0.345  -0.065  0.00  0.00     0.060 A 
ATOM     14  C   LIG     1     -10.225   0.553   1.268  0.00  0.00     0.159 A 
ATOM     15  C   LIG     1      -9.781   1.693   1.938  0.00  0.00     0.158 A 
ATOM     16  C   LIG     1      -8.981   2.624   1.276  0.00  0.00     0.050 A 
ATOM     17  C   LIG     1      -8.626   2.416  -0.057  0.00  0.00     0.015 A 
BRANCH  14  18
ATOM     18  O   LIG     1     -11.007  -0.363   1.905  0.00  0.00    -0.503 OA
ATOM     19  H   LIG     1     -11.252  -1.071   1.288  0.00  0.00     0.292 HD
ENDBRANCH  14  18
BRANCH  15  20
ATOM     20  O   LIG     1     -10.119   1.906   3.241  0.00  0.00    -0.503 OA
ATOM     21  H   LIG     1     -10.769   1.244   3.523  0.00  0.00     0.292 HD
ENDBRANCH  15  20
ENDBRANCH   2  12
BRANCH   3  22
ATOM     22  O   LIG     1      -6.491   0.297  -1.589  0.00  0.00    -0.501 OA
ATOM     23  H   LIG     1      -5.627   0.573  -1.936  0.00  0.00     0.292 HD
ENDBRANCH   3  22
BRANCH   8  24
ATOM     24  O   LIG     1     -11.399   1.634  -7.452  0.00  0.00    -0.507 OA
ATOM     25  H   LIG     1     -12.073   0.935  -7.390  0.00  0.00     0.292 HD
ENDBRANCH   8  24
BRANCH   6  26
ATOM     26  O   LIG     1      -6.941   0.132  -6.800  0.00  0.00    -0.506 OA
ATOM     27  H   LIG     1      -6.859   0.440  -7.716  0.00  0.00     0.292 HD
ENDBRANCH   6  26
TORSDOF 6
ENDMDL
MODEL 6
REMARK VINA RESULT:      -7.0      8.896     11.617
REMARK  6 active torsions:
REMARK  status: ('A' for Active; 'I' for Inactive)
REMARK    1  A    between atoms: C_2  and  C_17 
REMARK    2  A    between atoms: C_3  and  O_15 
REMARK    3  A    between atoms: C_6  and  O_12 
REMARK    4  A    between atoms: C_8  and  O_10 
REMARK    5  A    between atoms: C_20  and  O_24 
REMARK    6  A    between atoms: C_21  and  O_22 
ROOT
ATOM      1  O   LIG     1     -32.031  11.404  -2.315  0.00  0.00    -0.451 OA
ATOM      2  C   LIG     1     -31.388  10.599  -1.387  0.00  0.00     0.181 A 
ATOM      3  C   LIG     1     -30.555   9.589  -1.700  0.00  0.00     0.208 A 
ATOM      4  C   LIG     1     -30.275   9.310  -3.129  0.00  0.00     0.238 A 
ATOM      5  C   LIG     1     -30.949  10.176  -4.107  0.00  0.00     0.109 A 
ATOM      6  C   LIG     1     -30.748   9.997  -5.478  0.00  0.00     0.135 A 
ATOM      7  C   LIG     1     -31.401  10.832  -6.385  0.00  0.00     0.091 A 
ATOM      8  C   LIG     1     -32.250  11.841  -5.925  0.00  0.00     0.124 A 
ATOM      9  C   LIG     1     -32.448  12.016  -4.555  0.00  0.00     0.092 A 
ATOM     10  O   LIG     1     -29.525   8.406  -3.475  0.00  0.00    -0.283 OA
ATOM     11  C   LIG     1     -31.795  11.183  -3.646  0.00  0.00     0.147 A 
ENDROOT
BRANCH   2  12
ATOM     12  C   LIG     1     -31.728  10.942   0.006  0.00  0.00     0.025 A 
ATOM     13  C   LIG     1     -30.715  11.108   0.950  0.00  0.00     0.060 A 
ATOM     14  C   LIG     1     -31.037  11.434   2.268  0.00  0.00     0.159 A 
ATOM     15  C   LIG     1     -32.372  11.592   2.641  0.00  0.00     0.158 A 
ATOM     16  C   LIG     1     -33.385  11.425   1.696  0.00  0.00     0.050 A 
ATOM     17  C   LIG     1     -33.063  11.100   0.379  0.00  0.00     0.015 A 
BRANCH  14  18
ATOM     18  O   LIG     1     -30.041  11.593   3.182  0.00  0.00    -0.503 OA
ATOM     19  H   LIG     1     -30.293  11.172   4.020  0.00  0.00     0.292 HD
ENDBRANCH  14  18
BRANCH  15  20
ATOM     20  O   LIG     1     -32.699  11.912   3.925  0.00  0.00    -0.503 OA
ATOM     21  H   LIG     1     -32.923  12.854   3.981  0.00  0.00     0.292 HD
ENDBRANCH  15  20
ENDBRANCH   2  12
BRANCH   3  22
ATOM     22  O   LIG     1     -29.958   8.785  -0.753  0.00  0.00    -0.501 OA
ATOM     23  H   LIG     1     -29.685   7.946  -1.158  0.00  0.00     0.292 HD
ENDBRANCH   3  22
BRANCH   8  24
ATOM     24  O   LIG     1     -32.886  12.653  -6.813  0.00  0.00    -0.507 OA
ATOM     25  H   LIG     1     -33.650  12.179  -7.183  0.00  0.00     0.292 HD
ENDBRANCH   8  24
BRANCH   6  26
ATOM     26  O   LIG     1     -29.932   9.029  -5.981  0.00  0.00    -0.506 OA
ATOM     27  H   LIG     1     -29.260   9.418  -6.561  0.00  0.00     0.292 HD
ENDBRANCH   6  26
TORSDOF 6
ENDMDL
MODEL 7
REMARK VINA RESULT:      -6.9     24.820     26.042
REMARK  6 active torsions:
REMARK  status: ('A' for Active; 'I' for Inactive)
REMARK    1  A    between atoms: C_2  and  C_17 
REMARK    2  A    between atoms: C_3  and  O_15 
REMARK    3  A    between atoms: C_6  and  O_12 
REMARK    4  A    between atoms: C_8  and  O_10 
REMARK    5  A    between atoms: C_20  and  O_24 
REMARK    6  A    between atoms: C_21  and  O_22 
ROOT
ATOM      1  O   LIG     1     -17.495   4.836 -16.950  0.00  0.00    -0.451 OA
ATOM      2  C   LIG     1     -18.061   3.967 -17.870  0.00  0.00     0.181 A 
ATOM      3  C   LIG     1     -18.685   4.352 -18.998  0.00  0.00     0.208 A 
ATOM      4  C   LIG     1     -18.771   5.799 -19.311  0.00  0.00     0.238 A 
ATOM      5  C   LIG     1     -18.156   6.714 -18.338  0.00  0.00     0.109 A 
ATOM      6  C   LIG     1     -18.180   8.096 -18.542  0.00  0.00     0.135 A 
ATOM      7  C   LIG     1     -17.591   8.941 -17.602  0.00  0.00     0.091 A 
ATOM      8  C   LIG     1     -16.981   8.410 -16.464  0.00  0.00     0.124 A 
ATOM      9  C   LIG     1     -16.959   7.029 -16.264  0.00  0.00     0.092 A 
ATOM     10  O   LIG     1     -19.325   6.209 -20.323  0.00  0.00    -0.283 OA
ATOM     11  C   LIG     1     -17.547   6.181 -17.203  0.00  0.00     0.147 A 
ENDROOT
BRANCH   2  12
ATOM     12  C   LIG     1     -17.936   2.552 -17.478  0.00  0.00     0.025 A 
ATOM     13  C   LIG     1     -18.855   1.988 -16.594  0.00  0.00     0.060 A 
ATOM     14  C   LIG     1     -18.736   0.648 -16.224  0.00  0.00     0.159 A 
ATOM     15  C   LIG     1     -17.696  -0.127 -16.738  0.00  0.00     0.158 A 
ATOM     16  C   LIG     1     -16.777   0.436 -17.623  0.00  0.00     0.050 A 
ATOM     17  C   LIG     1     -16.897   1.776 -17.993  0.00  0.00     0.015 A 
BRANCH  14  18
ATOM     18  O   LIG     1     -19.638   0.109 -15.358  0.00  0.00    -0.503 OA
ATOM     19  H   LIG     1     -19.436   0.395 -14.453  0.00  0.00     0.292 HD
ENDBRANCH  14  18
BRANCH  15  20
ATOM     20  O   LIG     1     -17.571  -1.438 -16.386  0.00  0.00    -0.503 OA
ATOM     21  H   LIG     1     -16.667  -1.609 -16.077  0.00  0.00     0.292 HD
ENDBRANCH  15  20
ENDBRANCH   2  12
BRANCH   3  22
ATOM     22  O   LIG     1     -19.268   3.464 -19.877  0.00  0.00    -0.501 OA
ATOM     23  H   LIG     1     -20.050   3.869 -20.286  0.00  0.00     0.292 HD
ENDBRANCH   3  22
BRANCH   8  24
ATOM     24  O   LIG     1     -16.407   9.238 -15.550  0.00  0.00    -0.507 OA
ATOM     25  H   LIG     1     -16.979  10.016 -15.427  0.00  0.00     0.292 HD
ENDBRANCH   8  24
BRANCH   6  26
ATOM     26  O   LIG     1     -18.762   8.667 -19.634  0.00  0.00    -0.506 OA
ATOM     27  H   LIG     1     -18.522   9.604 -19.696  0.00  0.00     0.292 HD
ENDBRANCH   6  26
TORSDOF 6
ENDMDL
MODEL 8
REMARK VINA RESULT:      -6.8     20.355     21.898
REMARK  6 active torsions:
REMARK  status: ('A' for Active; 'I' for Inactive)
REMARK    1  A    between atoms: C_2  and  C_17 
REMARK    2  A    between atoms: C_3  and  O_15 
REMARK    3  A    between atoms: C_6  and  O_12 
REMARK    4  A    between atoms: C_8  and  O_10 
REMARK    5  A    between atoms: C_20  and  O_24 
REMARK    6  A    between atoms: C_21  and  O_22 
ROOT
ATOM      1  O   LIG     1      -9.252   0.889  -1.755  0.00  0.00    -0.451 OA
ATOM      2  C   LIG     1      -8.579   1.782  -2.574  0.00  0.00     0.181 A 
ATOM      3  C   LIG     1      -8.089   2.969  -2.169  0.00  0.00     0.208 A 
ATOM      4  C   LIG     1      -8.253   3.363  -0.749  0.00  0.00     0.238 A 
ATOM      5  C   LIG     1      -8.957   2.405   0.117  0.00  0.00     0.109 A 
ATOM      6  C   LIG     1      -9.159   2.681   1.472  0.00  0.00     0.135 A 
ATOM      7  C   LIG     1      -9.831   1.755   2.270  0.00  0.00     0.091 A 
ATOM      8  C   LIG     1     -10.298   0.561   1.720  0.00  0.00     0.124 A 
ATOM      9  C   LIG     1     -10.094   0.289   0.367  0.00  0.00     0.092 A 
ATOM     10  O   LIG     1      -7.827   4.428  -0.321  0.00  0.00    -0.283 OA
ATOM     11  C   LIG     1      -9.421   1.212  -0.434  0.00  0.00     0.147 A 
ENDROOT
BRANCH   2  12
ATOM     12  C   LIG     1      -8.467   1.314  -3.966  0.00  0.00     0.025 A 
ATOM     13  C   LIG     1      -9.503   1.552  -4.869  0.00  0.00     0.060 A 
ATOM     14  C   LIG     1      -9.396   1.109  -6.187  0.00  0.00     0.159 A 
ATOM     15  C   LIG     1      -8.252   0.427  -6.603  0.00  0.00     0.158 A 
ATOM     16  C   LIG     1      -7.215   0.189  -5.701  0.00  0.00     0.050 A 
ATOM     17  C   LIG     1      -7.322   0.633  -4.383  0.00  0.00     0.015 A 
BRANCH  14  18
ATOM     18  O   LIG     1     -10.415   1.346  -7.059  0.00  0.00    -0.503 OA
ATOM     19  H   LIG     1     -10.355   2.254  -7.396  0.00  0.00     0.292 HD
ENDBRANCH  14  18
BRANCH  15  20
ATOM     20  O   LIG     1      -8.135  -0.009  -7.889  0.00  0.00    -0.503 OA
ATOM     21  H   LIG     1      -8.571   0.618  -8.488  0.00  0.00     0.292 HD
ENDBRANCH  15  20
ENDBRANCH   2  12
BRANCH   3  22
ATOM     22  O   LIG     1      -7.453   3.849  -3.016  0.00  0.00    -0.501 OA
ATOM     23  H   LIG     1      -8.095   4.481  -3.379  0.00  0.00     0.292 HD
ENDBRANCH   3  22
BRANCH   8  24
ATOM     24  O   LIG     1     -10.953  -0.339   2.502  0.00  0.00    -0.507 OA
ATOM     25  H   LIG     1     -11.003   0.009   3.409  0.00  0.00     0.292 HD
ENDBRANCH   8  24
BRANCH   6  26
ATOM     26  O   LIG     1      -8.725   3.831   2.060  0.00  0.00    -0.506 OA
ATOM     27  H   LIG     1      -8.911   3.818   3.011  0.00  0.00     0.292 HD
ENDBRANCH   6  26
TORSDOF 6
ENDMDL
MODEL 9
REMARK VINA RESULT:      -6.7     23.203     24.733
REMARK  6 active torsions:
REMARK  status: ('A' for Active; 'I' for Inactive)
REMARK    1  A    between atoms: C_2  and  C_17 
REMARK    2  A    between atoms: C_3  and  O_15 
REMARK    3  A    between atoms: C_6  and  O_12 
REMARK    4  A    between atoms: C_8  and  O_10 
REMARK    5  A    between atoms: C_20  and  O_24 
REMARK    6  A    between atoms: C_21  and  O_22 
ROOT
ATOM      1  O   LIG     1     -40.397   8.853 -14.200  0.00  0.00    -0.451 OA
ATOM      2  C   LIG     1     -40.229   7.900 -15.192  0.00  0.00     0.181 A 
ATOM      3  C   LIG     1     -40.117   8.177 -16.505  0.00  0.00     0.208 A 
ATOM      4  C   LIG     1     -40.153   9.593 -16.942  0.00  0.00     0.238 A 
ATOM      5  C   LIG     1     -40.318  10.600 -15.882  0.00  0.00     0.109 A 
ATOM      6  C   LIG     1     -40.361  11.962 -16.190  0.00  0.00     0.135 A 
ATOM      7  C   LIG     1     -40.519  12.895 -15.166  0.00  0.00     0.091 A 
ATOM      8  C   LIG     1     -40.633  12.471 -13.841  0.00  0.00     0.124 A 
ATOM      9  C   LIG     1     -40.590  11.110 -13.537  0.00  0.00     0.092 A 
ATOM     10  O   LIG     1     -40.054   9.908 -18.121  0.00  0.00    -0.283 OA
ATOM     11  C   LIG     1     -40.431  10.174 -14.560  0.00  0.00     0.147 A 
ENDROOT
BRANCH   2  12
ATOM     12  C   LIG     1     -40.210   6.522 -14.670  0.00  0.00     0.025 A 
ATOM     13  C   LIG     1     -41.036   6.168 -13.605  0.00  0.00     0.060 A 
ATOM     14  C   LIG     1     -41.019   4.863 -13.111  0.00  0.00     0.159 A 
ATOM     15  C   LIG     1     -40.172   3.913 -13.684  0.00  0.00     0.158 A 
ATOM     16  C   LIG     1     -39.345   4.267 -14.749  0.00  0.00     0.050 A 
ATOM     17  C   LIG     1     -39.364   5.572 -15.243  0.00  0.00     0.015 A 
BRANCH  14  18
ATOM     18  O   LIG     1     -41.829   4.528 -12.069  0.00  0.00    -0.503 OA
ATOM     19  H   LIG     1     -41.293   4.203 -11.328  0.00  0.00     0.292 HD
ENDBRANCH  14  18
BRANCH  15  20
ATOM     20  O   LIG     1     -40.147   2.635 -13.212  0.00  0.00    -0.503 OA
ATOM     21  H   LIG     1     -40.425   2.022 -13.910  0.00  0.00     0.292 HD
ENDBRANCH  15  20
ENDBRANCH   2  12
BRANCH   3  22
ATOM     22  O   LIG     1     -39.984   7.204 -17.471  0.00  0.00    -0.501 OA
ATOM     23  H   LIG     1     -39.840   7.617 -18.338  0.00  0.00     0.292 HD
ENDBRANCH   3  22
BRANCH   8  24
ATOM     24  O   LIG     1     -40.788  13.384 -12.844  0.00  0.00    -0.507 OA
ATOM     25  H   LIG     1     -41.471  13.066 -12.228  0.00  0.00     0.292 HD
ENDBRANCH   8  24
BRANCH   6  26
ATOM     26  O   LIG     1     -40.255  12.430 -17.466  0.00  0.00    -0.506 OA
ATOM     27  H   LIG     1     -41.132  12.615 -17.834  0.00  0.00     0.292 HD
ENDBRANCH   6  26
TORSDOF 6
ENDMDL
