MODEL 1
REMARK VINA RESULT:      -7.4      0.000      0.000
REMARK  Name = 2520
REMARK  21 active torsions:
REMARK  status: ('A' for Active; 'I' for Inactive)
REMARK    1  A    between atoms: O_1  and  C_19
REMARK    2  A    between atoms: O_1  and  C_28
REMARK    3  A    between atoms: O_2  and  C_23
REMARK    4  A    between atoms: O_2  and  C_31
REMARK    5  A    between atoms: O_3  and  C_27
REMARK    6  A    between atoms: O_3  and  C_32
REMARK    7  A    between atoms: O_4  and  C_30
REMARK    8  A    between atoms: O_4  and  C_33
REMARK    9  A    between atoms: N_5  and  C_12
REMARK   10  A    between atoms: N_5  and  C_18
REMARK   11  A    between atoms: N_5  and  C_20
REMARK   12  A    between atoms: C_7  and  C_8
REMARK   13  A    between atoms: C_7  and  C_9
REMARK   14  A    between atoms: C_7  and  C_11
REMARK   15  A    between atoms: C_7  and  C_15
REMARK   16  A    between atoms: C_8  and  C_13
REMARK   17  A    between atoms: C_8  and  C_14
REMARK   18  A    between atoms: C_9  and  C_10
REMARK   19  A    between atoms: C_10  and  C_12
REMARK   20  A    between atoms: C_18  and  C_22
REMARK   21  A    between atoms: C_22  and  C_24
REMARK                            x       y       z     vdW  Elec       q    Type
REMARK                         _______ _______ _______ _____ _____    ______ ____
ROOT
ATOM      1  C   UNL     1     147.486 144.782 141.640  0.00  0.00    +0.028 C 
ENDROOT
BRANCH   1   2
ATOM      2  C   UNL     1     146.910 146.084 140.975  0.00  0.00    +0.085 C 
BRANCH   2   7
ATOM      3  C   UNL     1     147.366 148.060 144.229  0.00  0.00    +0.162 A 
ATOM      4  C   UNL     1     147.086 149.362 143.810  0.00  0.00    +0.162 A 
ATOM      5  C   UNL     1     146.749 149.608 142.479  0.00  0.00    +0.050 A 
ATOM      6  C   UNL     1     146.692 148.554 141.567  0.00  0.00    +0.009 A 
ATOM      7  C   UNL     1     146.973 147.253 141.986  0.00  0.00    -0.024 A 
ATOM      8  C   UNL     1     147.310 147.006 143.318  0.00  0.00    +0.054 A 
BRANCH   3   9
ATOM      9  O   UNL     1     147.696 147.807 145.526  0.00  0.00    -0.491 OA
ATOM     10  C   UNL     1     149.083 147.667 145.826  0.00  0.00    +0.277 C 
ENDBRANCH   3   9
BRANCH   4  11
ATOM     11  O   UNL     1     147.138 150.400 144.691  0.00  0.00    -0.491 OA
ATOM     12  C   UNL     1     148.345 151.157 144.728  0.00  0.00    +0.277 C 
ENDBRANCH   4  11
ENDBRANCH   2   7
BRANCH   2  13
ATOM     13  C   UNL     1     145.398 145.850 140.549  0.00  0.00    +0.007 C 
ATOM     14  C   UNL     1     145.251 144.967 139.294  0.00  0.00    +0.009 C 
ATOM     15  C   UNL     1     144.511 145.265 141.661  0.00  0.00    +0.009 C 
ENDBRANCH   2  13
BRANCH   2  16
ATOM     16  C   UNL     1     147.713 146.333 139.743  0.00  0.00    +0.074 C 
ATOM     17  N   UNL     1     148.331 146.513 138.777  0.00  0.00    -0.196 NA
ENDBRANCH   2  16
ENDBRANCH   1   2
BRANCH   1  18
ATOM     18  C   UNL     1     148.979 144.509 141.361  0.00  0.00    +0.017 C 
BRANCH  18  19
ATOM     19  C   UNL     1     149.314 143.014 141.342  0.00  0.00    +0.084 C 
BRANCH  19  20
ATOM     20  N   UNL     1     150.323 142.669 142.335  0.00  0.00    -0.305 NA
ATOM     21  C   UNL     1     150.550 141.222 142.359  0.00  0.00    +0.104 C 
BRANCH  20  22
ATOM     22  C   UNL     1     151.578 143.374 142.063  0.00  0.00    +0.088 C 
BRANCH  22  23
ATOM     23  C   UNL     1     152.297 143.735 143.362  0.00  0.00    +0.050 C 
BRANCH  23  24
ATOM     24  C   UNL     1     152.531 145.222 143.471  0.00  0.00    -0.042 A 
ATOM     25  C   UNL     1     153.776 145.703 143.875  0.00  0.00    +0.007 A 
ATOM     26  C   UNL     1     153.991 147.078 143.977  0.00  0.00    +0.049 A 
ATOM     27  C   UNL     1     152.963 147.970 143.675  0.00  0.00    +0.161 A 
ATOM     28  C   UNL     1     151.717 147.488 143.272  0.00  0.00    +0.162 A 
ATOM     29  C   UNL     1     151.502 146.113 143.169  0.00  0.00    +0.053 A 
BRANCH  28  30
ATOM     30  O   UNL     1     150.705 148.349 142.974  0.00  0.00    -0.491 OA
ATOM     31  C   UNL     1     150.412 148.552 141.593  0.00  0.00    +0.277 C 
ENDBRANCH  28  30
BRANCH  27  32
ATOM     32  O   UNL     1     153.186 149.310 143.779  0.00  0.00    -0.491 OA
ATOM     33  C   UNL     1     154.429 149.799 143.280  0.00  0.00    +0.277 C 
ENDBRANCH  27  32
ENDBRANCH  23  24
ENDBRANCH  22  23
ENDBRANCH  20  22
ENDBRANCH  19  20
ENDBRANCH  18  19
ENDBRANCH   1  18
TORSDOF 14
ENDMDL
MODEL 2
REMARK VINA RESULT:      -7.3      2.844      7.527
REMARK  Name = 2520
REMARK  21 active torsions:
REMARK  status: ('A' for Active; 'I' for Inactive)
REMARK    1  A    between atoms: O_1  and  C_19
REMARK    2  A    between atoms: O_1  and  C_28
REMARK    3  A    between atoms: O_2  and  C_23
REMARK    4  A    between atoms: O_2  and  C_31
REMARK    5  A    between atoms: O_3  and  C_27
REMARK    6  A    between atoms: O_3  and  C_32
REMARK    7  A    between atoms: O_4  and  C_30
REMARK    8  A    between atoms: O_4  and  C_33
REMARK    9  A    between atoms: N_5  and  C_12
REMARK   10  A    between atoms: N_5  and  C_18
REMARK   11  A    between atoms: N_5  and  C_20
REMARK   12  A    between atoms: C_7  and  C_8
REMARK   13  A    between atoms: C_7  and  C_9
REMARK   14  A    between atoms: C_7  and  C_11
REMARK   15  A    between atoms: C_7  and  C_15
REMARK   16  A    between atoms: C_8  and  C_13
REMARK   17  A    between atoms: C_8  and  C_14
REMARK   18  A    between atoms: C_9  and  C_10
REMARK   19  A    between atoms: C_10  and  C_12
REMARK   20  A    between atoms: C_18  and  C_22
REMARK   21  A    between atoms: C_22  and  C_24
REMARK                            x       y       z     vdW  Elec       q    Type
REMARK                         _______ _______ _______ _____ _____    ______ ____
ROOT
ATOM      1  C   UNL     1     151.036 146.865 145.259  0.00  0.00    +0.028 C 
ENDROOT
BRANCH   1   2
ATOM      2  C   UNL     1     151.841 146.768 143.913  0.00  0.00    +0.085 C 
BRANCH   2   7
ATOM      3  C   UNL     1     150.476 143.802 141.903  0.00  0.00    +0.162 A 
ATOM      4  C   UNL     1     151.385 142.796 142.231  0.00  0.00    +0.162 A 
ATOM      5  C   UNL     1     152.442 143.069 143.100  0.00  0.00    +0.050 A 
ATOM      6  C   UNL     1     152.589 144.346 143.642  0.00  0.00    +0.009 A 
ATOM      7  C   UNL     1     151.679 145.351 143.313  0.00  0.00    -0.024 A 
ATOM      8  C   UNL     1     150.622 145.079 142.444  0.00  0.00    +0.054 A 
BRANCH   3   9
ATOM      9  O   UNL     1     149.440 143.548 141.055  0.00  0.00    -0.491 OA
ATOM     10  C   UNL     1     148.162 143.317 141.645  0.00  0.00    +0.277 C 
ENDBRANCH   3   9
BRANCH   4  11
ATOM     11  O   UNL     1     151.254 141.545 141.709  0.00  0.00    -0.491 OA
ATOM     12  C   UNL     1     152.266 141.110 140.804  0.00  0.00    +0.277 C 
ENDBRANCH   4  11
ENDBRANCH   2   7
BRANCH   2  13
ATOM     13  C   UNL     1     153.382 147.041 144.184  0.00  0.00    +0.007 C 
ATOM     14  C   UNL     1     154.151 147.481 142.923  0.00  0.00    +0.009 C 
ATOM     15  C   UNL     1     153.656 148.063 145.300  0.00  0.00    +0.009 C 
ENDBRANCH   2  13
BRANCH   2  16
ATOM     16  C   UNL     1     151.322 147.844 143.019  0.00  0.00    +0.074 C 
ATOM     17  N   UNL     1     150.927 148.674 142.311  0.00  0.00    -0.196 NA
ENDBRANCH   2  16
ENDBRANCH   1   2
BRANCH   1  18
ATOM     18  C   UNL     1     149.553 147.268 145.108  0.00  0.00    +0.017 C 
BRANCH  18  19
ATOM     19  C   UNL     1     149.241 148.624 145.751  0.00  0.00    +0.084 C 
BRANCH  19  20
ATOM     20  N   UNL     1     148.115 149.287 145.106  0.00  0.00    -0.305 NA
ATOM     21  C   UNL     1     148.563 150.481 144.386  0.00  0.00    +0.104 C 
BRANCH  20  22
ATOM     22  C   UNL     1     147.432 148.370 144.191  0.00  0.00    +0.088 C 
BRANCH  22  23
ATOM     23  C   UNL     1     147.274 148.996 142.805  0.00  0.00    +0.050 C 
BRANCH  23  24
ATOM     24  C   UNL     1     146.996 147.950 141.753  0.00  0.00    -0.042 A 
ATOM     25  C   UNL     1     145.734 147.361 141.673  0.00  0.00    +0.007 A 
ATOM     26  C   UNL     1     145.478 146.394 140.701  0.00  0.00    +0.049 A 
ATOM     27  C   UNL     1     146.482 146.016 139.811  0.00  0.00    +0.161 A 
ATOM     28  C   UNL     1     147.744 146.605 139.891  0.00  0.00    +0.162 A 
ATOM     29  C   UNL     1     148.001 147.573 140.863  0.00  0.00    +0.053 A 
BRANCH  28  30
ATOM     30  O   UNL     1     148.733 146.244 139.027  0.00  0.00    -0.491 OA
ATOM     31  C   UNL     1     150.065 146.623 139.371  0.00  0.00    +0.277 C 
ENDBRANCH  28  30
BRANCH  27  32
ATOM     32  O   UNL     1     146.219 145.070 138.866  0.00  0.00    -0.491 OA
ATOM     33  C   UNL     1     145.105 144.212 139.102  0.00  0.00    +0.277 C 
ENDBRANCH  27  32
ENDBRANCH  23  24
ENDBRANCH  22  23
ENDBRANCH  20  22
ENDBRANCH  19  20
ENDBRANCH  18  19
ENDBRANCH   1  18
TORSDOF 14
ENDMDL
MODEL 3
REMARK VINA RESULT:      -7.3      2.975      7.515
REMARK  Name = 2520
REMARK  21 active torsions:
REMARK  status: ('A' for Active; 'I' for Inactive)
REMARK    1  A    between atoms: O_1  and  C_19
REMARK    2  A    between atoms: O_1  and  C_28
REMARK    3  A    between atoms: O_2  and  C_23
REMARK    4  A    between atoms: O_2  and  C_31
REMARK    5  A    between atoms: O_3  and  C_27
REMARK    6  A    between atoms: O_3  and  C_32
REMARK    7  A    between atoms: O_4  and  C_30
REMARK    8  A    between atoms: O_4  and  C_33
REMARK    9  A    between atoms: N_5  and  C_12
REMARK   10  A    between atoms: N_5  and  C_18
REMARK   11  A    between atoms: N_5  and  C_20
REMARK   12  A    between atoms: C_7  and  C_8
REMARK   13  A    between atoms: C_7  and  C_9
REMARK   14  A    between atoms: C_7  and  C_11
REMARK   15  A    between atoms: C_7  and  C_15
REMARK   16  A    between atoms: C_8  and  C_13
REMARK   17  A    between atoms: C_8  and  C_14
REMARK   18  A    between atoms: C_9  and  C_10
REMARK   19  A    between atoms: C_10  and  C_12
REMARK   20  A    between atoms: C_18  and  C_22
REMARK   21  A    between atoms: C_22  and  C_24
REMARK                            x       y       z     vdW  Elec       q    Type
REMARK                         _______ _______ _______ _____ _____    ______ ____
ROOT
ATOM      1  C   UNL     1     151.239 147.174 145.322  0.00  0.00    +0.028 C 
ENDROOT
BRANCH   1   2
ATOM      2  C   UNL     1     151.774 147.092 143.846  0.00  0.00    +0.085 C 
BRANCH   2   7
ATOM      3  C   UNL     1     151.326 143.439 142.769  0.00  0.00    +0.162 A 
ATOM      4  C   UNL     1     150.211 143.526 141.934  0.00  0.00    +0.162 A 
ATOM      5  C   UNL     1     149.599 144.761 141.715  0.00  0.00    +0.050 A 
ATOM      6  C   UNL     1     150.102 145.908 142.329  0.00  0.00    +0.009 A 
ATOM      7  C   UNL     1     151.216 145.820 143.164  0.00  0.00    -0.024 A 
ATOM      8  C   UNL     1     151.829 144.585 143.384  0.00  0.00    +0.054 A 
BRANCH   3   9
ATOM      9  O   UNL     1     151.932 142.239 142.991  0.00  0.00    -0.491 OA
ATOM     10  C   UNL     1     152.943 141.844 142.066  0.00  0.00    +0.277 C 
ENDBRANCH   3   9
BRANCH   4  11
ATOM     11  O   UNL     1     149.711 142.414 141.328  0.00  0.00    -0.491 OA
ATOM     12  C   UNL     1     148.305 142.200 141.425  0.00  0.00    +0.277 C 
ENDBRANCH   4  11
ENDBRANCH   2   7
BRANCH   2  13
ATOM     13  C   UNL     1     153.361 147.023 143.849  0.00  0.00    +0.007 C 
ATOM     14  C   UNL     1     153.993 147.541 142.543  0.00  0.00    +0.009 C 
ATOM     15  C   UNL     1     154.023 147.752 145.031  0.00  0.00    +0.009 C 
ENDBRANCH   2  13
BRANCH   2  16
ATOM     16  C   UNL     1     151.359 148.351 143.163  0.00  0.00    +0.074 C 
ATOM     17  N   UNL     1     151.032 149.322 142.618  0.00  0.00    -0.196 NA
ENDBRANCH   2  16
ENDBRANCH   1   2
BRANCH   1  18
ATOM     18  C   UNL     1     149.703 147.234 145.459  0.00  0.00    +0.017 C 
BRANCH  18  19
ATOM     19  C   UNL     1     149.195 148.631 145.830  0.00  0.00    +0.084 C 
BRANCH  19  20
ATOM     20  N   UNL     1     147.923 148.938 145.189  0.00  0.00    -0.305 NA
ATOM     21  C   UNL     1     148.000 150.214 144.475  0.00  0.00    +0.104 C 
BRANCH  20  22
ATOM     22  C   UNL     1     147.537 147.866 144.268  0.00  0.00    +0.088 C 
BRANCH  22  23
ATOM     23  C   UNL     1     147.180 148.427 142.893  0.00  0.00    +0.050 C 
BRANCH  23  24
ATOM     24  C   UNL     1     146.782 147.332 141.934  0.00  0.00    -0.042 A 
ATOM     25  C   UNL     1     147.043 147.471 140.570  0.00  0.00    +0.007 A 
ATOM     26  C   UNL     1     146.674 146.458 139.684  0.00  0.00    +0.049 A 
ATOM     27  C   UNL     1     146.044 145.309 140.160  0.00  0.00    +0.161 A 
ATOM     28  C   UNL     1     145.783 145.171 141.524  0.00  0.00    +0.162 A 
ATOM     29  C   UNL     1     146.152 146.183 142.411  0.00  0.00    +0.053 A 
BRANCH  28  30
ATOM     30  O   UNL     1     145.169 144.052 142.001  0.00  0.00    -0.491 OA
ATOM     31  C   UNL     1     144.216 144.232 143.048  0.00  0.00    +0.277 C 
ENDBRANCH  28  30
BRANCH  27  32
ATOM     32  O   UNL     1     145.689 144.328 139.284  0.00  0.00    -0.491 OA
ATOM     33  C   UNL     1     144.384 144.409 138.716  0.00  0.00    +0.277 C 
ENDBRANCH  27  32
ENDBRANCH  23  24
ENDBRANCH  22  23
ENDBRANCH  20  22
ENDBRANCH  19  20
ENDBRANCH  18  19
ENDBRANCH   1  18
TORSDOF 14
ENDMDL
MODEL 4
REMARK VINA RESULT:      -7.3      1.741      5.569
REMARK  Name = 2520
REMARK  21 active torsions:
REMARK  status: ('A' for Active; 'I' for Inactive)
REMARK    1  A    between atoms: O_1  and  C_19
REMARK    2  A    between atoms: O_1  and  C_28
REMARK    3  A    between atoms: O_2  and  C_23
REMARK    4  A    between atoms: O_2  and  C_31
REMARK    5  A    between atoms: O_3  and  C_27
REMARK    6  A    between atoms: O_3  and  C_32
REMARK    7  A    between atoms: O_4  and  C_30
REMARK    8  A    between atoms: O_4  and  C_33
REMARK    9  A    between atoms: N_5  and  C_12
REMARK   10  A    between atoms: N_5  and  C_18
REMARK   11  A    between atoms: N_5  and  C_20
REMARK   12  A    between atoms: C_7  and  C_8
REMARK   13  A    between atoms: C_7  and  C_9
REMARK   14  A    between atoms: C_7  and  C_11
REMARK   15  A    between atoms: C_7  and  C_15
REMARK   16  A    between atoms: C_8  and  C_13
REMARK   17  A    between atoms: C_8  and  C_14
REMARK   18  A    between atoms: C_9  and  C_10
REMARK   19  A    between atoms: C_10  and  C_12
REMARK   20  A    between atoms: C_18  and  C_22
REMARK   21  A    between atoms: C_22  and  C_24
REMARK                            x       y       z     vdW  Elec       q    Type
REMARK                         _______ _______ _______ _____ _____    ______ ____
ROOT
ATOM      1  C   UNL     1     150.320 146.663 140.769  0.00  0.00    +0.028 C 
ENDROOT
BRANCH   1   2
ATOM      2  C   UNL     1     150.463 145.831 142.095  0.00  0.00    +0.085 C 
BRANCH   2   7
ATOM      3  C   UNL     1     153.325 147.944 143.526  0.00  0.00    +0.162 A 
ATOM      4  C   UNL     1     153.002 147.973 144.883  0.00  0.00    +0.162 A 
ATOM      5  C   UNL     1     151.862 147.313 145.343  0.00  0.00    +0.050 A 
ATOM      6  C   UNL     1     151.046 146.623 144.446  0.00  0.00    +0.009 A 
ATOM      7  C   UNL     1     151.368 146.595 143.089  0.00  0.00    -0.024 A 
ATOM      8  C   UNL     1     152.509 147.255 142.629  0.00  0.00    +0.054 A 
BRANCH   3   9
ATOM      9  O   UNL     1     154.435 148.584 143.064  0.00  0.00    -0.491 OA
ATOM     10  C   UNL     1     154.340 149.995 142.882  0.00  0.00    +0.277 C 
ENDBRANCH   3   9
BRANCH   4  11
ATOM     11  O   UNL     1     153.791 148.643 145.769  0.00  0.00    -0.491 OA
ATOM     12  C   UNL     1     153.226 149.787 146.404  0.00  0.00    +0.277 C 
ENDBRANCH   4  11
ENDBRANCH   2   7
BRANCH   2  13
ATOM     13  C   UNL     1     151.118 144.419 141.779  0.00  0.00    +0.007 C 
ATOM     14  C   UNL     1     151.947 143.859 142.952  0.00  0.00    +0.009 C 
ATOM     15  C   UNL     1     150.114 143.341 141.337  0.00  0.00    +0.009 C 
ENDBRANCH   2  13
BRANCH   2  16
ATOM     16  C   UNL     1     149.084 145.604 142.615  0.00  0.00    +0.074 C 
ATOM     17  N   UNL     1     148.005 145.425 143.005  0.00  0.00    -0.196 NA
ENDBRANCH   2  16
ENDBRANCH   1   2
BRANCH   1  18
ATOM     18  C   UNL     1     149.238 146.156 139.791  0.00  0.00    +0.017 C 
BRANCH  18  19
ATOM     19  C   UNL     1     148.234 147.245 139.403  0.00  0.00    +0.084 C 
BRANCH  19  20
ATOM     20  N   UNL     1     146.857 146.816 139.610  0.00  0.00    -0.305 NA
ATOM     21  C   UNL     1     146.762 145.355 139.586  0.00  0.00    +0.104 C 
BRANCH  20  22
ATOM     22  C   UNL     1     146.339 147.337 140.877  0.00  0.00    +0.088 C 
BRANCH  22  23
ATOM     23  C   UNL     1     146.677 148.818 141.040  0.00  0.00    +0.050 C 
BRANCH  23  24
ATOM     24  C   UNL     1     147.441 149.075 142.315  0.00  0.00    -0.042 A 
ATOM     25  C   UNL     1     146.829 148.856 143.550  0.00  0.00    +0.007 A 
ATOM     26  C   UNL     1     147.535 149.094 144.729  0.00  0.00    +0.049 A 
ATOM     27  C   UNL     1     148.851 149.553 144.674  0.00  0.00    +0.161 A 
ATOM     28  C   UNL     1     149.462 149.774 143.439  0.00  0.00    +0.162 A 
ATOM     29  C   UNL     1     148.756 149.534 142.259  0.00  0.00    +0.053 A 
BRANCH  28  30
ATOM     30  O   UNL     1     150.746 150.222 143.373  0.00  0.00    -0.491 OA
ATOM     31  C   UNL     1     151.070 151.105 142.300  0.00  0.00    +0.277 C 
ENDBRANCH  28  30
BRANCH  27  32
ATOM     32  O   UNL     1     149.529 149.783 145.833  0.00  0.00    -0.491 OA
ATOM     33  C   UNL     1     149.550 151.125 146.316  0.00  0.00    +0.277 C 
ENDBRANCH  27  32
ENDBRANCH  23  24
ENDBRANCH  22  23
ENDBRANCH  20  22
ENDBRANCH  19  20
ENDBRANCH  18  19
ENDBRANCH   1  18
TORSDOF 14
ENDMDL
MODEL 5
REMARK VINA RESULT:      -7.2      2.922      7.319
REMARK  Name = 2520
REMARK  21 active torsions:
REMARK  status: ('A' for Active; 'I' for Inactive)
REMARK    1  A    between atoms: O_1  and  C_19
REMARK    2  A    between atoms: O_1  and  C_28
REMARK    3  A    between atoms: O_2  and  C_23
REMARK    4  A    between atoms: O_2  and  C_31
REMARK    5  A    between atoms: O_3  and  C_27
REMARK    6  A    between atoms: O_3  and  C_32
REMARK    7  A    between atoms: O_4  and  C_30
REMARK    8  A    between atoms: O_4  and  C_33
REMARK    9  A    between atoms: N_5  and  C_12
REMARK   10  A    between atoms: N_5  and  C_18
REMARK   11  A    between atoms: N_5  and  C_20
REMARK   12  A    between atoms: C_7  and  C_8
REMARK   13  A    between atoms: C_7  and  C_9
REMARK   14  A    between atoms: C_7  and  C_11
REMARK   15  A    between atoms: C_7  and  C_15
REMARK   16  A    between atoms: C_8  and  C_13
REMARK   17  A    between atoms: C_8  and  C_14
REMARK   18  A    between atoms: C_9  and  C_10
REMARK   19  A    between atoms: C_10  and  C_12
REMARK   20  A    between atoms: C_18  and  C_22
REMARK   21  A    between atoms: C_22  and  C_24
REMARK                            x       y       z     vdW  Elec       q    Type
REMARK                         _______ _______ _______ _____ _____    ______ ____
ROOT
ATOM      1  C   UNL     1     150.891 147.264 145.189  0.00  0.00    +0.028 C 
ENDROOT
BRANCH   1   2
ATOM      2  C   UNL     1     151.594 146.928 143.824  0.00  0.00    +0.085 C 
BRANCH   2   7
ATOM      3  C   UNL     1     151.348 143.336 142.505  0.00  0.00    +0.162 A 
ATOM      4  C   UNL     1     149.983 143.228 142.235  0.00  0.00    +0.162 A 
ATOM      5  C   UNL     1     149.137 144.310 142.477  0.00  0.00    +0.050 A 
ATOM      6  C   UNL     1     149.655 145.501 142.987  0.00  0.00    +0.009 A 
ATOM      7  C   UNL     1     151.019 145.608 143.257  0.00  0.00    -0.024 A 
ATOM      8  C   UNL     1     151.866 144.525 143.016  0.00  0.00    +0.054 A 
BRANCH   3   9
ATOM      9  O   UNL     1     152.185 142.286 142.274  0.00  0.00    -0.491 OA
ATOM     10  C   UNL     1     152.752 141.647 143.415  0.00  0.00    +0.277 C 
ENDBRANCH   3   9
BRANCH   4  11
ATOM     11  O   UNL     1     149.465 142.071 141.736  0.00  0.00    -0.491 OA
ATOM     12  C   UNL     1     148.070 142.058 141.444  0.00  0.00    +0.277 C 
ENDBRANCH   4  11
ENDBRANCH   2   7
BRANCH   2  13
ATOM     13  C   UNL     1     153.156 146.757 144.048  0.00  0.00    +0.007 C 
ATOM     14  C   UNL     1     154.004 147.416 142.943  0.00  0.00    +0.009 C 
ATOM     15  C   UNL     1     153.659 147.262 145.411  0.00  0.00    +0.009 C 
ENDBRANCH   2  13
BRANCH   2  16
ATOM     16  C   UNL     1     151.373 148.096 142.923  0.00  0.00    +0.074 C 
ATOM     17  N   UNL     1     151.189 149.011 142.233  0.00  0.00    -0.196 NA
ENDBRANCH   2  16
ENDBRANCH   1   2
BRANCH   1  18
ATOM     18  C   UNL     1     150.150 148.618 145.229  0.00  0.00    +0.017 C 
BRANCH  18  19
ATOM     19  C   UNL     1     148.634 148.459 145.383  0.00  0.00    +0.084 C 
BRANCH  19  20
ATOM     20  N   UNL     1     147.913 149.641 144.928  0.00  0.00    -0.305 NA
ATOM     21  C   UNL     1     148.844 150.649 144.419  0.00  0.00    +0.104 C 
BRANCH  20  22
ATOM     22  C   UNL     1     146.938 149.284 143.895  0.00  0.00    +0.088 C 
BRANCH  22  23
ATOM     23  C   UNL     1     147.512 149.512 142.497  0.00  0.00    +0.050 C 
BRANCH  23  24
ATOM     24  C   UNL     1     147.201 148.359 141.576  0.00  0.00    -0.042 A 
ATOM     25  C   UNL     1     145.924 147.797 141.568  0.00  0.00    +0.007 A 
ATOM     26  C   UNL     1     145.638 146.731 140.716  0.00  0.00    +0.049 A 
ATOM     27  C   UNL     1     146.627 146.225 139.874  0.00  0.00    +0.161 A 
ATOM     28  C   UNL     1     147.904 146.786 139.882  0.00  0.00    +0.162 A 
ATOM     29  C   UNL     1     148.191 147.854 140.733  0.00  0.00    +0.053 A 
BRANCH  28  30
ATOM     30  O   UNL     1     148.879 146.301 139.063  0.00  0.00    -0.491 OA
ATOM     31  C   UNL     1     150.196 146.214 139.604  0.00  0.00    +0.277 C 
ENDBRANCH  28  30
BRANCH  27  32
ATOM     32  O   UNL     1     146.334 145.183 139.047  0.00  0.00    -0.491 OA
ATOM     33  C   UNL     1     145.342 144.261 139.493  0.00  0.00    +0.277 C 
ENDBRANCH  27  32
ENDBRANCH  23  24
ENDBRANCH  22  23
ENDBRANCH  20  22
ENDBRANCH  19  20
ENDBRANCH  18  19
ENDBRANCH   1  18
TORSDOF 14
ENDMDL
MODEL 6
REMARK VINA RESULT:      -7.2      2.914      7.657
REMARK  Name = 2520
REMARK  21 active torsions:
REMARK  status: ('A' for Active; 'I' for Inactive)
REMARK    1  A    between atoms: O_1  and  C_19
REMARK    2  A    between atoms: O_1  and  C_28
REMARK    3  A    between atoms: O_2  and  C_23
REMARK    4  A    between atoms: O_2  and  C_31
REMARK    5  A    between atoms: O_3  and  C_27
REMARK    6  A    between atoms: O_3  and  C_32
REMARK    7  A    between atoms: O_4  and  C_30
REMARK    8  A    between atoms: O_4  and  C_33
REMARK    9  A    between atoms: N_5  and  C_12
REMARK   10  A    between atoms: N_5  and  C_18
REMARK   11  A    between atoms: N_5  and  C_20
REMARK   12  A    between atoms: C_7  and  C_8
REMARK   13  A    between atoms: C_7  and  C_9
REMARK   14  A    between atoms: C_7  and  C_11
REMARK   15  A    between atoms: C_7  and  C_15
REMARK   16  A    between atoms: C_8  and  C_13
REMARK   17  A    between atoms: C_8  and  C_14
REMARK   18  A    between atoms: C_9  and  C_10
REMARK   19  A    between atoms: C_10  and  C_12
REMARK   20  A    between atoms: C_18  and  C_22
REMARK   21  A    between atoms: C_22  and  C_24
REMARK                            x       y       z     vdW  Elec       q    Type
REMARK                         _______ _______ _______ _____ _____    ______ ____
ROOT
ATOM      1  C   UNL     1     151.122 147.533 145.590  0.00  0.00    +0.028 C 
ENDROOT
BRANCH   1   2
ATOM      2  C   UNL     1     151.864 147.644 144.210  0.00  0.00    +0.085 C 
BRANCH   2   7
ATOM      3  C   UNL     1     150.935 145.082 141.512  0.00  0.00    +0.162 A 
ATOM      4  C   UNL     1     151.465 143.906 142.045  0.00  0.00    +0.162 A 
ATOM      5  C   UNL     1     152.125 143.934 143.274  0.00  0.00    +0.050 A 
ATOM      6  C   UNL     1     152.252 145.135 143.971  0.00  0.00    +0.009 A 
ATOM      7  C   UNL     1     151.722 146.310 143.438  0.00  0.00    -0.024 A 
ATOM      8  C   UNL     1     151.063 146.283 142.208  0.00  0.00    +0.054 A 
BRANCH   3   9
ATOM      9  O   UNL     1     150.290 145.068 140.312  0.00  0.00    -0.491 OA
ATOM     10  C   UNL     1     149.919 146.330 139.762  0.00  0.00    +0.277 C 
ENDBRANCH   3   9
BRANCH   4  11
ATOM     11  O   UNL     1     151.348 142.726 141.375  0.00  0.00    -0.491 OA
ATOM     12  C   UNL     1     151.593 141.533 142.115  0.00  0.00    +0.277 C 
ENDBRANCH   4  11
ENDBRANCH   2   7
BRANCH   2  13
ATOM     13  C   UNL     1     153.406 147.942 144.447  0.00  0.00    +0.007 C 
ATOM     14  C   UNL     1     154.167 148.270 143.147  0.00  0.00    +0.009 C 
ATOM     15  C   UNL     1     153.684 149.058 145.468  0.00  0.00    +0.009 C 
ENDBRANCH   2  13
BRANCH   2  16
ATOM     16  C   UNL     1     151.266 148.804 143.488  0.00  0.00    +0.074 C 
ATOM     17  N   UNL     1     150.816 149.710 142.920  0.00  0.00    -0.196 NA
ENDBRANCH   2  16
ENDBRANCH   1   2
BRANCH   1  18
ATOM     18  C   UNL     1     149.609 147.240 145.500  0.00  0.00    +0.017 C 
BRANCH  18  19
ATOM     19  C   UNL     1     148.749 148.474 145.789  0.00  0.00    +0.084 C 
BRANCH  19  20
ATOM     20  N   UNL     1     147.503 148.460 145.033  0.00  0.00    -0.305 NA
ATOM     21  C   UNL     1     147.324 149.720 144.310  0.00  0.00    +0.104 C 
BRANCH  20  22
ATOM     22  C   UNL     1     147.478 147.332 144.099  0.00  0.00    +0.088 C 
BRANCH  22  23
ATOM     23  C   UNL     1     147.464 147.820 142.651  0.00  0.00    +0.050 C 
BRANCH  23  24
ATOM     24  C   UNL     1     146.896 146.778 141.720  0.00  0.00    -0.042 A 
ATOM     25  C   UNL     1     146.241 147.169 140.553  0.00  0.00    +0.007 A 
ATOM     26  C   UNL     1     145.715 146.205 139.692  0.00  0.00    +0.049 A 
ATOM     27  C   UNL     1     145.843 144.851 140.000  0.00  0.00    +0.161 A 
ATOM     28  C   UNL     1     146.498 144.460 141.168  0.00  0.00    +0.162 A 
ATOM     29  C   UNL     1     147.025 145.424 142.028  0.00  0.00    +0.053 A 
BRANCH  28  30
ATOM     30  O   UNL     1     146.630 143.140 141.479  0.00  0.00    -0.491 OA
ATOM     31  C   UNL     1     147.958 142.630 141.591  0.00  0.00    +0.277 C 
ENDBRANCH  28  30
BRANCH  27  32
ATOM     32  O   UNL     1     145.325 143.919 139.152  0.00  0.00    -0.491 OA
ATOM     33  C   UNL     1     143.957 143.562 139.340  0.00  0.00    +0.277 C 
ENDBRANCH  27  32
ENDBRANCH  23  24
ENDBRANCH  22  23
ENDBRANCH  20  22
ENDBRANCH  19  20
ENDBRANCH  18  19
ENDBRANCH   1  18
TORSDOF 14
ENDMDL
MODEL 7
REMARK VINA RESULT:      -7.2      1.673      2.350
REMARK  Name = 2520
REMARK  21 active torsions:
REMARK  status: ('A' for Active; 'I' for Inactive)
REMARK    1  A    between atoms: O_1  and  C_19
REMARK    2  A    between atoms: O_1  and  C_28
REMARK    3  A    between atoms: O_2  and  C_23
REMARK    4  A    between atoms: O_2  and  C_31
REMARK    5  A    between atoms: O_3  and  C_27
REMARK    6  A    between atoms: O_3  and  C_32
REMARK    7  A    between atoms: O_4  and  C_30
REMARK    8  A    between atoms: O_4  and  C_33
REMARK    9  A    between atoms: N_5  and  C_12
REMARK   10  A    between atoms: N_5  and  C_18
REMARK   11  A    between atoms: N_5  and  C_20
REMARK   12  A    between atoms: C_7  and  C_8
REMARK   13  A    between atoms: C_7  and  C_9
REMARK   14  A    between atoms: C_7  and  C_11
REMARK   15  A    between atoms: C_7  and  C_15
REMARK   16  A    between atoms: C_8  and  C_13
REMARK   17  A    between atoms: C_8  and  C_14
REMARK   18  A    between atoms: C_9  and  C_10
REMARK   19  A    between atoms: C_10  and  C_12
REMARK   20  A    between atoms: C_18  and  C_22
REMARK   21  A    between atoms: C_22  and  C_24
REMARK                            x       y       z     vdW  Elec       q    Type
REMARK                         _______ _______ _______ _____ _____    ______ ____
ROOT
ATOM      1  C   UNL     1     147.171 143.802 141.839  0.00  0.00    +0.028 C 
ENDROOT
BRANCH   1   2
ATOM      2  C   UNL     1     145.975 144.758 141.484  0.00  0.00    +0.085 C 
BRANCH   2   7
ATOM      3  C   UNL     1     147.066 147.822 143.515  0.00  0.00    +0.162 A 
ATOM      4  C   UNL     1     147.009 148.833 142.554  0.00  0.00    +0.162 A 
ATOM      5  C   UNL     1     146.621 148.531 141.248  0.00  0.00    +0.050 A 
ATOM      6  C   UNL     1     146.287 147.221 140.904  0.00  0.00    +0.009 A 
ATOM      7  C   UNL     1     146.344 146.211 141.865  0.00  0.00    -0.024 A 
ATOM      8  C   UNL     1     146.733 146.512 143.171  0.00  0.00    +0.054 A 
BRANCH   3   9
ATOM      9  O   UNL     1     147.444 148.104 144.793  0.00  0.00    -0.491 OA
ATOM     10  C   UNL     1     148.667 147.528 145.248  0.00  0.00    +0.277 C 
ENDBRANCH   3   9
BRANCH   4  11
ATOM     11  O   UNL     1     147.332 150.116 142.877  0.00  0.00    -0.491 OA
ATOM     12  C   UNL     1     148.717 150.452 142.886  0.00  0.00    +0.277 C 
ENDBRANCH   4  11
ENDBRANCH   2   7
BRANCH   2  13
ATOM     13  C   UNL     1     144.678 144.326 142.291  0.00  0.00    +0.007 C 
ATOM     14  C   UNL     1     143.367 144.780 141.621  0.00  0.00    +0.009 C 
ATOM     15  C   UNL     1     144.582 142.817 142.572  0.00  0.00    +0.009 C 
ENDBRANCH   2  13
BRANCH   2  16
ATOM     16  C   UNL     1     145.702 144.588 140.027  0.00  0.00    +0.074 C 
ATOM     17  N   UNL     1     145.498 144.469 138.891  0.00  0.00    -0.196 NA
ENDBRANCH   2  16
ENDBRANCH   1   2
BRANCH   1  18
ATOM     18  C   UNL     1     148.556 144.274 141.349  0.00  0.00    +0.017 C 
BRANCH  18  19
ATOM     19  C   UNL     1     149.672 143.985 142.358  0.00  0.00    +0.084 C 
BRANCH  19  20
ATOM     20  N   UNL     1     150.692 145.024 142.356  0.00  0.00    -0.305 NA
ATOM     21  C   UNL     1     150.133 146.296 141.895  0.00  0.00    +0.104 C 
BRANCH  20  22
ATOM     22  C   UNL     1     151.272 145.181 143.692  0.00  0.00    +0.088 C 
BRANCH  22  23
ATOM     23  C   UNL     1     152.789 145.348 143.615  0.00  0.00    +0.050 C 
BRANCH  23  24
ATOM     24  C   UNL     1     153.203 146.777 143.865  0.00  0.00    -0.042 A 
ATOM     25  C   UNL     1     154.085 147.411 142.990  0.00  0.00    +0.007 A 
ATOM     26  C   UNL     1     154.467 148.732 143.222  0.00  0.00    +0.049 A 
ATOM     27  C   UNL     1     153.971 149.418 144.329  0.00  0.00    +0.161 A 
ATOM     28  C   UNL     1     153.090 148.784 145.206  0.00  0.00    +0.162 A 
ATOM     29  C   UNL     1     152.706 147.463 144.973  0.00  0.00    +0.053 A 
BRANCH  28  30
ATOM     30  O   UNL     1     152.598 149.444 146.291  0.00  0.00    -0.491 OA
ATOM     31  C   UNL     1     151.324 150.070 146.146  0.00  0.00    +0.277 C 
ENDBRANCH  28  30
BRANCH  27  32
ATOM     32  O   UNL     1     154.353 150.708 144.546  0.00  0.00    -0.491 OA
ATOM     33  C   UNL     1     153.693 151.715 143.783  0.00  0.00    +0.277 C 
ENDBRANCH  27  32
ENDBRANCH  23  24
ENDBRANCH  22  23
ENDBRANCH  20  22
ENDBRANCH  19  20
ENDBRANCH  18  19
ENDBRANCH   1  18
TORSDOF 14
ENDMDL
MODEL 8
REMARK VINA RESULT:      -7.1      3.091      5.808
REMARK  Name = 2520
REMARK  21 active torsions:
REMARK  status: ('A' for Active; 'I' for Inactive)
REMARK    1  A    between atoms: O_1  and  C_19
REMARK    2  A    between atoms: O_1  and  C_28
REMARK    3  A    between atoms: O_2  and  C_23
REMARK    4  A    between atoms: O_2  and  C_31
REMARK    5  A    between atoms: O_3  and  C_27
REMARK    6  A    between atoms: O_3  and  C_32
REMARK    7  A    between atoms: O_4  and  C_30
REMARK    8  A    between atoms: O_4  and  C_33
REMARK    9  A    between atoms: N_5  and  C_12
REMARK   10  A    between atoms: N_5  and  C_18
REMARK   11  A    between atoms: N_5  and  C_20
REMARK   12  A    between atoms: C_7  and  C_8
REMARK   13  A    between atoms: C_7  and  C_9
REMARK   14  A    between atoms: C_7  and  C_11
REMARK   15  A    between atoms: C_7  and  C_15
REMARK   16  A    between atoms: C_8  and  C_13
REMARK   17  A    between atoms: C_8  and  C_14
REMARK   18  A    between atoms: C_9  and  C_10
REMARK   19  A    between atoms: C_10  and  C_12
REMARK   20  A    between atoms: C_18  and  C_22
REMARK   21  A    between atoms: C_22  and  C_24
REMARK                            x       y       z     vdW  Elec       q    Type
REMARK                         _______ _______ _______ _____ _____    ______ ____
ROOT
ATOM      1  C   UNL     1     148.975 148.921 142.196  0.00  0.00    +0.028 C 
ENDROOT
BRANCH   1   2
ATOM      2  C   UNL     1     147.833 148.127 142.927  0.00  0.00    +0.085 C 
BRANCH   2   7
ATOM      3  C   UNL     1     146.020 144.991 141.669  0.00  0.00    +0.162 A 
ATOM      4  C   UNL     1     146.323 145.017 140.307  0.00  0.00    +0.162 A 
ATOM      5  C   UNL     1     147.113 146.044 139.789  0.00  0.00    +0.050 A 
ATOM      6  C   UNL     1     147.599 147.044 140.631  0.00  0.00    +0.009 A 
ATOM      7  C   UNL     1     147.295 147.018 141.992  0.00  0.00    -0.024 A 
ATOM      8  C   UNL     1     146.505 145.991 142.511  0.00  0.00    +0.054 A 
BRANCH   3   9
ATOM      9  O   UNL     1     145.250 143.994 142.187  0.00  0.00    -0.491 OA
ATOM     10  C   UNL     1     144.158 144.384 143.017  0.00  0.00    +0.277 C 
ENDBRANCH   3   9
BRANCH   4  11
ATOM     11  O   UNL     1     145.855 144.047 139.474  0.00  0.00    -0.491 OA
ATOM     12  C   UNL     1     144.670 144.341 138.738  0.00  0.00    +0.277 C 
ENDBRANCH   4  11
ENDBRANCH   2   7
BRANCH   2  13
ATOM     13  C   UNL     1     146.644 149.110 143.300  0.00  0.00    +0.007 C 
ATOM     14  C   UNL     1     147.059 150.217 144.289  0.00  0.00    +0.009 C 
ATOM     15  C   UNL     1     145.966 149.772 142.088  0.00  0.00    +0.009 C 
ENDBRANCH   2  13
BRANCH   2  16
ATOM     16  C   UNL     1     148.417 147.593 144.191  0.00  0.00    +0.074 C 
ATOM     17  N   UNL     1     148.887 147.179 145.168  0.00  0.00    -0.196 NA
ENDBRANCH   2  16
ENDBRANCH   1   2
BRANCH   1  18
ATOM     18  C   UNL     1     150.307 149.017 142.971  0.00  0.00    +0.017 C 
BRANCH  18  19
ATOM     19  C   UNL     1     151.451 148.273 142.276  0.00  0.00    +0.084 C 
BRANCH  19  20
ATOM     20  N   UNL     1     152.597 148.090 143.158  0.00  0.00    -0.305 NA
ATOM     21  C   UNL     1     152.281 148.539 144.515  0.00  0.00    +0.104 C 
BRANCH  20  22
ATOM     22  C   UNL     1     153.018 146.687 143.173  0.00  0.00    +0.088 C 
BRANCH  22  23
ATOM     23  C   UNL     1     152.106 145.852 144.071  0.00  0.00    +0.050 C 
BRANCH  23  24
ATOM     24  C   UNL     1     151.465 144.718 143.308  0.00  0.00    -0.042 A 
ATOM     25  C   UNL     1     150.164 144.853 142.823  0.00  0.00    +0.007 A 
ATOM     26  C   UNL     1     149.572 143.805 142.119  0.00  0.00    +0.049 A 
ATOM     27  C   UNL     1     150.278 142.623 141.902  0.00  0.00    +0.161 A 
ATOM     28  C   UNL     1     151.578 142.487 142.388  0.00  0.00    +0.162 A 
ATOM     29  C   UNL     1     152.172 143.536 143.092  0.00  0.00    +0.053 A 
BRANCH  28  30
ATOM     30  O   UNL     1     152.279 141.337 142.182  0.00  0.00    -0.491 OA
ATOM     31  C   UNL     1     152.676 140.604 143.340  0.00  0.00    +0.277 C 
ENDBRANCH  28  30
BRANCH  27  32
ATOM     32  O   UNL     1     149.688 141.606 141.213  0.00  0.00    -0.491 OA
ATOM     33  C   UNL     1     148.264 141.540 141.251  0.00  0.00    +0.277 C 
ENDBRANCH  27  32
ENDBRANCH  23  24
ENDBRANCH  22  23
ENDBRANCH  20  22
ENDBRANCH  19  20
ENDBRANCH  18  19
ENDBRANCH   1  18
TORSDOF 14
ENDMDL
MODEL 9
REMARK VINA RESULT:      -7.1      3.149      7.794
REMARK  Name = 2520
REMARK  21 active torsions:
REMARK  status: ('A' for Active; 'I' for Inactive)
REMARK    1  A    between atoms: O_1  and  C_19
REMARK    2  A    between atoms: O_1  and  C_28
REMARK    3  A    between atoms: O_2  and  C_23
REMARK    4  A    between atoms: O_2  and  C_31
REMARK    5  A    between atoms: O_3  and  C_27
REMARK    6  A    between atoms: O_3  and  C_32
REMARK    7  A    between atoms: O_4  and  C_30
REMARK    8  A    between atoms: O_4  and  C_33
REMARK    9  A    between atoms: N_5  and  C_12
REMARK   10  A    between atoms: N_5  and  C_18
REMARK   11  A    between atoms: N_5  and  C_20
REMARK   12  A    between atoms: C_7  and  C_8
REMARK   13  A    between atoms: C_7  and  C_9
REMARK   14  A    between atoms: C_7  and  C_11
REMARK   15  A    between atoms: C_7  and  C_15
REMARK   16  A    between atoms: C_8  and  C_13
REMARK   17  A    between atoms: C_8  and  C_14
REMARK   18  A    between atoms: C_9  and  C_10
REMARK   19  A    between atoms: C_10  and  C_12
REMARK   20  A    between atoms: C_18  and  C_22
REMARK   21  A    between atoms: C_22  and  C_24
REMARK                            x       y       z     vdW  Elec       q    Type
REMARK                         _______ _______ _______ _____ _____    ______ ____
ROOT
ATOM      1  C   UNL     1     149.399 146.099 143.442  0.00  0.00    +0.028 C 
ENDROOT
BRANCH   1   2
ATOM      2  C   UNL     1     150.551 145.754 142.430  0.00  0.00    +0.085 C 
BRANCH   2   7
ATOM      3  C   UNL     1     151.344 142.280 141.014  0.00  0.00    +0.162 A 
ATOM      4  C   UNL     1     150.090 141.669 141.045  0.00  0.00    +0.162 A 
ATOM      5  C   UNL     1     148.984 142.374 141.522  0.00  0.00    +0.050 A 
ATOM      6  C   UNL     1     149.131 143.688 141.967  0.00  0.00    +0.009 A 
ATOM      7  C   UNL     1     150.386 144.297 141.936  0.00  0.00    -0.024 A 
ATOM      8  C   UNL     1     151.493 143.593 141.460  0.00  0.00    +0.054 A 
BRANCH   3   9
ATOM      9  O   UNL     1     152.432 141.602 140.551  0.00  0.00    -0.491 OA
ATOM     10  C   UNL     1     153.284 141.003 141.525  0.00  0.00    +0.277 C 
ENDBRANCH   3   9
BRANCH   4  11
ATOM     11  O   UNL     1     149.932 140.387 140.614  0.00  0.00    -0.491 OA
ATOM     12  C   UNL     1     148.639 140.017 140.141  0.00  0.00    +0.277 C 
ENDBRANCH   4  11
ENDBRANCH   2   7
BRANCH   2  13
ATOM     13  C   UNL     1     151.961 145.901 143.145  0.00  0.00    +0.007 C 
ATOM     14  C   UNL     1     152.713 147.186 142.746  0.00  0.00    +0.009 C 
ATOM     15  C   UNL     1     151.903 145.829 144.680  0.00  0.00    +0.009 C 
ENDBRANCH   2  13
BRANCH   2  16
ATOM     16  C   UNL     1     150.475 146.757 141.328  0.00  0.00    +0.074 C 
ATOM     17  N   UNL     1     150.401 147.542 140.477  0.00  0.00    -0.196 NA
ENDBRANCH   2  16
ENDBRANCH   1   2
BRANCH   1  18
ATOM     18  C   UNL     1     149.197 147.605 143.716  0.00  0.00    +0.017 C 
BRANCH  18  19
ATOM     19  C   UNL     1     147.730 147.970 143.961  0.00  0.00    +0.084 C 
BRANCH  19  20
ATOM     20  N   UNL     1     147.371 149.236 143.336  0.00  0.00    -0.305 NA
ATOM     21  C   UNL     1     148.552 149.877 142.753  0.00  0.00    +0.104 C 
BRANCH  20  22
ATOM     22  C   UNL     1     146.346 149.034 142.310  0.00  0.00    +0.088 C 
BRANCH  22  23
ATOM     23  C   UNL     1     146.963 148.501 141.017  0.00  0.00    +0.050 C 
BRANCH  23  24
ATOM     24  C   UNL     1     146.409 147.145 140.657  0.00  0.00    -0.042 A 
ATOM     25  C   UNL     1     146.995 146.404 139.630  0.00  0.00    +0.007 A 
ATOM     26  C   UNL     1     146.482 145.150 139.296  0.00  0.00    +0.049 A 
ATOM     27  C   UNL     1     145.385 144.639 139.987  0.00  0.00    +0.161 A 
ATOM     28  C   UNL     1     144.798 145.380 141.013  0.00  0.00    +0.162 A 
ATOM     29  C   UNL     1     145.312 146.634 141.348  0.00  0.00    +0.053 A 
BRANCH  28  30
ATOM     30  O   UNL     1     143.726 144.890 141.696  0.00  0.00    -0.491 OA
ATOM     31  C   UNL     1     143.980 144.316 142.976  0.00  0.00    +0.277 C 
ENDBRANCH  28  30
BRANCH  27  32
ATOM     32  O   UNL     1     144.893 143.413 139.651  0.00  0.00    -0.491 OA
ATOM     33  C   UNL     1     145.591 142.276 140.152  0.00  0.00    +0.277 C 
ENDBRANCH  27  32
ENDBRANCH  23  24
ENDBRANCH  22  23
ENDBRANCH  20  22
ENDBRANCH  19  20
ENDBRANCH  18  19
ENDBRANCH   1  18
TORSDOF 14
ENDMDL
MODEL 10
REMARK VINA RESULT:      -7.1      2.729      6.005
REMARK  Name = 2520
REMARK  21 active torsions:
REMARK  status: ('A' for Active; 'I' for Inactive)
REMARK    1  A    between atoms: O_1  and  C_19
REMARK    2  A    between atoms: O_1  and  C_28
REMARK    3  A    between atoms: O_2  and  C_23
REMARK    4  A    between atoms: O_2  and  C_31
REMARK    5  A    between atoms: O_3  and  C_27
REMARK    6  A    between atoms: O_3  and  C_32
REMARK    7  A    between atoms: O_4  and  C_30
REMARK    8  A    between atoms: O_4  and  C_33
REMARK    9  A    between atoms: N_5  and  C_12
REMARK   10  A    between atoms: N_5  and  C_18
REMARK   11  A    between atoms: N_5  and  C_20
REMARK   12  A    between atoms: C_7  and  C_8
REMARK   13  A    between atoms: C_7  and  C_9
REMARK   14  A    between atoms: C_7  and  C_11
REMARK   15  A    between atoms: C_7  and  C_15
REMARK   16  A    between atoms: C_8  and  C_13
REMARK   17  A    between atoms: C_8  and  C_14
REMARK   18  A    between atoms: C_9  and  C_10
REMARK   19  A    between atoms: C_10  and  C_12
REMARK   20  A    between atoms: C_18  and  C_22
REMARK   21  A    between atoms: C_22  and  C_24
REMARK                            x       y       z     vdW  Elec       q    Type
REMARK                         _______ _______ _______ _____ _____    ______ ____
ROOT
ATOM      1  C   UNL     1     148.552 145.997 142.607  0.00  0.00    +0.028 C 
ENDROOT
BRANCH   1   2
ATOM      2  C   UNL     1     148.904 145.081 141.381  0.00  0.00    +0.085 C 
BRANCH   2   7
ATOM      3  C   UNL     1     151.281 142.072 141.431  0.00  0.00    +0.162 A 
ATOM      4  C   UNL     1     152.175 142.436 142.439  0.00  0.00    +0.162 A 
ATOM      5  C   UNL     1     152.017 143.651 143.105  0.00  0.00    +0.050 A 
ATOM      6  C   UNL     1     150.965 144.502 142.766  0.00  0.00    +0.009 A 
ATOM      7  C   UNL     1     150.071 144.137 141.758  0.00  0.00    -0.024 A 
ATOM      8  C   UNL     1     150.229 142.922 141.091  0.00  0.00    +0.054 A 
BRANCH   3   9
ATOM      9  O   UNL     1     151.425 140.888 140.773  0.00  0.00    -0.491 OA
ATOM     10  C   UNL     1     150.274 140.373 140.107  0.00  0.00    +0.277 C 
ENDBRANCH   3   9
BRANCH   4  11
ATOM     11  O   UNL     1     153.207 141.614 142.780  0.00  0.00    -0.491 OA
ATOM     12  C   UNL     1     152.995 140.729 143.877  0.00  0.00    +0.277 C 
ENDBRANCH   4  11
ENDBRANCH   2   7
BRANCH   2  13
ATOM     13  C   UNL     1     149.343 145.976 140.144  0.00  0.00    +0.007 C 
ATOM     14  C   UNL     1     148.156 146.430 139.273  0.00  0.00    +0.009 C 
ATOM     15  C   UNL     1     150.170 147.216 140.523  0.00  0.00    +0.009 C 
ENDBRANCH   2  13
BRANCH   2  16
ATOM     16  C   UNL     1     147.657 144.349 141.014  0.00  0.00    +0.074 C 
ATOM     17  N   UNL     1     146.678 143.792 140.735  0.00  0.00    -0.196 NA
ENDBRANCH   2  16
ENDBRANCH   1   2
BRANCH   1  18
ATOM     18  C   UNL     1     147.060 146.371 142.739  0.00  0.00    +0.017 C 
BRANCH  18  19
ATOM     19  C   UNL     1     146.830 147.885 142.780  0.00  0.00    +0.084 C 
BRANCH  19  20
ATOM     20  N   UNL     1     147.929 148.586 143.431  0.00  0.00    -0.305 NA
ATOM     21  C   UNL     1     148.301 149.781 142.671  0.00  0.00    +0.104 C 
BRANCH  20  22
ATOM     22  C   UNL     1     147.568 148.951 144.803  0.00  0.00    +0.088 C 
BRANCH  22  23
ATOM     23  C   UNL     1     148.258 148.034 145.813  0.00  0.00    +0.050 C 
BRANCH  23  24
ATOM     24  C   UNL     1     149.761 148.116 145.699  0.00  0.00    -0.042 A 
ATOM     25  C   UNL     1     150.505 146.960 145.460  0.00  0.00    +0.007 A 
ATOM     26  C   UNL     1     151.894 147.036 145.356  0.00  0.00    +0.049 A 
ATOM     27  C   UNL     1     152.538 148.265 145.491  0.00  0.00    +0.161 A 
ATOM     28  C   UNL     1     151.794 149.420 145.731  0.00  0.00    +0.162 A 
ATOM     29  C   UNL     1     150.404 149.345 145.834  0.00  0.00    +0.053 A 
BRANCH  28  30
ATOM     30  O   UNL     1     152.412 150.627 145.864  0.00  0.00    -0.491 OA
ATOM     31  C   UNL     1     151.929 151.492 146.891  0.00  0.00    +0.277 C 
ENDBRANCH  28  30
BRANCH  27  32
ATOM     32  O   UNL     1     153.895 148.325 145.387  0.00  0.00    -0.491 OA
ATOM     33  C   UNL     1     154.449 148.228 144.077  0.00  0.00    +0.277 C 
ENDBRANCH  27  32
ENDBRANCH  23  24
ENDBRANCH  22  23
ENDBRANCH  20  22
ENDBRANCH  19  20
ENDBRANCH  18  19
ENDBRANCH   1  18
TORSDOF 14
ENDMDL
