REMARK VINA RESULT:      -6.3      2.997      7.724
REMARK  Name = 2520
REMARK  21 active torsions:
REMARK  status: ('A' for Active; 'I' for Inactive)
REMARK    1  A    between atoms: O_1  and  C_19
REMARK    2  A    between atoms: O_1  and  C_28
REMARK    3  A    between atoms: O_2  and  C_23
REMARK    4  A    between atoms: O_2  and  C_31
REMARK    5  A    between atoms: O_3  and  C_27
REMARK    6  A    between atoms: O_3  and  C_32
REMARK    7  A    between atoms: O_4  and  C_30
REMARK    8  A    between atoms: O_4  and  C_33
REMARK    9  A    between atoms: N_5  and  C_12
REMARK   10  A    between atoms: N_5  and  C_18
REMARK   11  A    between atoms: N_5  and  C_20
REMARK   12  A    between atoms: C_7  and  C_8
REMARK   13  A    between atoms: C_7  and  C_9
REMARK   14  A    between atoms: C_7  and  C_11
REMARK   15  A    between atoms: C_7  and  C_15
REMARK   16  A    between atoms: C_8  and  C_13
REMARK   17  A    between atoms: C_8  and  C_14
REMARK   18  A    between atoms: C_9  and  C_10
REMARK   19  A    between atoms: C_10  and  C_12
REMARK   20  A    between atoms: C_18  and  C_22
REMARK   21  A    between atoms: C_22  and  C_24
REMARK                            x       y       z     vdW  Elec       q    Type
REMARK                         _______ _______ _______ _____ _____    ______ ____
ROOT
ATOM      1  C   UNL     1     177.744 176.802 172.981  0.00  0.00    +0.028 C 
ENDROOT
BRANCH   1   2
ATOM      2  C   UNL     1     178.477 175.679 172.162  0.00  0.00    +0.085 C 
BRANCH   2   7
ATOM      3  C   UNL     1     176.388 172.566 171.359  0.00  0.00    +0.162 A 
ATOM      4  C   UNL     1     176.336 171.932 172.602  0.00  0.00    +0.162 A 
ATOM      5  C   UNL     1     176.975 172.505 173.702  0.00  0.00    +0.050 A 
ATOM      6  C   UNL     1     177.662 173.710 173.561  0.00  0.00    +0.009 A 
ATOM      7  C   UNL     1     177.714 174.343 172.319  0.00  0.00    -0.024 A 
ATOM      8  C   UNL     1     177.076 173.770 171.217  0.00  0.00    +0.054 A 
BRANCH   3   9
ATOM      9  O   UNL     1     175.769 172.016 170.277  0.00  0.00    -0.491 OA
ATOM     10  C   UNL     1     175.511 172.879 169.171  0.00  0.00    +0.277 C 
ENDBRANCH   3   9
BRANCH   4  11
ATOM     11  O   UNL     1     175.668 170.755 172.752  0.00  0.00    -0.491 OA
ATOM     12  C   UNL     1     174.921 170.583 173.954  0.00  0.00    +0.277 C 
ENDBRANCH   4  11
ENDBRANCH   2   7
BRANCH   2  13
ATOM     13  C   UNL     1     179.959 175.494 172.702  0.00  0.00    +0.007 C 
ATOM     14  C   UNL     1     180.831 174.608 171.792  0.00  0.00    +0.009 C 
ATOM     15  C   UNL     1     180.708 176.813 172.958  0.00  0.00    +0.009 C 
ENDBRANCH   2  13
BRANCH   2  16
ATOM     16  C   UNL     1     178.547 176.149 170.748  0.00  0.00    +0.074 C 
ATOM     17  N   UNL     1     178.603 176.531 169.654  0.00  0.00    -0.196 NA
ENDBRANCH   2  16
ENDBRANCH   1   2
BRANCH   1  18
ATOM     18  C   UNL     1     176.322 177.149 172.491  0.00  0.00    +0.017 C 
BRANCH  18  19
ATOM     19  C   UNL     1     176.199 178.598 172.009  0.00  0.00    +0.084 C 
BRANCH  19  20
ATOM     20  N   UNL     1     175.194 178.741 170.964  0.00  0.00    -0.305 NA
ATOM     21  C   UNL     1     175.824 179.071 169.684  0.00  0.00    +0.104 C 
BRANCH  20  22
ATOM     22  C   UNL     1     174.402 177.515 170.837  0.00  0.00    +0.088 C 
BRANCH  22  23
ATOM     23  C   UNL     1     173.946 177.304 169.394  0.00  0.00    +0.050 C 
BRANCH  23  24
ATOM     24  C   UNL     1     173.182 176.013 169.237  0.00  0.00    -0.042 A 
ATOM     25  C   UNL     1     172.918 175.509 167.963  0.00  0.00    +0.007 A 
ATOM     26  C   UNL     1     172.211 174.316 167.819  0.00  0.00    +0.049 A 
ATOM     27  C   UNL     1     171.766 173.628 168.946  0.00  0.00    +0.161 A 
ATOM     28  C   UNL     1     172.028 174.132 170.220  0.00  0.00    +0.162 A 
ATOM     29  C   UNL     1     172.737 175.325 170.365  0.00  0.00    +0.053 A 
BRANCH  28  30
ATOM     30  O   UNL     1     171.599 173.468 171.330  0.00  0.00    -0.491 OA
ATOM     31  C   UNL     1     172.590 172.796 172.107  0.00  0.00    +0.277 C 
ENDBRANCH  28  30
BRANCH  27  32
ATOM     32  O   UNL     1     171.076 172.463 168.792  0.00  0.00    -0.491 OA
ATOM     33  C   UNL     1     169.713 172.568 168.384  0.00  0.00    +0.277 C 
ENDBRANCH  27  32
ENDBRANCH  23  24
ENDBRANCH  22  23
ENDBRANCH  20  22
ENDBRANCH  19  20
ENDBRANCH  18  19
ENDBRANCH   1  18
TORSDOF 14
