REMARK VINA RESULT:      -6.7      1.745      2.102
REMARK  Name = 2520
REMARK  21 active torsions:
REMARK  status: ('A' for Active; 'I' for Inactive)
REMARK    1  A    between atoms: O_1  and  C_19
REMARK    2  A    between atoms: O_1  and  C_28
REMARK    3  A    between atoms: O_2  and  C_23
REMARK    4  A    between atoms: O_2  and  C_31
REMARK    5  A    between atoms: O_3  and  C_27
REMARK    6  A    between atoms: O_3  and  C_32
REMARK    7  A    between atoms: O_4  and  C_30
REMARK    8  A    between atoms: O_4  and  C_33
REMARK    9  A    between atoms: N_5  and  C_12
REMARK   10  A    between atoms: N_5  and  C_18
REMARK   11  A    between atoms: N_5  and  C_20
REMARK   12  A    between atoms: C_7  and  C_8
REMARK   13  A    between atoms: C_7  and  C_9
REMARK   14  A    between atoms: C_7  and  C_11
REMARK   15  A    between atoms: C_7  and  C_15
REMARK   16  A    between atoms: C_8  and  C_13
REMARK   17  A    between atoms: C_8  and  C_14
REMARK   18  A    between atoms: C_9  and  C_10
REMARK   19  A    between atoms: C_10  and  C_12
REMARK   20  A    between atoms: C_18  and  C_22
REMARK   21  A    between atoms: C_22  and  C_24
REMARK                            x       y       z     vdW  Elec       q    Type
REMARK                         _______ _______ _______ _____ _____    ______ ____
ROOT
ATOM      1  C   UNL     1     172.824 174.136 170.723  0.00  0.00    +0.028 C 
ENDROOT
BRANCH   1   2
ATOM      2  C   UNL     1     173.145 174.656 169.275  0.00  0.00    +0.085 C 
BRANCH   2   7
ATOM      3  C   UNL     1     174.790 177.833 170.657  0.00  0.00    +0.162 A 
ATOM      4  C   UNL     1     174.879 178.625 169.512  0.00  0.00    +0.162 A 
ATOM      5  C   UNL     1     174.411 178.139 168.290  0.00  0.00    +0.050 A 
ATOM      6  C   UNL     1     173.853 176.863 168.214  0.00  0.00    +0.009 A 
ATOM      7  C   UNL     1     173.764 176.072 169.359  0.00  0.00    -0.024 A 
ATOM      8  C   UNL     1     174.233 176.557 170.581  0.00  0.00    +0.054 A 
BRANCH   3   9
ATOM      9  O   UNL     1     175.244 178.295 171.855  0.00  0.00    -0.491 OA
ATOM     10  C   UNL     1     176.284 177.550 172.485  0.00  0.00    +0.277 C 
ENDBRANCH   3   9
BRANCH   4  11
ATOM     11  O   UNL     1     175.423 179.873 169.573  0.00  0.00    -0.491 OA
ATOM     12  C   UNL     1     176.842 179.966 169.485  0.00  0.00    +0.277 C 
ENDBRANCH   4  11
ENDBRANCH   2   7
BRANCH   2  13
ATOM     13  C   UNL     1     171.811 174.726 168.417  0.00  0.00    +0.007 C 
ATOM     14  C   UNL     1     171.366 173.353 167.875  0.00  0.00    +0.009 C 
ATOM     15  C   UNL     1     170.621 175.367 169.150  0.00  0.00    +0.009 C 
ENDBRANCH   2  13
BRANCH   2  16
ATOM     16  C   UNL     1     174.058 173.656 168.648  0.00  0.00    +0.074 C 
ATOM     17  N   UNL     1     174.780 172.885 168.169  0.00  0.00    -0.196 NA
ENDBRANCH   2  16
ENDBRANCH   1   2
BRANCH   1  18
ATOM     18  C   UNL     1     173.559 172.842 171.133  0.00  0.00    +0.017 C 
BRANCH  18  19
ATOM     19  C   UNL     1     174.537 173.058 172.292  0.00  0.00    +0.084 C 
BRANCH  19  20
ATOM     20  N   UNL     1     175.576 172.036 172.327  0.00  0.00    -0.305 NA
ATOM     21  C   UNL     1     175.324 171.010 171.314  0.00  0.00    +0.104 C 
BRANCH  20  22
ATOM     22  C   UNL     1     176.897 172.635 172.124  0.00  0.00    +0.088 C 
BRANCH  22  23
ATOM     23  C   UNL     1     177.133 172.952 170.648  0.00  0.00    +0.050 C 
BRANCH  23  24
ATOM     24  C   UNL     1     177.792 174.298 170.469  0.00  0.00    -0.042 A 
ATOM     25  C   UNL     1     177.433 175.112 169.395  0.00  0.00    +0.007 A 
ATOM     26  C   UNL     1     178.042 176.356 169.229  0.00  0.00    +0.049 A 
ATOM     27  C   UNL     1     179.011 176.784 170.135  0.00  0.00    +0.161 A 
ATOM     28  C   UNL     1     179.371 175.970 171.209  0.00  0.00    +0.162 A 
ATOM     29  C   UNL     1     178.761 174.726 171.376  0.00  0.00    +0.053 A 
BRANCH  28  30
ATOM     30  O   UNL     1     180.316 176.378 172.102  0.00  0.00    -0.491 OA
ATOM     31  C   UNL     1     180.807 175.400 173.018  0.00  0.00    +0.277 C 
ENDBRANCH  28  30
BRANCH  27  32
ATOM     32  O   UNL     1     179.600 178.001 169.962  0.00  0.00    -0.491 OA
ATOM     33  C   UNL     1     179.895 178.393 168.623  0.00  0.00    +0.277 C 
ENDBRANCH  27  32
ENDBRANCH  23  24
ENDBRANCH  22  23
ENDBRANCH  20  22
ENDBRANCH  19  20
ENDBRANCH  18  19
ENDBRANCH   1  18
TORSDOF 14
