REMARK VINA RESULT:      -6.5      1.406      2.288
REMARK  Name = 2520
REMARK  21 active torsions:
REMARK  status: ('A' for Active; 'I' for Inactive)
REMARK    1  A    between atoms: O_1  and  C_19
REMARK    2  A    between atoms: O_1  and  C_28
REMARK    3  A    between atoms: O_2  and  C_23
REMARK    4  A    between atoms: O_2  and  C_31
REMARK    5  A    between atoms: O_3  and  C_27
REMARK    6  A    between atoms: O_3  and  C_32
REMARK    7  A    between atoms: O_4  and  C_30
REMARK    8  A    between atoms: O_4  and  C_33
REMARK    9  A    between atoms: N_5  and  C_12
REMARK   10  A    between atoms: N_5  and  C_18
REMARK   11  A    between atoms: N_5  and  C_20
REMARK   12  A    between atoms: C_7  and  C_8
REMARK   13  A    between atoms: C_7  and  C_9
REMARK   14  A    between atoms: C_7  and  C_11
REMARK   15  A    between atoms: C_7  and  C_15
REMARK   16  A    between atoms: C_8  and  C_13
REMARK   17  A    between atoms: C_8  and  C_14
REMARK   18  A    between atoms: C_9  and  C_10
REMARK   19  A    between atoms: C_10  and  C_12
REMARK   20  A    between atoms: C_18  and  C_22
REMARK   21  A    between atoms: C_22  and  C_24
REMARK                            x       y       z     vdW  Elec       q    Type
REMARK                         _______ _______ _______ _____ _____    ______ ____
ROOT
ATOM      1  C   UNL     1     172.824 174.313 170.681  0.00  0.00    +0.028 C 
ENDROOT
BRANCH   1   2
ATOM      2  C   UNL     1     172.595 175.123 169.355  0.00  0.00    +0.085 C 
BRANCH   2   7
ATOM      3  C   UNL     1     174.812 178.010 170.560  0.00  0.00    +0.162 A 
ATOM      4  C   UNL     1     175.115 178.654 169.359  0.00  0.00    +0.162 A 
ATOM      5  C   UNL     1     174.607 178.160 168.157  0.00  0.00    +0.050 A 
ATOM      6  C   UNL     1     173.796 177.025 168.155  0.00  0.00    +0.009 A 
ATOM      7  C   UNL     1     173.494 176.382 169.356  0.00  0.00    -0.024 A 
ATOM      8  C   UNL     1     174.002 176.875 170.559  0.00  0.00    +0.054 A 
BRANCH   3   9
ATOM      9  O   UNL     1     175.303 178.482 171.740  0.00  0.00    -0.491 OA
ATOM     10  C   UNL     1     176.269 177.675 172.409  0.00  0.00    +0.277 C 
ENDBRANCH   3   9
BRANCH   4  11
ATOM     11  O   UNL     1     175.906 179.762 169.347  0.00  0.00    -0.491 OA
ATOM     12  C   UNL     1     177.310 179.556 169.207  0.00  0.00    +0.277 C 
ENDBRANCH   4  11
ENDBRANCH   2   7
BRANCH   2  13
ATOM     13  C   UNL     1     171.076 175.574 169.251  0.00  0.00    +0.007 C 
ATOM     14  C   UNL     1     170.191 174.555 168.506  0.00  0.00    +0.009 C 
ATOM     15  C   UNL     1     170.416 175.890 170.604  0.00  0.00    +0.009 C 
ENDBRANCH   2  13
BRANCH   2  16
ATOM     16  C   UNL     1     172.890 174.196 168.224  0.00  0.00    +0.074 C 
ATOM     17  N   UNL     1     173.127 173.465 167.355  0.00  0.00    -0.196 NA
ENDBRANCH   2  16
ENDBRANCH   1   2
BRANCH   1  18
ATOM     18  C   UNL     1     174.041 173.363 170.668  0.00  0.00    +0.017 C 
BRANCH  18  19
ATOM     19  C   UNL     1     173.971 172.296 171.765  0.00  0.00    +0.084 C 
BRANCH  19  20
ATOM     20  N   UNL     1     174.989 172.499 172.788  0.00  0.00    -0.305 NA
ATOM     21  C   UNL     1     175.173 171.282 173.581  0.00  0.00    +0.104 C 
BRANCH  20  22
ATOM     22  C   UNL     1     176.258 172.906 172.181  0.00  0.00    +0.088 C 
BRANCH  22  23
ATOM     23  C   UNL     1     177.434 172.583 173.102  0.00  0.00    +0.050 C 
BRANCH  23  24
ATOM     24  C   UNL     1     178.402 173.737 173.190  0.00  0.00    -0.042 A 
ATOM     25  C   UNL     1     178.103 174.837 173.994  0.00  0.00    +0.007 A 
ATOM     26  C   UNL     1     178.997 175.904 174.076  0.00  0.00    +0.049 A 
ATOM     27  C   UNL     1     180.189 175.873 173.353  0.00  0.00    +0.161 A 
ATOM     28  C   UNL     1     180.488 174.773 172.548  0.00  0.00    +0.162 A 
ATOM     29  C   UNL     1     179.593 173.704 172.467  0.00  0.00    +0.053 A 
BRANCH  28  30
ATOM     30  O   UNL     1     181.649 174.730 171.837  0.00  0.00    -0.491 OA
ATOM     31  C   UNL     1     181.539 174.544 170.427  0.00  0.00    +0.277 C 
ENDBRANCH  28  30
BRANCH  27  32
ATOM     32  O   UNL     1     181.054 176.921 173.440  0.00  0.00    -0.491 OA
ATOM     33  C   UNL     1     180.835 178.016 172.553  0.00  0.00    +0.277 C 
ENDBRANCH  27  32
ENDBRANCH  23  24
ENDBRANCH  22  23
ENDBRANCH  20  22
ENDBRANCH  19  20
ENDBRANCH  18  19
ENDBRANCH   1  18
TORSDOF 14
