MODEL 1
REMARK VINA RESULT:      -8.5      0.000      0.000
REMARK  16 active torsions:
REMARK  status: ('A' for Active; 'I' for Inactive)
REMARK    1  A    between atoms: C_2  and  O_12 
REMARK    2  A    between atoms: C_3  and  O_10 
REMARK    3  A    between atoms: C_4  and  O_8 
REMARK    4  A    between atoms: C_5  and  O_6 
REMARK    5  A    between atoms: C_38  and  C_39 
REMARK    6  A    between atoms: O_12  and  C_13 
REMARK    7  A    between atoms: C_16  and  O_22 
REMARK    8  A    between atoms: C_18  and  O_20 
REMARK    9  A    between atoms: C_27  and  C_28 
REMARK   10  A    between atoms: C_31  and  O_35 
REMARK   11  A    between atoms: C_32  and  O_33 
REMARK   12  A    between atoms: C_39  and  O_40 
REMARK   13  A    between atoms: O_40  and  C_41 
REMARK   14  A    between atoms: C_42  and  O_51 
REMARK   15  A    between atoms: C_43  and  O_49 
REMARK   16  A    between atoms: C_44  and  O_47 
ROOT
ATOM      1  O   LIG     1       6.959  43.510  25.355  0.00  0.00    -0.331 OA
ATOM      2  C   LIG     1       6.871  44.081  24.051  0.00  0.00     0.340 C 
ATOM      3  C   LIG     1       7.754  45.325  23.949  0.00  0.00     0.214 C 
ATOM      4  C   LIG     1       9.193  45.020  24.365  0.00  0.00     0.180 C 
ATOM      5  C   LIG     1       9.237  44.265  25.693  0.00  0.00     0.177 C 
ATOM      6  C   LIG     1       8.281  43.070  25.671  0.00  0.00     0.179 C 
ENDROOT
BRANCH   2   7
ATOM      7  O   LIG     1       5.524  44.475  23.788  0.00  0.00    -0.453 OA
BRANCH   7   8
ATOM      8  C   LIG     1       4.776  43.426  23.301  0.00  0.00     0.214 A 
ATOM      9  C   LIG     1       4.717  43.110  21.993  0.00  0.00     0.181 A 
ATOM     10  O   LIG     1       3.949  42.083  21.467  0.00  0.00    -0.451 OA
ATOM     11  C   LIG     1       3.207  41.314  22.326  0.00  0.00     0.147 A 
ATOM     12  C   LIG     1       2.452  40.283  21.767  0.00  0.00     0.092 A 
ATOM     13  C   LIG     1       3.184  41.528  23.702  0.00  0.00     0.109 A 
ATOM     14  C   LIG     1       1.676  39.466  22.590  0.00  0.00     0.124 A 
ATOM     15  C   LIG     1       1.653  39.681  23.968  0.00  0.00     0.091 A 
ATOM     16  C   LIG     1       2.407  40.713  24.530  0.00  0.00     0.135 A 
ATOM     17  C   LIG     1       3.986  42.624  24.266  0.00  0.00     0.238 A 
ATOM     18  O   LIG     1       4.001  42.863  25.466  0.00  0.00    -0.283 OA
BRANCH   9  19
ATOM     19  C   LIG     1       5.463  43.856  20.965  0.00  0.00     0.025 A 
ATOM     20  C   LIG     1       6.593  43.291  20.374  0.00  0.00     0.015 A 
ATOM     21  C   LIG     1       7.298  43.997  19.400  0.00  0.00     0.050 A 
ATOM     22  C   LIG     1       6.875  45.270  19.017  0.00  0.00     0.158 A 
ATOM     23  C   LIG     1       5.745  45.836  19.607  0.00  0.00     0.159 A 
ATOM     24  C   LIG     1       5.039  45.129  20.581  0.00  0.00     0.060 A 
BRANCH  22  25
ATOM     25  O   LIG     1       7.573  45.951  18.066  0.00  0.00    -0.503 OA
ATOM     26  H   LIG     1       6.970  46.520  17.563  0.00  0.00     0.292 HD
ENDBRANCH  22  25
BRANCH  23  27
ATOM     27  O   LIG     1       5.321  47.077  19.241  0.00  0.00    -0.503 OA
ATOM     28  H   LIG     1       4.979  47.548  20.018  0.00  0.00     0.292 HD
ENDBRANCH  23  27
ENDBRANCH   9  19
BRANCH  14  29
ATOM     29  O   LIG     1       0.939  38.459  22.046  0.00  0.00    -0.507 OA
ATOM     30  H   LIG     1       1.357  38.175  21.215  0.00  0.00     0.292 HD
ENDBRANCH  14  29
BRANCH  16  31
ATOM     31  O   LIG     1       2.348  40.879  25.881  0.00  0.00    -0.506 OA
ATOM     32  H   LIG     1       2.684  40.080  26.321  0.00  0.00     0.292 HD
ENDBRANCH  16  31
ENDBRANCH   7   8
ENDBRANCH   2   7
BRANCH   3  33
ATOM     33  O   LIG     1       7.736  45.776  22.595  0.00  0.00    -0.383 OA
ATOM     34  H   LIG     1       7.838  45.001  22.018  0.00  0.00     0.210 HD
ENDBRANCH   3  33
BRANCH   6  35
ATOM     35  C   LIG     1       8.221  42.370  27.025  0.00  0.00     0.197 C 
BRANCH  35  36
ATOM     36  O   LIG     1       6.860  42.156  27.374  0.00  0.00    -0.346 OA
BRANCH  36  37
ATOM     37  C   LIG     1       6.736  41.652  28.700  0.00  0.00     0.282 C 
ATOM     38  O   LIG     1       6.145  40.349  28.735  0.00  0.00    -0.343 OA
ATOM     39  C   LIG     1       4.792  40.305  28.269  0.00  0.00     0.149 C 
ATOM     40  C   LIG     1       3.891  41.222  29.107  0.00  0.00     0.174 C 
ATOM     41  C   LIG     1       4.345  38.847  28.334  0.00  0.00     0.041 C 
ATOM     42  C   LIG     1       4.461  42.640  29.131  0.00  0.00     0.179 C 
ATOM     43  C   LIG     1       5.932  42.632  29.552  0.00  0.00     0.201 C 
BRANCH  40  44
ATOM     44  O   LIG     1       2.583  41.279  28.541  0.00  0.00    -0.387 OA
ATOM     45  H   LIG     1       2.592  41.950  27.838  0.00  0.00     0.210 HD
ENDBRANCH  40  44
BRANCH  42  46
ATOM     46  O   LIG     1       3.701  43.436  30.038  0.00  0.00    -0.386 OA
ATOM     47  H   LIG     1       3.804  43.053  30.926  0.00  0.00     0.210 HD
ENDBRANCH  42  46
BRANCH  43  48
ATOM     48  O   LIG     1       6.047  42.220  30.915  0.00  0.00    -0.384 OA
ATOM     49  H   LIG     1       6.991  42.180  31.144  0.00  0.00     0.210 HD
ENDBRANCH  43  48
ENDBRANCH  36  37
ENDBRANCH  35  36
ENDBRANCH   6  35
BRANCH   4  50
ATOM     50  O   LIG     1       9.909  46.246  24.529  0.00  0.00    -0.386 OA
ATOM     51  H   LIG     1       9.940  46.440  25.482  0.00  0.00     0.210 HD
ENDBRANCH   4  50
BRANCH   5  52
ATOM     52  O   LIG     1      10.565  43.802  25.927  0.00  0.00    -0.386 OA
ATOM     53  H   LIG     1      10.818  43.227  25.186  0.00  0.00     0.210 HD
ENDBRANCH   5  52
TORSDOF 16
ENDMDL
MODEL 2
REMARK VINA RESULT:      -8.3      2.035      2.876
REMARK  16 active torsions:
REMARK  status: ('A' for Active; 'I' for Inactive)
REMARK    1  A    between atoms: C_2  and  O_12 
REMARK    2  A    between atoms: C_3  and  O_10 
REMARK    3  A    between atoms: C_4  and  O_8 
REMARK    4  A    between atoms: C_5  and  O_6 
REMARK    5  A    between atoms: C_38  and  C_39 
REMARK    6  A    between atoms: O_12  and  C_13 
REMARK    7  A    between atoms: C_16  and  O_22 
REMARK    8  A    between atoms: C_18  and  O_20 
REMARK    9  A    between atoms: C_27  and  C_28 
REMARK   10  A    between atoms: C_31  and  O_35 
REMARK   11  A    between atoms: C_32  and  O_33 
REMARK   12  A    between atoms: C_39  and  O_40 
REMARK   13  A    between atoms: O_40  and  C_41 
REMARK   14  A    between atoms: C_42  and  O_51 
REMARK   15  A    between atoms: C_43  and  O_49 
REMARK   16  A    between atoms: C_44  and  O_47 
ROOT
ATOM      1  O   LIG     1       7.641  43.902  25.484  0.00  0.00    -0.331 OA
ATOM      2  C   LIG     1       7.461  44.489  24.197  0.00  0.00     0.340 C 
ATOM      3  C   LIG     1       8.412  45.671  24.007  0.00  0.00     0.214 C 
ATOM      4  C   LIG     1       9.861  45.266  24.275  0.00  0.00     0.180 C 
ATOM      5  C   LIG     1       9.988  44.498  25.591  0.00  0.00     0.177 C 
ATOM      6  C   LIG     1       8.955  43.371  25.664  0.00  0.00     0.179 C 
ENDROOT
BRANCH   2   7
ATOM      7  O   LIG     1       6.125  44.975  24.072  0.00  0.00    -0.453 OA
BRANCH   7   8
ATOM      8  C   LIG     1       5.248  43.968  23.732  0.00  0.00     0.214 A 
ATOM      9  C   LIG     1       5.000  43.608  22.459  0.00  0.00     0.181 A 
ATOM     10  O   LIG     1       4.100  42.623  22.082  0.00  0.00    -0.451 OA
ATOM     11  C   LIG     1       3.424  41.944  23.063  0.00  0.00     0.147 A 
ATOM     12  C   LIG     1       2.534  40.951  22.652  0.00  0.00     0.092 A 
ATOM     13  C   LIG     1       3.594  42.210  24.419  0.00  0.00     0.109 A 
ATOM     14  C   LIG     1       1.816  40.227  23.604  0.00  0.00     0.124 A 
ATOM     15  C   LIG     1       1.986  40.494  24.962  0.00  0.00     0.091 A 
ATOM     16  C   LIG     1       2.876  41.487  25.376  0.00  0.00     0.135 A 
ATOM     17  C   LIG     1       4.537  43.264  24.826  0.00  0.00     0.238 A 
ATOM     18  O   LIG     1       4.723  43.545  26.002  0.00  0.00    -0.283 OA
BRANCH   9  19
ATOM     19  C   LIG     1       5.655  44.257  21.310  0.00  0.00     0.025 A 
ATOM     20  C   LIG     1       6.719  43.626  20.665  0.00  0.00     0.015 A 
ATOM     21  C   LIG     1       7.339  44.241  19.578  0.00  0.00     0.050 A 
ATOM     22  C   LIG     1       6.898  45.488  19.136  0.00  0.00     0.158 A 
ATOM     23  C   LIG     1       5.835  46.120  19.781  0.00  0.00     0.159 A 
ATOM     24  C   LIG     1       5.214  45.505  20.868  0.00  0.00     0.060 A 
BRANCH  22  25
ATOM     25  O   LIG     1       7.513  46.079  18.074  0.00  0.00    -0.503 OA
ATOM     26  H   LIG     1       7.853  46.950  18.336  0.00  0.00     0.292 HD
ENDBRANCH  22  25
BRANCH  23  27
ATOM     27  O   LIG     1       5.394  47.338  19.358  0.00  0.00    -0.503 OA
ATOM     28  H   LIG     1       4.496  47.253  19.000  0.00  0.00     0.292 HD
ENDBRANCH  23  27
ENDBRANCH   9  19
BRANCH  14  29
ATOM     29  O   LIG     1       0.947  39.258  23.205  0.00  0.00    -0.507 OA
ATOM     30  H   LIG     1       0.485  39.558  22.403  0.00  0.00     0.292 HD
ENDBRANCH  14  29
BRANCH  16  31
ATOM     31  O   LIG     1       3.005  41.708  26.714  0.00  0.00    -0.506 OA
ATOM     32  H   LIG     1       2.232  41.342  27.178  0.00  0.00     0.292 HD
ENDBRANCH  16  31
ENDBRANCH   7   8
ENDBRANCH   2   7
BRANCH   3  33
ATOM     33  O   LIG     1       8.289  46.133  22.663  0.00  0.00    -0.383 OA
ATOM     34  H   LIG     1       9.159  46.459  22.375  0.00  0.00     0.210 HD
ENDBRANCH   3  33
BRANCH   6  35
ATOM     35  C   LIG     1       8.983  42.665  27.016  0.00  0.00     0.197 C 
BRANCH  35  36
ATOM     36  O   LIG     1       9.606  43.516  27.969  0.00  0.00    -0.346 OA
BRANCH  36  37
ATOM     37  C   LIG     1      10.403  42.774  28.886  0.00  0.00     0.282 C 
ATOM     38  O   LIG     1       9.654  41.765  29.569  0.00  0.00    -0.343 OA
ATOM     39  C   LIG     1       8.618  42.275  30.415  0.00  0.00     0.149 C 
ATOM     40  C   LIG     1       9.194  43.202  31.493  0.00  0.00     0.174 C 
ATOM     41  C   LIG     1       7.902  41.069  31.020  0.00  0.00     0.041 C 
ATOM     42  C   LIG     1      10.024  44.310  30.845  0.00  0.00     0.179 C 
ATOM     43  C   LIG     1      11.061  43.726  29.884  0.00  0.00     0.201 C 
BRANCH  40  44
ATOM     44  O   LIG     1       8.139  43.814  32.233  0.00  0.00    -0.387 OA
ATOM     45  H   LIG     1       7.332  43.291  32.089  0.00  0.00     0.210 HD
ENDBRANCH  40  44
BRANCH  42  46
ATOM     46  O   LIG     1      10.677  45.065  31.864  0.00  0.00    -0.386 OA
ATOM     47  H   LIG     1      10.685  45.996  31.584  0.00  0.00     0.210 HD
ENDBRANCH  42  46
BRANCH  43  48
ATOM     48  O   LIG     1      12.038  42.982  30.615  0.00  0.00    -0.384 OA
ATOM     49  H   LIG     1      12.855  42.949  30.088  0.00  0.00     0.210 HD
ENDBRANCH  43  48
ENDBRANCH  36  37
ENDBRANCH  35  36
ENDBRANCH   6  35
BRANCH   4  50
ATOM     50  O   LIG     1      10.673  46.438  24.368  0.00  0.00    -0.386 OA
ATOM     51  H   LIG     1      10.889  46.715  23.461  0.00  0.00     0.210 HD
ENDBRANCH   4  50
BRANCH   5  52
ATOM     52  O   LIG     1      11.297  43.944  25.689  0.00  0.00    -0.386 OA
ATOM     53  H   LIG     1      11.743  44.358  26.448  0.00  0.00     0.210 HD
ENDBRANCH   5  52
TORSDOF 16
ENDMDL
MODEL 3
REMARK VINA RESULT:      -8.0      2.783      6.312
REMARK  16 active torsions:
REMARK  status: ('A' for Active; 'I' for Inactive)
REMARK    1  A    between atoms: C_2  and  O_12 
REMARK    2  A    between atoms: C_3  and  O_10 
REMARK    3  A    between atoms: C_4  and  O_8 
REMARK    4  A    between atoms: C_5  and  O_6 
REMARK    5  A    between atoms: C_38  and  C_39 
REMARK    6  A    between atoms: O_12  and  C_13 
REMARK    7  A    between atoms: C_16  and  O_22 
REMARK    8  A    between atoms: C_18  and  O_20 
REMARK    9  A    between atoms: C_27  and  C_28 
REMARK   10  A    between atoms: C_31  and  O_35 
REMARK   11  A    between atoms: C_32  and  O_33 
REMARK   12  A    between atoms: C_39  and  O_40 
REMARK   13  A    between atoms: O_40  and  C_41 
REMARK   14  A    between atoms: C_42  and  O_51 
REMARK   15  A    between atoms: C_43  and  O_49 
REMARK   16  A    between atoms: C_44  and  O_47 
ROOT
ATOM      1  O   LIG     1       7.509  44.206  21.663  0.00  0.00    -0.331 OA
ATOM      2  C   LIG     1       8.265  45.395  21.882  0.00  0.00     0.340 C 
ATOM      3  C   LIG     1       9.225  45.643  20.719  0.00  0.00     0.214 C 
ATOM      4  C   LIG     1       8.486  45.650  19.381  0.00  0.00     0.180 C 
ATOM      5  C   LIG     1       7.564  44.438  19.251  0.00  0.00     0.177 C 
ATOM      6  C   LIG     1       6.688  44.287  20.497  0.00  0.00     0.179 C 
ENDROOT
BRANCH   2   7
ATOM      7  O   LIG     1       9.041  45.260  23.072  0.00  0.00    -0.453 OA
BRANCH   7   8
ATOM      8  C   LIG     1       8.850  44.032  23.666  0.00  0.00     0.214 A 
ATOM      9  C   LIG     1       9.704  43.002  23.515  0.00  0.00     0.181 A 
ATOM     10  O   LIG     1       9.525  41.745  24.071  0.00  0.00    -0.451 OA
ATOM     11  C   LIG     1       8.417  41.525  24.847  0.00  0.00     0.147 A 
ATOM     12  C   LIG     1       8.270  40.252  25.401  0.00  0.00     0.092 A 
ATOM     13  C   LIG     1       7.459  42.506  25.091  0.00  0.00     0.109 A 
ATOM     14  C   LIG     1       7.162  39.967  26.199  0.00  0.00     0.124 A 
ATOM     15  C   LIG     1       6.203  40.950  26.443  0.00  0.00     0.091 A 
ATOM     16  C   LIG     1       6.347  42.224  25.890  0.00  0.00     0.135 A 
ATOM     17  C   LIG     1       7.635  43.838  24.494  0.00  0.00     0.238 A 
ATOM     18  O   LIG     1       6.824  44.738  24.669  0.00  0.00    -0.283 OA
BRANCH   9  19
ATOM     19  C   LIG     1      10.931  43.104  22.706  0.00  0.00     0.025 A 
ATOM     20  C   LIG     1      11.990  43.901  23.140  0.00  0.00     0.015 A 
ATOM     21  C   LIG     1      13.151  43.996  22.374  0.00  0.00     0.050 A 
ATOM     22  C   LIG     1      13.254  43.296  21.172  0.00  0.00     0.158 A 
ATOM     23  C   LIG     1      12.196  42.499  20.737  0.00  0.00     0.159 A 
ATOM     24  C   LIG     1      11.034  42.403  21.504  0.00  0.00     0.060 A 
BRANCH  22  25
ATOM     25  O   LIG     1      14.392  43.398  20.431  0.00  0.00    -0.503 OA
ATOM     26  H   LIG     1      14.392  42.724  19.734  0.00  0.00     0.292 HD
ENDBRANCH  22  25
BRANCH  23  27
ATOM     27  O   LIG     1      12.284  41.809  19.565  0.00  0.00    -0.503 OA
ATOM     28  H   LIG     1      11.712  41.025  19.604  0.00  0.00     0.292 HD
ENDBRANCH  23  27
ENDBRANCH   9  19
BRANCH  14  29
ATOM     29  O   LIG     1       7.017  38.726  26.740  0.00  0.00    -0.507 OA
ATOM     30  H   LIG     1       6.080  38.469  26.694  0.00  0.00     0.292 HD
ENDBRANCH  14  29
BRANCH  16  31
ATOM     31  O   LIG     1       5.382  43.146  26.160  0.00  0.00    -0.506 OA
ATOM     32  H   LIG     1       4.643  42.716  26.623  0.00  0.00     0.292 HD
ENDBRANCH  16  31
ENDBRANCH   7   8
ENDBRANCH   2   7
BRANCH   3  33
ATOM     33  O   LIG     1       9.855  46.908  20.920  0.00  0.00    -0.383 OA
ATOM     34  H   LIG     1       9.708  47.447  20.124  0.00  0.00     0.210 HD
ENDBRANCH   3  33
BRANCH   6  35
ATOM     35  C   LIG     1       5.841  43.019  20.443  0.00  0.00     0.197 C 
BRANCH  35  36
ATOM     36  O   LIG     1       5.468  42.656  21.764  0.00  0.00    -0.346 OA
BRANCH  36  37
ATOM     37  C   LIG     1       4.370  43.435  22.228  0.00  0.00     0.282 C 
ATOM     38  O   LIG     1       3.862  42.971  23.482  0.00  0.00    -0.343 OA
ATOM     39  C   LIG     1       3.297  41.656  23.435  0.00  0.00     0.149 C 
ATOM     40  C   LIG     1       2.135  41.590  22.436  0.00  0.00     0.174 C 
ATOM     41  C   LIG     1       2.852  41.311  24.854  0.00  0.00     0.041 C 
ATOM     42  C   LIG     1       2.593  42.084  21.063  0.00  0.00     0.179 C 
ATOM     43  C   LIG     1       3.267  43.453  21.171  0.00  0.00     0.201 C 
BRANCH  40  44
ATOM     44  O   LIG     1       1.681  40.246  22.294  0.00  0.00    -0.387 OA
ATOM     45  H   LIG     1       1.599  39.864  23.185  0.00  0.00     0.210 HD
ENDBRANCH  40  44
BRANCH  42  46
ATOM     46  O   LIG     1       1.466  42.165  20.193  0.00  0.00    -0.386 OA
ATOM     47  H   LIG     1       1.492  41.392  19.603  0.00  0.00     0.210 HD
ENDBRANCH  42  46
BRANCH  43  48
ATOM     48  O   LIG     1       2.308  44.439  21.560  0.00  0.00    -0.384 OA
ATOM     49  H   LIG     1       2.497  45.259  21.073  0.00  0.00     0.210 HD
ENDBRANCH  43  48
ENDBRANCH  36  37
ENDBRANCH  35  36
ENDBRANCH   6  35
BRANCH   4  50
ATOM     50  O   LIG     1       9.436  45.598  18.314  0.00  0.00    -0.386 OA
ATOM     51  H   LIG     1      10.194  46.148  18.572  0.00  0.00     0.210 HD
ENDBRANCH   4  50
BRANCH   5  52
ATOM     52  O   LIG     1       6.731  44.600  18.106  0.00  0.00    -0.386 OA
ATOM     53  H   LIG     1       7.292  44.873  17.362  0.00  0.00     0.210 HD
ENDBRANCH   5  52
TORSDOF 16
ENDMDL
MODEL 4
REMARK VINA RESULT:      -8.0      4.414      8.303
REMARK  16 active torsions:
REMARK  status: ('A' for Active; 'I' for Inactive)
REMARK    1  A    between atoms: C_2  and  O_12 
REMARK    2  A    between atoms: C_3  and  O_10 
REMARK    3  A    between atoms: C_4  and  O_8 
REMARK    4  A    between atoms: C_5  and  O_6 
REMARK    5  A    between atoms: C_38  and  C_39 
REMARK    6  A    between atoms: O_12  and  C_13 
REMARK    7  A    between atoms: C_16  and  O_22 
REMARK    8  A    between atoms: C_18  and  O_20 
REMARK    9  A    between atoms: C_27  and  C_28 
REMARK   10  A    between atoms: C_31  and  O_35 
REMARK   11  A    between atoms: C_32  and  O_33 
REMARK   12  A    between atoms: C_39  and  O_40 
REMARK   13  A    between atoms: O_40  and  C_41 
REMARK   14  A    between atoms: C_42  and  O_51 
REMARK   15  A    between atoms: C_43  and  O_49 
REMARK   16  A    between atoms: C_44  and  O_47 
ROOT
ATOM      1  O   LIG     1      11.458  43.889  20.744  0.00  0.00    -0.331 OA
ATOM      2  C   LIG     1      10.590  44.384  19.726  0.00  0.00     0.340 C 
ATOM      3  C   LIG     1      11.392  45.080  18.627  0.00  0.00     0.214 C 
ATOM      4  C   LIG     1      12.489  44.168  18.077  0.00  0.00     0.180 C 
ATOM      5  C   LIG     1      13.298  43.531  19.207  0.00  0.00     0.177 C 
ATOM      6  C   LIG     1      12.372  42.906  20.253  0.00  0.00     0.179 C 
ENDROOT
BRANCH   2   7
ATOM      7  O   LIG     1       9.688  45.339  20.285  0.00  0.00    -0.453 OA
BRANCH   7   8
ATOM      8  C   LIG     1       8.457  44.780  20.548  0.00  0.00     0.214 A 
ATOM      9  C   LIG     1       8.091  44.347  21.769  0.00  0.00     0.181 A 
ATOM     10  O   LIG     1       6.874  43.751  22.059  0.00  0.00    -0.451 OA
ATOM     11  C   LIG     1       5.959  43.604  21.048  0.00  0.00     0.147 A 
ATOM     12  C   LIG     1       4.739  43.011  21.375  0.00  0.00     0.092 A 
ATOM     13  C   LIG     1       6.206  44.018  19.741  0.00  0.00     0.109 A 
ATOM     14  C   LIG     1       3.769  42.833  20.388  0.00  0.00     0.124 A 
ATOM     15  C   LIG     1       4.016  43.247  19.079  0.00  0.00     0.091 A 
ATOM     16  C   LIG     1       5.236  43.841  18.750  0.00  0.00     0.135 A 
ATOM     17  C   LIG     1       7.501  44.638  19.423  0.00  0.00     0.238 A 
ATOM     18  O   LIG     1       7.776  45.015  18.292  0.00  0.00    -0.283 OA
BRANCH   9  19
ATOM     19  C   LIG     1       8.979  44.442  22.940  0.00  0.00     0.025 A 
ATOM     20  C   LIG     1       9.227  45.682  23.529  0.00  0.00     0.015 A 
ATOM     21  C   LIG     1      10.067  45.772  24.639  0.00  0.00     0.050 A 
ATOM     22  C   LIG     1      10.661  44.622  25.160  0.00  0.00     0.158 A 
ATOM     23  C   LIG     1      10.413  43.382  24.572  0.00  0.00     0.159 A 
ATOM     24  C   LIG     1       9.572  43.292  23.462  0.00  0.00     0.060 A 
BRANCH  22  25
ATOM     25  O   LIG     1      11.481  44.723  26.243  0.00  0.00    -0.503 OA
ATOM     26  H   LIG     1      12.310  45.156  25.986  0.00  0.00     0.292 HD
ENDBRANCH  22  25
BRANCH  23  27
ATOM     27  O   LIG     1      10.985  42.251  25.073  0.00  0.00    -0.503 OA
ATOM     28  H   LIG     1      11.842  42.101  24.641  0.00  0.00     0.292 HD
ENDBRANCH  23  27
ENDBRANCH   9  19
BRANCH  14  29
ATOM     29  O   LIG     1       2.578  42.254  20.704  0.00  0.00    -0.507 OA
ATOM     30  H   LIG     1       2.734  41.546  21.352  0.00  0.00     0.292 HD
ENDBRANCH  14  29
BRANCH  16  31
ATOM     31  O   LIG     1       5.427  44.227  17.458  0.00  0.00    -0.506 OA
ATOM     32  H   LIG     1       4.586  44.162  16.973  0.00  0.00     0.292 HD
ENDBRANCH  16  31
ENDBRANCH   7   8
ENDBRANCH   2   7
BRANCH   3  33
ATOM     33  O   LIG     1      10.496  45.433  17.574  0.00  0.00    -0.383 OA
ATOM     34  H   LIG     1      10.997  45.933  16.907  0.00  0.00     0.210 HD
ENDBRANCH   3  33
BRANCH   6  35
ATOM     35  C   LIG     1      13.151  42.367  21.448  0.00  0.00     0.197 C 
BRANCH  35  36
ATOM     36  O   LIG     1      14.481  42.865  21.395  0.00  0.00    -0.346 OA
BRANCH  36  37
ATOM     37  C   LIG     1      14.627  44.045  22.179  0.00  0.00     0.282 C 
ATOM     38  O   LIG     1      15.997  44.355  22.448  0.00  0.00    -0.343 OA
ATOM     39  C   LIG     1      16.673  43.378  23.248  0.00  0.00     0.149 C 
ATOM     40  C   LIG     1      15.984  43.206  24.608  0.00  0.00     0.174 C 
ATOM     41  C   LIG     1      18.119  43.846  23.395  0.00  0.00     0.041 C 
ATOM     42  C   LIG     1      14.503  42.882  24.409  0.00  0.00     0.179 C 
ATOM     43  C   LIG     1      13.839  43.901  23.480  0.00  0.00     0.201 C 
BRANCH  40  44
ATOM     44  O   LIG     1      16.580  42.131  25.330  0.00  0.00    -0.387 OA
ATOM     45  H   LIG     1      16.868  41.463  24.686  0.00  0.00     0.210 HD
ENDBRANCH  40  44
BRANCH  42  46
ATOM     46  O   LIG     1      13.848  42.882  25.676  0.00  0.00    -0.386 OA
ATOM     47  H   LIG     1      13.034  42.357  25.588  0.00  0.00     0.210 HD
ENDBRANCH  42  46
BRANCH  43  48
ATOM     48  O   LIG     1      13.802  45.183  24.110  0.00  0.00    -0.384 OA
ATOM     49  H   LIG     1      13.628  45.054  25.058  0.00  0.00     0.210 HD
ENDBRANCH  43  48
ENDBRANCH  36  37
ENDBRANCH  35  36
ENDBRANCH   6  35
BRANCH   4  50
ATOM     50  O   LIG     1      13.385  44.935  17.270  0.00  0.00    -0.386 OA
ATOM     51  H   LIG     1      13.276  44.637  16.351  0.00  0.00     0.210 HD
ENDBRANCH   4  50
BRANCH   5  52
ATOM     52  O   LIG     1      14.147  42.522  18.667  0.00  0.00    -0.386 OA
ATOM     53  H   LIG     1      13.587  41.788  18.363  0.00  0.00     0.210 HD
ENDBRANCH   5  52
TORSDOF 16
ENDMDL
MODEL 5
REMARK VINA RESULT:      -7.9      4.940     10.295
REMARK  16 active torsions:
REMARK  status: ('A' for Active; 'I' for Inactive)
REMARK    1  A    between atoms: C_2  and  O_12 
REMARK    2  A    between atoms: C_3  and  O_10 
REMARK    3  A    between atoms: C_4  and  O_8 
REMARK    4  A    between atoms: C_5  and  O_6 
REMARK    5  A    between atoms: C_38  and  C_39 
REMARK    6  A    between atoms: O_12  and  C_13 
REMARK    7  A    between atoms: C_16  and  O_22 
REMARK    8  A    between atoms: C_18  and  O_20 
REMARK    9  A    between atoms: C_27  and  C_28 
REMARK   10  A    between atoms: C_31  and  O_35 
REMARK   11  A    between atoms: C_32  and  O_33 
REMARK   12  A    between atoms: C_39  and  O_40 
REMARK   13  A    between atoms: O_40  and  C_41 
REMARK   14  A    between atoms: C_42  and  O_51 
REMARK   15  A    between atoms: C_43  and  O_49 
REMARK   16  A    between atoms: C_44  and  O_47 
ROOT
ATOM      1  O   LIG     1      10.893  43.937  21.582  0.00  0.00    -0.331 OA
ATOM      2  C   LIG     1      12.114  43.655  20.902  0.00  0.00     0.340 C 
ATOM      3  C   LIG     1      11.849  43.344  19.429  0.00  0.00     0.214 C 
ATOM      4  C   LIG     1      11.045  44.461  18.762  0.00  0.00     0.180 C 
ATOM      5  C   LIG     1       9.827  44.845  19.603  0.00  0.00     0.177 C 
ATOM      6  C   LIG     1      10.229  45.090  21.059  0.00  0.00     0.179 C 
ENDROOT
BRANCH   2   7
ATOM      7  O   LIG     1      12.737  42.512  21.487  0.00  0.00    -0.453 OA
BRANCH   7   8
ATOM      8  C   LIG     1      13.866  42.858  22.197  0.00  0.00     0.214 A 
ATOM      9  C   LIG     1      13.825  43.358  23.446  0.00  0.00     0.181 A 
ATOM     10  O   LIG     1      14.938  43.746  24.174  0.00  0.00    -0.451 OA
ATOM     11  C   LIG     1      16.177  43.598  23.605  0.00  0.00     0.147 A 
ATOM     12  C   LIG     1      17.278  43.988  24.367  0.00  0.00     0.092 A 
ATOM     13  C   LIG     1      16.362  43.085  22.323  0.00  0.00     0.109 A 
ATOM     14  C   LIG     1      18.565  43.862  23.842  0.00  0.00     0.124 A 
ATOM     15  C   LIG     1      18.750  43.349  22.558  0.00  0.00     0.091 A 
ATOM     16  C   LIG     1      17.649  42.958  21.793  0.00  0.00     0.135 A 
ATOM     17  C   LIG     1      15.184  42.684  21.539  0.00  0.00     0.238 A 
ATOM     18  O   LIG     1      15.285  42.233  20.406  0.00  0.00    -0.283 OA
BRANCH   9  19
ATOM     19  C   LIG     1      12.560  43.570  24.172  0.00  0.00     0.025 A 
ATOM     20  C   LIG     1      11.868  42.481  24.701  0.00  0.00     0.015 A 
ATOM     21  C   LIG     1      10.671  42.681  25.389  0.00  0.00     0.050 A 
ATOM     22  C   LIG     1      10.165  43.972  25.546  0.00  0.00     0.158 A 
ATOM     23  C   LIG     1      10.856  45.061  25.017  0.00  0.00     0.159 A 
ATOM     24  C   LIG     1      12.054  44.860  24.330  0.00  0.00     0.060 A 
BRANCH  22  25
ATOM     25  O   LIG     1       8.995  44.155  26.217  0.00  0.00    -0.503 OA
ATOM     26  H   LIG     1       9.178  44.485  27.111  0.00  0.00     0.292 HD
ENDBRANCH  22  25
BRANCH  23  27
ATOM     27  O   LIG     1      10.373  46.326  25.165  0.00  0.00    -0.503 OA
ATOM     28  H   LIG     1      10.310  46.755  24.297  0.00  0.00     0.292 HD
ENDBRANCH  23  27
ENDBRANCH   9  19
BRANCH  14  29
ATOM     29  O   LIG     1      19.641  44.242  24.583  0.00  0.00    -0.507 OA
ATOM     30  H   LIG     1      20.186  44.854  24.059  0.00  0.00     0.292 HD
ENDBRANCH  14  29
BRANCH  16  31
ATOM     31  O   LIG     1      17.885  42.465  20.546  0.00  0.00    -0.506 OA
ATOM     32  H   LIG     1      18.492  43.059  20.071  0.00  0.00     0.292 HD
ENDBRANCH  16  31
ENDBRANCH   7   8
ENDBRANCH   2   7
BRANCH   3  33
ATOM     33  O   LIG     1      13.105  43.205  18.767  0.00  0.00    -0.383 OA
ATOM     34  H   LIG     1      13.735  42.815  19.396  0.00  0.00     0.210 HD
ENDBRANCH   3  33
BRANCH   6  35
ATOM     35  C   LIG     1       9.015  45.361  21.943  0.00  0.00     0.197 C 
BRANCH  35  36
ATOM     36  O   LIG     1       7.924  44.577  21.481  0.00  0.00    -0.346 OA
BRANCH  36  37
ATOM     37  C   LIG     1       6.676  45.195  21.778  0.00  0.00     0.282 C 
ATOM     38  O   LIG     1       5.681  44.250  22.183  0.00  0.00    -0.343 OA
ATOM     39  C   LIG     1       5.316  43.311  21.166  0.00  0.00     0.149 C 
ATOM     40  C   LIG     1       4.766  44.027  19.926  0.00  0.00     0.174 C 
ATOM     41  C   LIG     1       4.290  42.363  21.782  0.00  0.00     0.041 C 
ATOM     42  C   LIG     1       5.770  45.070  19.432  0.00  0.00     0.179 C 
ATOM     43  C   LIG     1       6.198  45.999  20.570  0.00  0.00     0.201 C 
BRANCH  40  44
ATOM     44  O   LIG     1       4.545  43.091  18.873  0.00  0.00    -0.387 OA
ATOM     45  H   LIG     1       4.908  43.472  18.055  0.00  0.00     0.210 HD
ENDBRANCH  40  44
BRANCH  42  46
ATOM     46  O   LIG     1       5.178  45.830  18.381  0.00  0.00    -0.386 OA
ATOM     47  H   LIG     1       4.610  46.506  18.787  0.00  0.00     0.210 HD
ENDBRANCH  42  46
BRANCH  43  48
ATOM     48  O   LIG     1       5.090  46.797  20.989  0.00  0.00    -0.384 OA
ATOM     49  H   LIG     1       4.403  46.753  20.303  0.00  0.00     0.210 HD
ENDBRANCH  43  48
ENDBRANCH  36  37
ENDBRANCH  35  36
ENDBRANCH   6  35
BRANCH   4  50
ATOM     50  O   LIG     1      10.577  44.014  17.487  0.00  0.00    -0.386 OA
ATOM     51  H   LIG     1       9.637  44.254  17.421  0.00  0.00     0.210 HD
ENDBRANCH   4  50
BRANCH   5  52
ATOM     52  O   LIG     1       9.242  46.030  19.070  0.00  0.00    -0.386 OA
ATOM     53  H   LIG     1       9.475  46.083  18.128  0.00  0.00     0.210 HD
ENDBRANCH   5  52
TORSDOF 16
ENDMDL
MODEL 6
REMARK VINA RESULT:      -7.8      1.761      6.859
REMARK  16 active torsions:
REMARK  status: ('A' for Active; 'I' for Inactive)
REMARK    1  A    between atoms: C_2  and  O_12 
REMARK    2  A    between atoms: C_3  and  O_10 
REMARK    3  A    between atoms: C_4  and  O_8 
REMARK    4  A    between atoms: C_5  and  O_6 
REMARK    5  A    between atoms: C_38  and  C_39 
REMARK    6  A    between atoms: O_12  and  C_13 
REMARK    7  A    between atoms: C_16  and  O_22 
REMARK    8  A    between atoms: C_18  and  O_20 
REMARK    9  A    between atoms: C_27  and  C_28 
REMARK   10  A    between atoms: C_31  and  O_35 
REMARK   11  A    between atoms: C_32  and  O_33 
REMARK   12  A    between atoms: C_39  and  O_40 
REMARK   13  A    between atoms: O_40  and  C_41 
REMARK   14  A    between atoms: C_42  and  O_51 
REMARK   15  A    between atoms: C_43  and  O_49 
REMARK   16  A    between atoms: C_44  and  O_47 
ROOT
ATOM      1  O   LIG     1       5.308  41.743  24.800  0.00  0.00    -0.331 OA
ATOM      2  C   LIG     1       4.249  42.271  25.596  0.00  0.00     0.340 C 
ATOM      3  C   LIG     1       3.974  41.362  26.794  0.00  0.00     0.214 C 
ATOM      4  C   LIG     1       5.248  41.105  27.600  0.00  0.00     0.180 C 
ATOM      5  C   LIG     1       6.406  40.695  26.690  0.00  0.00     0.177 C 
ATOM      6  C   LIG     1       6.543  41.665  25.515  0.00  0.00     0.179 C 
ENDROOT
BRANCH   2   7
ATOM      7  O   LIG     1       3.055  42.347  24.819  0.00  0.00    -0.453 OA
BRANCH   7   8
ATOM      8  C   LIG     1       3.330  42.556  23.485  0.00  0.00     0.214 A 
ATOM      9  C   LIG     1       3.000  41.678  22.520  0.00  0.00     0.181 A 
ATOM     10  O   LIG     1       3.291  41.843  21.175  0.00  0.00    -0.451 OA
ATOM     11  C   LIG     1       3.942  42.983  20.781  0.00  0.00     0.147 A 
ATOM     12  C   LIG     1       4.212  43.125  19.419  0.00  0.00     0.092 A 
ATOM     13  C   LIG     1       4.332  43.977  21.676  0.00  0.00     0.109 A 
ATOM     14  C   LIG     1       4.872  44.264  18.958  0.00  0.00     0.124 A 
ATOM     15  C   LIG     1       5.263  45.258  19.855  0.00  0.00     0.091 A 
ATOM     16  C   LIG     1       4.995  45.119  21.218  0.00  0.00     0.135 A 
ATOM     17  C   LIG     1       4.039  43.802  23.107  0.00  0.00     0.238 A 
ATOM     18  O   LIG     1       4.362  44.638  23.939  0.00  0.00    -0.283 OA
BRANCH   9  19
ATOM     19  C   LIG     1       2.301  40.413  22.806  0.00  0.00     0.025 A 
ATOM     20  C   LIG     1       1.657  40.232  24.030  0.00  0.00     0.015 A 
ATOM     21  C   LIG     1       0.995  39.035  24.300  0.00  0.00     0.050 A 
ATOM     22  C   LIG     1       0.979  38.016  23.348  0.00  0.00     0.158 A 
ATOM     23  C   LIG     1       1.623  38.195  22.124  0.00  0.00     0.159 A 
ATOM     24  C   LIG     1       2.284  39.394  21.853  0.00  0.00     0.060 A 
BRANCH  22  25
ATOM     25  O   LIG     1       0.331  36.850  23.624  0.00  0.00    -0.503 OA
ATOM     26  H   LIG     1      -0.626  36.979  23.538  0.00  0.00     0.292 HD
ENDBRANCH  22  25
BRANCH  23  27
ATOM     27  O   LIG     1       1.613  37.208  21.185  0.00  0.00    -0.503 OA
ATOM     28  H   LIG     1       2.352  37.338  20.568  0.00  0.00     0.292 HD
ENDBRANCH  23  27
ENDBRANCH   9  19
BRANCH  14  29
ATOM     29  O   LIG     1       5.136  44.404  17.630  0.00  0.00    -0.507 OA
ATOM     30  H   LIG     1       4.343  44.748  17.185  0.00  0.00     0.292 HD
ENDBRANCH  14  29
BRANCH  16  31
ATOM     31  O   LIG     1       5.399  46.119  22.050  0.00  0.00    -0.506 OA
ATOM     32  H   LIG     1       5.844  45.736  22.825  0.00  0.00     0.292 HD
ENDBRANCH  16  31
ENDBRANCH   7   8
ENDBRANCH   2   7
BRANCH   3  33
ATOM     33  O   LIG     1       3.007  42.000  27.627  0.00  0.00    -0.383 OA
ATOM     34  H   LIG     1       2.476  41.308  28.057  0.00  0.00     0.210 HD
ENDBRANCH   3  33
BRANCH   6  35
ATOM     35  C   LIG     1       7.616  41.212  24.530  0.00  0.00     0.197 C 
BRANCH  35  36
ATOM     36  O   LIG     1       8.441  42.322  24.202  0.00  0.00    -0.346 OA
BRANCH  36  37
ATOM     37  C   LIG     1       7.664  43.451  23.814  0.00  0.00     0.282 C 
ATOM     38  O   LIG     1       7.642  43.635  22.395  0.00  0.00    -0.343 OA
ATOM     39  C   LIG     1       8.919  43.938  21.822  0.00  0.00     0.149 C 
ATOM     40  C   LIG     1       9.503  45.222  22.426  0.00  0.00     0.174 C 
ATOM     41  C   LIG     1       8.714  44.055  20.314  0.00  0.00     0.041 C 
ATOM     42  C   LIG     1       9.552  45.112  23.950  0.00  0.00     0.179 C 
ATOM     43  C   LIG     1       8.189  44.703  24.513  0.00  0.00     0.201 C 
BRANCH  40  44
ATOM     44  O   LIG     1      10.833  45.428  21.953  0.00  0.00    -0.387 OA
ATOM     45  H   LIG     1      10.836  46.239  21.417  0.00  0.00     0.210 HD
ENDBRANCH  40  44
BRANCH  42  46
ATOM     46  O   LIG     1       9.948  46.367  24.499  0.00  0.00    -0.386 OA
ATOM     47  H   LIG     1       9.240  46.666  25.095  0.00  0.00     0.210 HD
ENDBRANCH  42  46
BRANCH  43  48
ATOM     48  O   LIG     1       7.240  45.750  24.300  0.00  0.00    -0.384 OA
ATOM     49  H   LIG     1       6.352  45.355  24.259  0.00  0.00     0.210 HD
ENDBRANCH  43  48
ENDBRANCH  36  37
ENDBRANCH  35  36
ENDBRANCH   6  35
BRANCH   4  50
ATOM     50  O   LIG     1       5.017  40.043  28.528  0.00  0.00    -0.386 OA
ATOM     51  H   LIG     1       4.101  39.742  28.404  0.00  0.00     0.210 HD
ENDBRANCH   4  50
BRANCH   5  52
ATOM     52  O   LIG     1       7.616  40.690  27.442  0.00  0.00    -0.386 OA
ATOM     53  H   LIG     1       8.114  41.494  27.216  0.00  0.00     0.210 HD
ENDBRANCH   5  52
TORSDOF 16
ENDMDL
MODEL 7
REMARK VINA RESULT:      -7.6      2.037      7.697
REMARK  16 active torsions:
REMARK  status: ('A' for Active; 'I' for Inactive)
REMARK    1  A    between atoms: C_2  and  O_12 
REMARK    2  A    between atoms: C_3  and  O_10 
REMARK    3  A    between atoms: C_4  and  O_8 
REMARK    4  A    between atoms: C_5  and  O_6 
REMARK    5  A    between atoms: C_38  and  C_39 
REMARK    6  A    between atoms: O_12  and  C_13 
REMARK    7  A    between atoms: C_16  and  O_22 
REMARK    8  A    between atoms: C_18  and  O_20 
REMARK    9  A    between atoms: C_27  and  C_28 
REMARK   10  A    between atoms: C_31  and  O_35 
REMARK   11  A    between atoms: C_32  and  O_33 
REMARK   12  A    between atoms: C_39  and  O_40 
REMARK   13  A    between atoms: O_40  and  C_41 
REMARK   14  A    between atoms: C_42  and  O_51 
REMARK   15  A    between atoms: C_43  and  O_49 
REMARK   16  A    between atoms: C_44  and  O_47 
ROOT
ATOM      1  O   LIG     1       4.763  42.420  25.495  0.00  0.00    -0.331 OA
ATOM      2  C   LIG     1       5.469  41.887  26.613  0.00  0.00     0.340 C 
ATOM      3  C   LIG     1       6.963  41.784  26.305  0.00  0.00     0.214 C 
ATOM      4  C   LIG     1       7.527  43.125  25.835  0.00  0.00     0.180 C 
ATOM      5  C   LIG     1       6.651  43.742  24.744  0.00  0.00     0.177 C 
ATOM      6  C   LIG     1       5.180  43.747  25.166  0.00  0.00     0.179 C 
ENDROOT
BRANCH   2   7
ATOM      7  O   LIG     1       4.989  40.575  26.904  0.00  0.00    -0.453 OA
BRANCH   7   8
ATOM      8  C   LIG     1       3.963  40.603  27.823  0.00  0.00     0.214 A 
ATOM      9  C   LIG     1       2.709  40.208  27.537  0.00  0.00     0.181 A 
ATOM     10  O   LIG     1       1.648  40.254  28.428  0.00  0.00    -0.451 OA
ATOM     11  C   LIG     1       1.880  40.712  29.699  0.00  0.00     0.147 A 
ATOM     12  C   LIG     1       0.794  40.737  30.575  0.00  0.00     0.092 A 
ATOM     13  C   LIG     1       3.133  41.143  30.129  0.00  0.00     0.109 A 
ATOM     14  C   LIG     1       0.968  41.193  31.882  0.00  0.00     0.124 A 
ATOM     15  C   LIG     1       2.223  41.625  32.312  0.00  0.00     0.091 A 
ATOM     16  C   LIG     1       3.311  41.602  31.437  0.00  0.00     0.135 A 
ATOM     17  C   LIG     1       4.260  41.109  29.185  0.00  0.00     0.238 A 
ATOM     18  O   LIG     1       5.382  41.480  29.504  0.00  0.00    -0.283 OA
BRANCH   9  19
ATOM     19  C   LIG     1       2.323  39.698  26.210  0.00  0.00     0.025 A 
ATOM     20  C   LIG     1       2.188  38.325  26.001  0.00  0.00     0.015 A 
ATOM     21  C   LIG     1       1.823  37.843  24.745  0.00  0.00     0.050 A 
ATOM     22  C   LIG     1       1.594  38.733  23.695  0.00  0.00     0.158 A 
ATOM     23  C   LIG     1       1.728  40.105  23.903  0.00  0.00     0.159 A 
ATOM     24  C   LIG     1       2.093  40.588  25.160  0.00  0.00     0.060 A 
BRANCH  22  25
ATOM     25  O   LIG     1       1.239  38.250  22.472  0.00  0.00    -0.503 OA
ATOM     26  H   LIG     1       0.705  38.909  22.002  0.00  0.00     0.292 HD
ENDBRANCH  22  25
BRANCH  23  27
ATOM     27  O   LIG     1       1.505  40.984  22.886  0.00  0.00    -0.503 OA
ATOM     28  H   LIG     1       1.058  41.774  23.230  0.00  0.00     0.292 HD
ENDBRANCH  23  27
ENDBRANCH   9  19
BRANCH  14  29
ATOM     29  O   LIG     1      -0.090  41.219  32.738  0.00  0.00    -0.507 OA
ATOM     30  H   LIG     1      -0.887  40.928  32.264  0.00  0.00     0.292 HD
ENDBRANCH  14  29
BRANCH  16  31
ATOM     31  O   LIG     1       4.514  42.034  31.908  0.00  0.00    -0.506 OA
ATOM     32  H   LIG     1       5.212  41.418  31.627  0.00  0.00     0.292 HD
ENDBRANCH  16  31
ENDBRANCH   7   8
ENDBRANCH   2   7
BRANCH   3  33
ATOM     33  O   LIG     1       7.638  41.377  27.495  0.00  0.00    -0.383 OA
ATOM     34  H   LIG     1       8.353  40.768  27.243  0.00  0.00     0.210 HD
ENDBRANCH   3  33
BRANCH   6  35
ATOM     35  C   LIG     1       4.273  44.250  24.048  0.00  0.00     0.197 C 
BRANCH  35  36
ATOM     36  O   LIG     1       4.939  44.087  22.804  0.00  0.00    -0.346 OA
BRANCH  36  37
ATOM     37  C   LIG     1       4.461  45.012  21.832  0.00  0.00     0.282 C 
ATOM     38  O   LIG     1       4.130  44.378  20.593  0.00  0.00    -0.343 OA
ATOM     39  C   LIG     1       5.247  43.786  19.920  0.00  0.00     0.149 C 
ATOM     40  C   LIG     1       6.321  44.836  19.607  0.00  0.00     0.174 C 
ATOM     41  C   LIG     1       4.706  43.125  18.654  0.00  0.00     0.041 C 
ATOM     42  C   LIG     1       6.725  45.572  20.884  0.00  0.00     0.179 C 
ATOM     43  C   LIG     1       5.496  46.114  21.615  0.00  0.00     0.201 C 
BRANCH  40  44
ATOM     44  O   LIG     1       7.484  44.207  19.070  0.00  0.00    -0.387 OA
ATOM     45  H   LIG     1       7.654  44.594  18.195  0.00  0.00     0.210 HD
ENDBRANCH  40  44
BRANCH  42  46
ATOM     46  O   LIG     1       7.604  46.645  20.550  0.00  0.00    -0.386 OA
ATOM     47  H   LIG     1       8.202  46.331  19.851  0.00  0.00     0.210 HD
ENDBRANCH  42  46
BRANCH  43  48
ATOM     48  O   LIG     1       4.880  47.142  20.838  0.00  0.00    -0.384 OA
ATOM     49  H   LIG     1       3.952  46.895  20.682  0.00  0.00     0.210 HD
ENDBRANCH  43  48
ENDBRANCH  36  37
ENDBRANCH  35  36
ENDBRANCH   6  35
BRANCH   4  50
ATOM     50  O   LIG     1       8.834  42.927  25.292  0.00  0.00    -0.386 OA
ATOM     51  H   LIG     1       8.939  43.548  24.552  0.00  0.00     0.210 HD
ENDBRANCH   4  50
BRANCH   5  52
ATOM     52  O   LIG     1       7.076  45.080  24.500  0.00  0.00    -0.386 OA
ATOM     53  H   LIG     1       7.894  45.045  23.976  0.00  0.00     0.210 HD
ENDBRANCH   5  52
TORSDOF 16
ENDMDL
MODEL 8
REMARK VINA RESULT:      -7.5      4.991      8.173
REMARK  16 active torsions:
REMARK  status: ('A' for Active; 'I' for Inactive)
REMARK    1  A    between atoms: C_2  and  O_12 
REMARK    2  A    between atoms: C_3  and  O_10 
REMARK    3  A    between atoms: C_4  and  O_8 
REMARK    4  A    between atoms: C_5  and  O_6 
REMARK    5  A    between atoms: C_38  and  C_39 
REMARK    6  A    between atoms: O_12  and  C_13 
REMARK    7  A    between atoms: C_16  and  O_22 
REMARK    8  A    between atoms: C_18  and  O_20 
REMARK    9  A    between atoms: C_27  and  C_28 
REMARK   10  A    between atoms: C_31  and  O_35 
REMARK   11  A    between atoms: C_32  and  O_33 
REMARK   12  A    between atoms: C_39  and  O_40 
REMARK   13  A    between atoms: O_40  and  C_41 
REMARK   14  A    between atoms: C_42  and  O_51 
REMARK   15  A    between atoms: C_43  and  O_49 
REMARK   16  A    between atoms: C_44  and  O_47 
ROOT
ATOM      1  O   LIG     1      10.516  42.577  23.726  0.00  0.00    -0.331 OA
ATOM      2  C   LIG     1      10.378  41.554  24.709  0.00  0.00     0.340 C 
ATOM      3  C   LIG     1      10.178  42.165  26.096  0.00  0.00     0.214 C 
ATOM      4  C   LIG     1       9.012  43.154  26.105  0.00  0.00     0.180 C 
ATOM      5  C   LIG     1       9.113  44.138  24.939  0.00  0.00     0.177 C 
ATOM      6  C   LIG     1       9.350  43.396  23.621  0.00  0.00     0.179 C 
ENDROOT
BRANCH   2   7
ATOM      7  O   LIG     1      11.562  40.758  24.746  0.00  0.00    -0.453 OA
BRANCH   7   8
ATOM      8  C   LIG     1      11.395  39.569  24.072  0.00  0.00     0.214 A 
ATOM      9  C   LIG     1      11.884  39.349  22.837  0.00  0.00     0.181 A 
ATOM     10  O   LIG     1      11.706  38.177  22.119  0.00  0.00    -0.451 OA
ATOM     11  C   LIG     1      11.002  37.153  22.700  0.00  0.00     0.147 A 
ATOM     12  C   LIG     1      10.849  35.983  21.956  0.00  0.00     0.092 A 
ATOM     13  C   LIG     1      10.451  37.246  23.976  0.00  0.00     0.109 A 
ATOM     14  C   LIG     1      10.142  34.907  22.494  0.00  0.00     0.124 A 
ATOM     15  C   LIG     1       9.590  35.000  23.771  0.00  0.00     0.091 A 
ATOM     16  C   LIG     1       9.741  36.170  24.518  0.00  0.00     0.135 A 
ATOM     17  C   LIG     1      10.624  38.492  24.738  0.00  0.00     0.238 A 
ATOM     18  O   LIG     1      10.157  38.633  25.861  0.00  0.00    -0.283 OA
BRANCH   9  19
ATOM     19  C   LIG     1      12.654  40.364  22.098  0.00  0.00     0.025 A 
ATOM     20  C   LIG     1      14.017  40.526  22.350  0.00  0.00     0.015 A 
ATOM     21  C   LIG     1      14.746  41.487  21.650  0.00  0.00     0.050 A 
ATOM     22  C   LIG     1      14.113  42.288  20.700  0.00  0.00     0.158 A 
ATOM     23  C   LIG     1      12.752  42.127  20.447  0.00  0.00     0.159 A 
ATOM     24  C   LIG     1      12.022  41.165  21.147  0.00  0.00     0.060 A 
BRANCH  22  25
ATOM     25  O   LIG     1      14.836  43.224  20.024  0.00  0.00    -0.503 OA
ATOM     26  H   LIG     1      15.264  42.816  19.255  0.00  0.00     0.292 HD
ENDBRANCH  22  25
BRANCH  23  27
ATOM     27  O   LIG     1      12.123  42.901  19.520  0.00  0.00    -0.503 OA
ATOM     28  H   LIG     1      11.167  42.908  19.694  0.00  0.00     0.292 HD
ENDBRANCH  23  27
ENDBRANCH   9  19
BRANCH  14  29
ATOM     29  O   LIG     1       9.991  33.764  21.770  0.00  0.00    -0.507 OA
ATOM     30  H   LIG     1       9.046  33.540  21.727  0.00  0.00     0.292 HD
ENDBRANCH  14  29
BRANCH  16  31
ATOM     31  O   LIG     1       9.182  36.209  25.759  0.00  0.00    -0.506 OA
ATOM     32  H   LIG     1       8.544  35.480  25.850  0.00  0.00     0.292 HD
ENDBRANCH  16  31
ENDBRANCH   7   8
ENDBRANCH   2   7
BRANCH   3  33
ATOM     33  O   LIG     1       9.910  41.108  27.017  0.00  0.00    -0.383 OA
ATOM     34  H   LIG     1       9.961  40.267  26.534  0.00  0.00     0.210 HD
ENDBRANCH   3  33
BRANCH   6  35
ATOM     35  C   LIG     1       9.569  44.362  22.460  0.00  0.00     0.197 C 
BRANCH  35  36
ATOM     36  O   LIG     1       8.414  44.359  21.633  0.00  0.00    -0.346 OA
BRANCH  36  37
ATOM     37  C   LIG     1       7.979  45.684  21.343  0.00  0.00     0.282 C 
ATOM     38  O   LIG     1       6.594  45.881  21.644  0.00  0.00    -0.343 OA
ATOM     39  C   LIG     1       5.703  45.091  20.850  0.00  0.00     0.149 C 
ATOM     40  C   LIG     1       5.877  45.396  19.356  0.00  0.00     0.174 C 
ATOM     41  C   LIG     1       4.287  45.395  21.334  0.00  0.00     0.041 C 
ATOM     42  C   LIG     1       7.341  45.219  18.951  0.00  0.00     0.179 C 
ATOM     43  C   LIG     1       8.265  46.011  19.878  0.00  0.00     0.201 C 
BRANCH  40  44
ATOM     44  O   LIG     1       5.090  44.501  18.574  0.00  0.00    -0.387 OA
ATOM     45  H   LIG     1       5.400  44.556  17.655  0.00  0.00     0.210 HD
ENDBRANCH  40  44
BRANCH  42  46
ATOM     46  O   LIG     1       7.512  45.656  17.605  0.00  0.00    -0.386 OA
ATOM     47  H   LIG     1       7.232  46.586  17.558  0.00  0.00     0.210 HD
ENDBRANCH  42  46
BRANCH  43  48
ATOM     48  O   LIG     1       8.053  47.412  19.696  0.00  0.00    -0.384 OA
ATOM     49  H   LIG     1       7.239  47.534  19.177  0.00  0.00     0.210 HD
ENDBRANCH  43  48
ENDBRANCH  36  37
ENDBRANCH  35  36
ENDBRANCH   6  35
BRANCH   4  50
ATOM     50  O   LIG     1       9.036  43.906  27.320  0.00  0.00    -0.386 OA
ATOM     51  H   LIG     1       9.788  44.520  27.268  0.00  0.00     0.210 HD
ENDBRANCH   4  50
BRANCH   5  52
ATOM     52  O   LIG     1       7.902  44.885  24.847  0.00  0.00    -0.386 OA
ATOM     53  H   LIG     1       8.073  45.670  24.300  0.00  0.00     0.210 HD
ENDBRANCH   5  52
TORSDOF 16
ENDMDL
MODEL 9
REMARK VINA RESULT:      -7.4      7.302     11.928
REMARK  16 active torsions:
REMARK  status: ('A' for Active; 'I' for Inactive)
REMARK    1  A    between atoms: C_2  and  O_12 
REMARK    2  A    between atoms: C_3  and  O_10 
REMARK    3  A    between atoms: C_4  and  O_8 
REMARK    4  A    between atoms: C_5  and  O_6 
REMARK    5  A    between atoms: C_38  and  C_39 
REMARK    6  A    between atoms: O_12  and  C_13 
REMARK    7  A    between atoms: C_16  and  O_22 
REMARK    8  A    between atoms: C_18  and  O_20 
REMARK    9  A    between atoms: C_27  and  C_28 
REMARK   10  A    between atoms: C_31  and  O_35 
REMARK   11  A    between atoms: C_32  and  O_33 
REMARK   12  A    between atoms: C_39  and  O_40 
REMARK   13  A    between atoms: O_40  and  C_41 
REMARK   14  A    between atoms: C_42  and  O_51 
REMARK   15  A    between atoms: C_43  and  O_49 
REMARK   16  A    between atoms: C_44  and  O_47 
ROOT
ATOM      1  O   LIG     1      -2.443  36.146  27.382  0.00  0.00    -0.331 OA
ATOM      2  C   LIG     1      -3.735  36.231  27.979  0.00  0.00     0.340 C 
ATOM      3  C   LIG     1      -3.660  35.909  29.471  0.00  0.00     0.214 C 
ATOM      4  C   LIG     1      -2.623  36.784  30.177  0.00  0.00     0.180 C 
ATOM      5  C   LIG     1      -1.297  36.793  29.417  0.00  0.00     0.177 C 
ATOM      6  C   LIG     1      -1.522  37.090  27.933  0.00  0.00     0.179 C 
ENDROOT
BRANCH   2   7
ATOM      7  O   LIG     1      -4.611  35.284  27.368  0.00  0.00    -0.453 OA
BRANCH   7   8
ATOM      8  C   LIG     1      -5.604  35.905  26.644  0.00  0.00     0.214 A 
ATOM      9  C   LIG     1      -5.431  36.342  25.383  0.00  0.00     0.181 A 
ATOM     10  O   LIG     1      -6.399  37.000  24.639  0.00  0.00    -0.451 OA
ATOM     11  C   LIG     1      -7.629  37.209  25.206  0.00  0.00     0.147 A 
ATOM     12  C   LIG     1      -8.585  37.865  24.428  0.00  0.00     0.092 A 
ATOM     13  C   LIG     1      -7.945  36.800  26.499  0.00  0.00     0.109 A 
ATOM     14  C   LIG     1      -9.856  38.107  24.950  0.00  0.00     0.124 A 
ATOM     15  C   LIG     1     -10.171  37.697  26.246  0.00  0.00     0.091 A 
ATOM     16  C   LIG     1      -9.217  37.042  27.026  0.00  0.00     0.135 A 
ATOM     17  C   LIG     1      -6.918  36.114  27.299  0.00  0.00     0.238 A 
ATOM     18  O   LIG     1      -7.136  35.737  28.443  0.00  0.00    -0.283 OA
BRANCH   9  19
ATOM     19  C   LIG     1      -4.158  36.184  24.658  0.00  0.00     0.025 A 
ATOM     20  C   LIG     1      -3.697  34.909  24.328  0.00  0.00     0.015 A 
ATOM     21  C   LIG     1      -2.492  34.759  23.642  0.00  0.00     0.050 A 
ATOM     22  C   LIG     1      -1.747  35.883  23.286  0.00  0.00     0.158 A 
ATOM     23  C   LIG     1      -2.207  37.157  23.616  0.00  0.00     0.159 A 
ATOM     24  C   LIG     1      -3.413  37.308  24.302  0.00  0.00     0.060 A 
BRANCH  22  25
ATOM     25  O   LIG     1      -0.571  35.724  22.618  0.00  0.00    -0.503 OA
ATOM     26  H   LIG     1       0.049  36.424  22.875  0.00  0.00     0.292 HD
ENDBRANCH  22  25
BRANCH  23  27
ATOM     27  O   LIG     1      -1.490  38.263  23.272  0.00  0.00    -0.503 OA
ATOM     28  H   LIG     1      -0.625  37.995  22.920  0.00  0.00     0.292 HD
ENDBRANCH  23  27
ENDBRANCH   9  19
BRANCH  14  29
ATOM     29  O   LIG     1     -10.790  38.746  24.193  0.00  0.00    -0.507 OA
ATOM     30  H   LIG     1     -10.559  39.689  24.138  0.00  0.00     0.292 HD
ENDBRANCH  14  29
BRANCH  16  31
ATOM     31  O   LIG     1      -9.576  36.664  28.284  0.00  0.00    -0.506 OA
ATOM     32  H   LIG     1     -10.271  35.985  28.233  0.00  0.00     0.292 HD
ENDBRANCH  16  31
ENDBRANCH   7   8
ENDBRANCH   2   7
BRANCH   3  33
ATOM     33  O   LIG     1      -4.946  36.141  30.045  0.00  0.00    -0.383 OA
ATOM     34  H   LIG     1      -5.616  35.796  29.432  0.00  0.00     0.210 HD
ENDBRANCH   3  33
BRANCH   6  35
ATOM     35  C   LIG     1      -0.227  36.989  27.133  0.00  0.00     0.197 C 
BRANCH  35  36
ATOM     36  O   LIG     1       0.331  38.287  26.992  0.00  0.00    -0.346 OA
BRANCH  36  37
ATOM     37  C   LIG     1       1.739  38.230  26.789  0.00  0.00     0.282 C 
ATOM     38  O   LIG     1       2.279  39.481  26.352  0.00  0.00    -0.343 OA
ATOM     39  C   LIG     1       1.807  39.907  25.070  0.00  0.00     0.149 C 
ATOM     40  C   LIG     1       2.149  38.877  23.986  0.00  0.00     0.174 C 
ATOM     41  C   LIG     1       2.446  41.266  24.789  0.00  0.00     0.041 C 
ATOM     42  C   LIG     1       1.615  37.500  24.382  0.00  0.00     0.179 C 
ATOM     43  C   LIG     1       2.072  37.121  25.792  0.00  0.00     0.201 C 
BRANCH  40  44
ATOM     44  O   LIG     1       1.548  39.246  22.746  0.00  0.00    -0.387 OA
ATOM     45  H   LIG     1       2.241  39.626  22.181  0.00  0.00     0.210 HD
ENDBRANCH  40  44
BRANCH  42  46
ATOM     46  O   LIG     1       2.076  36.529  23.445  0.00  0.00    -0.386 OA
ATOM     47  H   LIG     1       1.956  35.651  23.844  0.00  0.00     0.210 HD
ENDBRANCH  42  46
BRANCH  43  48
ATOM     48  O   LIG     1       3.487  36.929  25.810  0.00  0.00    -0.384 OA
ATOM     49  H   LIG     1       3.728  36.350  25.067  0.00  0.00     0.210 HD
ENDBRANCH  43  48
ENDBRANCH  36  37
ENDBRANCH  35  36
ENDBRANCH   6  35
BRANCH   4  50
ATOM     50  O   LIG     1      -2.379  36.269  31.487  0.00  0.00    -0.386 OA
ATOM     51  H   LIG     1      -3.243  36.105  31.901  0.00  0.00     0.210 HD
ENDBRANCH   4  50
BRANCH   5  52
ATOM     52  O   LIG     1      -0.443  37.790  29.972  0.00  0.00    -0.386 OA
ATOM     53  H   LIG     1       0.073  38.182  29.248  0.00  0.00     0.210 HD
ENDBRANCH   5  52
TORSDOF 16
ENDMDL
