REMARK VINA RESULT:      -6.3      2.691      6.385
REMARK  Name = 2520
REMARK  21 active torsions:
REMARK  status: ('A' for Active; 'I' for Inactive)
REMARK    1  A    between atoms: O_1  and  C_19
REMARK    2  A    between atoms: O_1  and  C_28
REMARK    3  A    between atoms: O_2  and  C_23
REMARK    4  A    between atoms: O_2  and  C_31
REMARK    5  A    between atoms: O_3  and  C_27
REMARK    6  A    between atoms: O_3  and  C_32
REMARK    7  A    between atoms: O_4  and  C_30
REMARK    8  A    between atoms: O_4  and  C_33
REMARK    9  A    between atoms: N_5  and  C_12
REMARK   10  A    between atoms: N_5  and  C_18
REMARK   11  A    between atoms: N_5  and  C_20
REMARK   12  A    between atoms: C_7  and  C_8
REMARK   13  A    between atoms: C_7  and  C_9
REMARK   14  A    between atoms: C_7  and  C_11
REMARK   15  A    between atoms: C_7  and  C_15
REMARK   16  A    between atoms: C_8  and  C_13
REMARK   17  A    between atoms: C_8  and  C_14
REMARK   18  A    between atoms: C_9  and  C_10
REMARK   19  A    between atoms: C_10  and  C_12
REMARK   20  A    between atoms: C_18  and  C_22
REMARK   21  A    between atoms: C_22  and  C_24
REMARK                            x       y       z     vdW  Elec       q    Type
REMARK                         _______ _______ _______ _____ _____    ______ ____
ROOT
ATOM      1  C   UNL     1     177.578 178.376 171.033  0.00  0.00    +0.028 C 
ENDROOT
BRANCH   1   2
ATOM      2  C   UNL     1     177.833 177.856 169.573  0.00  0.00    +0.085 C 
BRANCH   2   7
ATOM      3  C   UNL     1     181.337 176.481 170.302  0.00  0.00    +0.162 A 
ATOM      4  C   UNL     1     181.351 175.320 169.529  0.00  0.00    +0.162 A 
ATOM      5  C   UNL     1     180.233 174.975 168.769  0.00  0.00    +0.050 A 
ATOM      6  C   UNL     1     179.101 175.791 168.783  0.00  0.00    +0.009 A 
ATOM      7  C   UNL     1     179.088 176.951 169.557  0.00  0.00    -0.024 A 
ATOM      8  C   UNL     1     180.206 177.297 170.317  0.00  0.00    +0.054 A 
BRANCH   3   9
ATOM      9  O   UNL     1     182.423 176.829 171.048  0.00  0.00    -0.491 OA
ATOM     10  C   UNL     1     182.189 177.656 172.186  0.00  0.00    +0.277 C 
ENDBRANCH   3   9
BRANCH   4  11
ATOM     11  O   UNL     1     182.450 174.515 169.507  0.00  0.00    -0.491 OA
ATOM     12  C   UNL     1     182.402 173.332 170.301  0.00  0.00    +0.277 C 
ENDBRANCH   4  11
ENDBRANCH   2   7
BRANCH   2  13
ATOM     13  C   UNL     1     178.069 179.085 168.595  0.00  0.00    +0.007 C 
ATOM     14  C   UNL     1     178.610 180.336 169.313  0.00  0.00    +0.009 C 
ATOM     15  C   UNL     1     178.989 178.775 167.401  0.00  0.00    +0.009 C 
ENDBRANCH   2  13
BRANCH   2  16
ATOM     16  C   UNL     1     176.594 177.144 169.143  0.00  0.00    +0.074 C 
ATOM     17  N   UNL     1     175.636 176.577 168.817  0.00  0.00    -0.196 NA
ENDBRANCH   2  16
ENDBRANCH   1   2
BRANCH   1  18
ATOM     18  C   UNL     1     176.792 177.410 171.945  0.00  0.00    +0.017 C 
BRANCH  18  19
ATOM     19  C   UNL     1     177.574 177.013 173.201  0.00  0.00    +0.084 C 
BRANCH  19  20
ATOM     20  N   UNL     1     178.432 175.859 172.968  0.00  0.00    -0.305 NA
ATOM     21  C   UNL     1     179.459 175.761 174.007  0.00  0.00    +0.104 C 
BRANCH  20  22
ATOM     22  C   UNL     1     177.640 174.628 172.921  0.00  0.00    +0.088 C 
BRANCH  22  23
ATOM     23  C   UNL     1     177.933 173.836 171.647  0.00  0.00    +0.050 C 
BRANCH  23  24
ATOM     24  C   UNL     1     176.685 173.628 170.824  0.00  0.00    -0.042 A 
ATOM     25  C   UNL     1     176.782 173.130 169.525  0.00  0.00    +0.007 A 
ATOM     26  C   UNL     1     175.629 172.939 168.764  0.00  0.00    +0.049 A 
ATOM     27  C   UNL     1     174.380 173.245 169.302  0.00  0.00    +0.161 A 
ATOM     28  C   UNL     1     174.283 173.744 170.601  0.00  0.00    +0.162 A 
ATOM     29  C   UNL     1     175.437 173.935 171.363  0.00  0.00    +0.053 A 
BRANCH  28  30
ATOM     30  O   UNL     1     173.068 174.047 171.138  0.00  0.00    -0.491 OA
ATOM     31  C   UNL     1     172.433 173.035 171.918  0.00  0.00    +0.277 C 
ENDBRANCH  28  30
BRANCH  27  32
ATOM     32  O   UNL     1     173.261 173.054 168.549  0.00  0.00    -0.491 OA
ATOM     33  C   UNL     1     172.842 174.139 167.724  0.00  0.00    +0.277 C 
ENDBRANCH  27  32
ENDBRANCH  23  24
ENDBRANCH  22  23
ENDBRANCH  20  22
ENDBRANCH  19  20
ENDBRANCH  18  19
ENDBRANCH   1  18
TORSDOF 14
