MODEL 1
REMARK VINA RESULT:      -7.1      0.000      0.000
REMARK  13 active torsions:
REMARK  status: ('A' for Active; 'I' for Inactive)
REMARK    1  A    between atoms: C_2  and  O_12 
REMARK    2  A    between atoms: C_3  and  O_10 
REMARK    3  A    between atoms: C_4  and  O_8 
REMARK    4  A    between atoms: C_5  and  O_6 
REMARK    5  A    between atoms: C_22  and  C_23 
REMARK    6  A    between atoms: O_12  and  C_13 
REMARK    7  A    between atoms: C_13  and  C_14 
REMARK    8  A    between atoms: C_15  and  C_16 
REMARK    9  A    between atoms: C_23  and  O_24 
REMARK   10  A    between atoms: O_24  and  C_25 
REMARK   11  A    between atoms: C_26  and  O_34 
REMARK   12  A    between atoms: C_27  and  O_32 
REMARK   13  A    between atoms: C_28  and  O_30 
ROOT
ATOM      1  O   LIG     1      30.332  30.489  19.045  0.00  0.00    -0.341 OA
ATOM      2  C   LIG     1      29.097  31.057  18.617  0.00  0.00     0.282 C 
ATOM      3  C   LIG     1      28.051  30.965  19.730  0.00  0.00     0.201 C 
ATOM      4  C   LIG     1      28.567  31.580  21.030  0.00  0.00     0.179 C 
ATOM      5  C   LIG     1      29.964  31.064  21.371  0.00  0.00     0.177 C 
ATOM      6  C   LIG     1      30.896  31.179  20.162  0.00  0.00     0.178 C 
ENDROOT
BRANCH   6   7
ATOM      7  C   LIG     1      32.263  30.563  20.442  0.00  0.00     0.197 C 
BRANCH   7   8
ATOM      8  O   LIG     1      32.605  29.714  19.362  0.00  0.00    -0.346 OA
BRANCH   8   9
ATOM      9  C   LIG     1      33.326  28.567  19.799  0.00  0.00     0.281 C 
ATOM     10  O   LIG     1      33.948  27.877  18.710  0.00  0.00    -0.346 OA
ATOM     11  C   LIG     1      33.023  27.275  17.807  0.00  0.00     0.197 C 
ATOM     12  C   LIG     1      32.164  26.243  18.528  0.00  0.00     0.171 C 
ATOM     13  C   LIG     1      31.417  26.887  19.697  0.00  0.00     0.178 C 
ATOM     14  C   LIG     1      32.399  27.640  20.600  0.00  0.00     0.201 C 
BRANCH  12  15
ATOM     15  O   LIG     1      31.236  25.655  17.627  0.00  0.00    -0.387 OA
ATOM     16  H   LIG     1      31.517  24.737  17.474  0.00  0.00     0.210 HD
ENDBRANCH  12  15
BRANCH  13  17
ATOM     17  O   LIG     1      30.441  27.795  19.190  0.00  0.00    -0.386 OA
ATOM     18  H   LIG     1      29.836  27.288  18.622  0.00  0.00     0.210 HD
ENDBRANCH  13  17
BRANCH  14  19
ATOM     19  O   LIG     1      33.212  26.702  21.300  0.00  0.00    -0.384 OA
ATOM     20  H   LIG     1      33.230  26.951  22.240  0.00  0.00     0.210 HD
ENDBRANCH  14  19
ENDBRANCH   8   9
ENDBRANCH   7   8
ENDBRANCH   6   7
BRANCH   5  21
ATOM     21  O   LIG     1      30.497  31.825  22.452  0.00  0.00    -0.386 OA
ATOM     22  H   LIG     1      31.448  31.626  22.518  0.00  0.00     0.210 HD
ENDBRANCH   5  21
BRANCH   2  23
ATOM     23  O   LIG     1      28.602  30.341  17.487  0.00  0.00    -0.345 OA
BRANCH  23  24
ATOM     24  C   LIG     1      29.586  30.238  16.470  0.00  0.00     0.190 C 
BRANCH  24  25
ATOM     25  C   LIG     1      29.303  29.022  15.649  0.00  0.00     0.001 C 
ATOM     26  C   LIG     1      30.253  28.341  14.989  0.00  0.00     0.006 C 
BRANCH  26  27
ATOM     27  C   LIG     1      30.025  27.131  14.181  0.00  0.00    -0.025 A 
ATOM     28  C   LIG     1      30.846  26.029  14.361  0.00  0.00     0.008 A 
ATOM     29  C   LIG     1      30.629  24.884  13.595  0.00  0.00     0.001 A 
ATOM     30  C   LIG     1      29.595  24.855  12.659  0.00  0.00     0.000 A 
ATOM     31  C   LIG     1      28.777  25.971  12.489  0.00  0.00     0.001 A 
ATOM     32  C   LIG     1      28.994  27.117  13.255  0.00  0.00     0.008 A 
ENDBRANCH  26  27
ENDBRANCH  24  25
ENDBRANCH  23  24
ENDBRANCH   2  23
BRANCH   4  33
ATOM     33  O   LIG     1      27.691  31.226  22.103  0.00  0.00    -0.386 OA
ATOM     34  H   LIG     1      26.787  31.207  21.746  0.00  0.00     0.210 HD
ENDBRANCH   4  33
BRANCH   3  35
ATOM     35  O   LIG     1      26.883  31.665  19.304  0.00  0.00    -0.384 OA
ATOM     36  H   LIG     1      26.947  32.581  19.623  0.00  0.00     0.210 HD
ENDBRANCH   3  35
TORSDOF 13
ENDMDL
MODEL 2
REMARK VINA RESULT:      -7.1     12.648     15.716
REMARK  13 active torsions:
REMARK  status: ('A' for Active; 'I' for Inactive)
REMARK    1  A    between atoms: C_2  and  O_12 
REMARK    2  A    between atoms: C_3  and  O_10 
REMARK    3  A    between atoms: C_4  and  O_8 
REMARK    4  A    between atoms: C_5  and  O_6 
REMARK    5  A    between atoms: C_22  and  C_23 
REMARK    6  A    between atoms: O_12  and  C_13 
REMARK    7  A    between atoms: C_13  and  C_14 
REMARK    8  A    between atoms: C_15  and  C_16 
REMARK    9  A    between atoms: C_23  and  O_24 
REMARK   10  A    between atoms: O_24  and  C_25 
REMARK   11  A    between atoms: C_26  and  O_34 
REMARK   12  A    between atoms: C_27  and  O_32 
REMARK   13  A    between atoms: C_28  and  O_30 
ROOT
ATOM      1  O   LIG     1      30.253  23.972  30.759  0.00  0.00    -0.341 OA
ATOM      2  C   LIG     1      28.866  23.791  30.484  0.00  0.00     0.282 C 
ATOM      3  C   LIG     1      28.326  24.964  29.665  0.00  0.00     0.201 C 
ATOM      4  C   LIG     1      29.155  25.190  28.401  0.00  0.00     0.179 C 
ATOM      5  C   LIG     1      30.650  25.219  28.718  0.00  0.00     0.177 C 
ATOM      6  C   LIG     1      31.047  24.012  29.572  0.00  0.00     0.178 C 
ENDROOT
BRANCH   6   7
ATOM      7  C   LIG     1      32.511  24.079  29.999  0.00  0.00     0.197 C 
BRANCH   7   8
ATOM      8  O   LIG     1      32.764  25.364  30.539  0.00  0.00    -0.346 OA
BRANCH   8   9
ATOM      9  C   LIG     1      34.156  25.662  30.563  0.00  0.00     0.281 C 
ATOM     10  O   LIG     1      34.871  24.815  31.470  0.00  0.00    -0.346 OA
ATOM     11  C   LIG     1      34.535  25.027  32.840  0.00  0.00     0.197 C 
ATOM     12  C   LIG     1      34.852  26.458  33.255  0.00  0.00     0.171 C 
ATOM     13  C   LIG     1      34.104  27.455  32.369  0.00  0.00     0.178 C 
ATOM     14  C   LIG     1      34.367  27.148  30.891  0.00  0.00     0.201 C 
BRANCH  12  15
ATOM     15  O   LIG     1      34.504  26.667  34.617  0.00  0.00    -0.387 OA
ATOM     16  H   LIG     1      34.995  26.017  35.149  0.00  0.00     0.210 HD
ENDBRANCH  12  15
BRANCH  13  17
ATOM     17  O   LIG     1      32.705  27.364  32.634  0.00  0.00    -0.386 OA
ATOM     18  H   LIG     1      32.297  28.198  32.344  0.00  0.00     0.210 HD
ENDBRANCH  13  17
BRANCH  14  19
ATOM     19  O   LIG     1      35.715  27.482  30.572  0.00  0.00    -0.384 OA
ATOM     20  H   LIG     1      36.263  27.338  31.361  0.00  0.00     0.210 HD
ENDBRANCH  14  19
ENDBRANCH   8   9
ENDBRANCH   7   8
ENDBRANCH   6   7
BRANCH   5  21
ATOM     21  O   LIG     1      31.391  25.199  27.501  0.00  0.00    -0.386 OA
ATOM     22  H   LIG     1      31.658  26.113  27.298  0.00  0.00     0.210 HD
ENDBRANCH   5  21
BRANCH   2  23
ATOM     23  O   LIG     1      28.135  23.734  31.707  0.00  0.00    -0.345 OA
BRANCH  23  24
ATOM     24  C   LIG     1      28.929  23.210  32.759  0.00  0.00     0.190 C 
BRANCH  24  25
ATOM     25  C   LIG     1      28.068  22.356  33.633  0.00  0.00     0.001 C 
ATOM     26  C   LIG     1      26.865  21.894  33.257  0.00  0.00     0.006 C 
BRANCH  26  27
ATOM     27  C   LIG     1      25.989  21.039  34.077  0.00  0.00    -0.025 A 
ATOM     28  C   LIG     1      26.241  19.678  34.147  0.00  0.00     0.008 A 
ATOM     29  C   LIG     1      25.411  18.870  34.924  0.00  0.00     0.001 A 
ATOM     30  C   LIG     1      24.341  19.431  35.619  0.00  0.00     0.000 A 
ATOM     31  C   LIG     1      24.100  20.802  35.539  0.00  0.00     0.001 A 
ATOM     32  C   LIG     1      24.930  21.612  34.762  0.00  0.00     0.008 A 
ENDBRANCH  26  27
ENDBRANCH  24  25
ENDBRANCH  23  24
ENDBRANCH   2  23
BRANCH   4  33
ATOM     33  O   LIG     1      28.803  26.446  27.820  0.00  0.00    -0.386 OA
ATOM     34  H   LIG     1      29.630  26.899  27.582  0.00  0.00     0.210 HD
ENDBRANCH   4  33
BRANCH   3  35
ATOM     35  O   LIG     1      26.977  24.671  29.300  0.00  0.00    -0.384 OA
ATOM     36  H   LIG     1      26.839  23.714  29.401  0.00  0.00     0.210 HD
ENDBRANCH   3  35
TORSDOF 13
ENDMDL
MODEL 3
REMARK VINA RESULT:      -6.8      2.202      3.665
REMARK  13 active torsions:
REMARK  status: ('A' for Active; 'I' for Inactive)
REMARK    1  A    between atoms: C_2  and  O_12 
REMARK    2  A    between atoms: C_3  and  O_10 
REMARK    3  A    between atoms: C_4  and  O_8 
REMARK    4  A    between atoms: C_5  and  O_6 
REMARK    5  A    between atoms: C_22  and  C_23 
REMARK    6  A    between atoms: O_12  and  C_13 
REMARK    7  A    between atoms: C_13  and  C_14 
REMARK    8  A    between atoms: C_15  and  C_16 
REMARK    9  A    between atoms: C_23  and  O_24 
REMARK   10  A    between atoms: O_24  and  C_25 
REMARK   11  A    between atoms: C_26  and  O_34 
REMARK   12  A    between atoms: C_27  and  O_32 
REMARK   13  A    between atoms: C_28  and  O_30 
ROOT
ATOM      1  O   LIG     1      29.671  30.367  17.742  0.00  0.00    -0.341 OA
ATOM      2  C   LIG     1      29.448  31.260  16.653  0.00  0.00     0.282 C 
ATOM      3  C   LIG     1      27.949  31.447  16.413  0.00  0.00     0.201 C 
ATOM      4  C   LIG     1      27.231  31.881  17.690  0.00  0.00     0.179 C 
ATOM      5  C   LIG     1      27.620  30.995  18.872  0.00  0.00     0.177 C 
ATOM      6  C   LIG     1      29.142  30.862  18.974  0.00  0.00     0.178 C 
ENDROOT
BRANCH   6   7
ATOM      7  C   LIG     1      29.552  29.889  20.075  0.00  0.00     0.197 C 
BRANCH   7   8
ATOM      8  O   LIG     1      30.930  30.072  20.347  0.00  0.00    -0.346 OA
BRANCH   8   9
ATOM      9  C   LIG     1      31.156  31.179  21.213  0.00  0.00     0.281 C 
ATOM     10  O   LIG     1      32.293  31.951  20.811  0.00  0.00    -0.346 OA
ATOM     11  C   LIG     1      33.533  31.260  20.943  0.00  0.00     0.197 C 
ATOM     12  C   LIG     1      33.777  30.868  22.395  0.00  0.00     0.171 C 
ATOM     13  C   LIG     1      32.632  30.001  22.919  0.00  0.00     0.178 C 
ATOM     14  C   LIG     1      31.288  30.690  22.663  0.00  0.00     0.201 C 
BRANCH  12  15
ATOM     15  O   LIG     1      35.008  30.169  22.519  0.00  0.00    -0.387 OA
ATOM     16  H   LIG     1      35.647  30.771  22.938  0.00  0.00     0.210 HD
ENDBRANCH  12  15
BRANCH  13  17
ATOM     17  O   LIG     1      32.655  28.738  22.255  0.00  0.00    -0.386 OA
ATOM     18  H   LIG     1      32.594  28.909  21.299  0.00  0.00     0.210 HD
ENDBRANCH  13  17
BRANCH  14  19
ATOM     19  O   LIG     1      31.166  31.822  23.522  0.00  0.00    -0.384 OA
ATOM     20  H   LIG     1      32.034  32.255  23.585  0.00  0.00     0.210 HD
ENDBRANCH  14  19
ENDBRANCH   8   9
ENDBRANCH   7   8
ENDBRANCH   6   7
BRANCH   5  21
ATOM     21  O   LIG     1      27.116  31.567  20.077  0.00  0.00    -0.386 OA
ATOM     22  H   LIG     1      26.147  31.611  20.004  0.00  0.00     0.210 HD
ENDBRANCH   5  21
BRANCH   2  23
ATOM     23  O   LIG     1      30.021  30.721  15.463  0.00  0.00    -0.345 OA
BRANCH  23  24
ATOM     24  C   LIG     1      31.231  30.033  15.738  0.00  0.00     0.190 C 
BRANCH  24  25
ATOM     25  C   LIG     1      31.174  28.684  15.095  0.00  0.00     0.001 C 
ATOM     26  C   LIG     1      30.070  28.190  14.515  0.00  0.00     0.006 C 
BRANCH  26  27
ATOM     27  C   LIG     1      29.972  26.875  13.858  0.00  0.00    -0.025 A 
ATOM     28  C   LIG     1      29.005  26.672  12.886  0.00  0.00     0.008 A 
ATOM     29  C   LIG     1      28.913  25.427  12.264  0.00  0.00     0.001 A 
ATOM     30  C   LIG     1      29.787  24.401  12.623  0.00  0.00     0.000 A 
ATOM     31  C   LIG     1      30.755  24.620  13.603  0.00  0.00     0.001 A 
ATOM     32  C   LIG     1      30.848  25.865  14.224  0.00  0.00     0.008 A 
ENDBRANCH  26  27
ENDBRANCH  24  25
ENDBRANCH  23  24
ENDBRANCH   2  23
BRANCH   4  33
ATOM     33  O   LIG     1      25.819  31.771  17.502  0.00  0.00    -0.386 OA
ATOM     34  H   LIG     1      25.648  31.814  16.546  0.00  0.00     0.210 HD
ENDBRANCH   4  33
BRANCH   3  35
ATOM     35  O   LIG     1      27.779  32.448  15.409  0.00  0.00    -0.384 OA
ATOM     36  H   LIG     1      27.480  33.263  15.845  0.00  0.00     0.210 HD
ENDBRANCH   3  35
TORSDOF 13
ENDMDL
MODEL 4
REMARK VINA RESULT:      -6.8      1.495      2.053
REMARK  13 active torsions:
REMARK  status: ('A' for Active; 'I' for Inactive)
REMARK    1  A    between atoms: C_2  and  O_12 
REMARK    2  A    between atoms: C_3  and  O_10 
REMARK    3  A    between atoms: C_4  and  O_8 
REMARK    4  A    between atoms: C_5  and  O_6 
REMARK    5  A    between atoms: C_22  and  C_23 
REMARK    6  A    between atoms: O_12  and  C_13 
REMARK    7  A    between atoms: C_13  and  C_14 
REMARK    8  A    between atoms: C_15  and  C_16 
REMARK    9  A    between atoms: C_23  and  O_24 
REMARK   10  A    between atoms: O_24  and  C_25 
REMARK   11  A    between atoms: C_26  and  O_34 
REMARK   12  A    between atoms: C_27  and  O_32 
REMARK   13  A    between atoms: C_28  and  O_30 
ROOT
ATOM      1  O   LIG     1      30.951  29.865  20.284  0.00  0.00    -0.341 OA
ATOM      2  C   LIG     1      29.827  29.918  19.408  0.00  0.00     0.282 C 
ATOM      3  C   LIG     1      28.550  30.219  20.193  0.00  0.00     0.201 C 
ATOM      4  C   LIG     1      28.701  31.482  21.040  0.00  0.00     0.179 C 
ATOM      5  C   LIG     1      30.000  31.457  21.845  0.00  0.00     0.177 C 
ATOM      6  C   LIG     1      31.189  31.108  20.947  0.00  0.00     0.178 C 
ENDROOT
BRANCH   6   7
ATOM      7  C   LIG     1      32.479  30.962  21.749  0.00  0.00     0.197 C 
BRANCH   7   8
ATOM      8  O   LIG     1      32.639  29.601  22.102  0.00  0.00    -0.346 OA
BRANCH   8   9
ATOM      9  C   LIG     1      34.005  29.201  22.063  0.00  0.00     0.281 C 
ATOM     10  O   LIG     1      34.668  29.673  20.885  0.00  0.00    -0.346 OA
ATOM     11  C   LIG     1      34.188  29.082  19.679  0.00  0.00     0.197 C 
ATOM     12  C   LIG     1      34.391  27.572  19.704  0.00  0.00     0.171 C 
ATOM     13  C   LIG     1      33.684  26.954  20.912  0.00  0.00     0.178 C 
ATOM     14  C   LIG     1      34.107  27.674  22.196  0.00  0.00     0.201 C 
BRANCH  12  15
ATOM     15  O   LIG     1      33.900  26.986  18.506  0.00  0.00    -0.387 OA
ATOM     16  H   LIG     1      33.217  26.340  18.754  0.00  0.00     0.210 HD
ENDBRANCH  12  15
BRANCH  13  17
ATOM     17  O   LIG     1      32.273  27.069  20.742  0.00  0.00    -0.386 OA
ATOM     18  H   LIG     1      31.855  26.818  21.584  0.00  0.00     0.210 HD
ENDBRANCH  13  17
BRANCH  14  19
ATOM     19  O   LIG     1      35.462  27.348  22.497  0.00  0.00    -0.384 OA
ATOM     20  H   LIG     1      36.040  27.982  22.041  0.00  0.00     0.210 HD
ENDBRANCH  14  19
ENDBRANCH   8   9
ENDBRANCH   7   8
ENDBRANCH   6   7
BRANCH   5  21
ATOM     21  O   LIG     1      30.214  32.737  22.434  0.00  0.00    -0.386 OA
ATOM     22  H   LIG     1      29.895  32.701  23.353  0.00  0.00     0.210 HD
ENDBRANCH   5  21
BRANCH   2  23
ATOM     23  O   LIG     1      29.660  28.658  18.761  0.00  0.00    -0.345 OA
BRANCH  23  24
ATOM     24  C   LIG     1      30.745  28.376  17.891  0.00  0.00     0.190 C 
BRANCH  24  25
ATOM     25  C   LIG     1      30.268  27.464  16.807  0.00  0.00     0.001 C 
ATOM     26  C   LIG     1      30.541  27.659  15.507  0.00  0.00     0.006 C 
BRANCH  26  27
ATOM     27  C   LIG     1      30.105  26.781  14.407  0.00  0.00    -0.025 A 
ATOM     28  C   LIG     1      29.098  27.207  13.556  0.00  0.00     0.008 A 
ATOM     29  C   LIG     1      28.687  26.376  12.515  0.00  0.00     0.001 A 
ATOM     30  C   LIG     1      29.286  25.129  12.339  0.00  0.00     0.000 A 
ATOM     31  C   LIG     1      30.298  24.713  13.204  0.00  0.00     0.001 A 
ATOM     32  C   LIG     1      30.710  25.545  14.245  0.00  0.00     0.008 A 
ENDBRANCH  26  27
ENDBRANCH  24  25
ENDBRANCH  23  24
ENDBRANCH   2  23
BRANCH   4  33
ATOM     33  O   LIG     1      27.612  31.571  21.960  0.00  0.00    -0.386 OA
ATOM     34  H   LIG     1      27.359  32.508  22.022  0.00  0.00     0.210 HD
ENDBRANCH   4  33
BRANCH   3  35
ATOM     35  O   LIG     1      27.484  30.397  19.261  0.00  0.00    -0.384 OA
ATOM     36  H   LIG     1      26.649  30.190  19.715  0.00  0.00     0.210 HD
ENDBRANCH   3  35
TORSDOF 13
ENDMDL
MODEL 5
REMARK VINA RESULT:      -6.7      2.436      3.461
REMARK  13 active torsions:
REMARK  status: ('A' for Active; 'I' for Inactive)
REMARK    1  A    between atoms: C_2  and  O_12 
REMARK    2  A    between atoms: C_3  and  O_10 
REMARK    3  A    between atoms: C_4  and  O_8 
REMARK    4  A    between atoms: C_5  and  O_6 
REMARK    5  A    between atoms: C_22  and  C_23 
REMARK    6  A    between atoms: O_12  and  C_13 
REMARK    7  A    between atoms: C_13  and  C_14 
REMARK    8  A    between atoms: C_15  and  C_16 
REMARK    9  A    between atoms: C_23  and  O_24 
REMARK   10  A    between atoms: O_24  and  C_25 
REMARK   11  A    between atoms: C_26  and  O_34 
REMARK   12  A    between atoms: C_27  and  O_32 
REMARK   13  A    between atoms: C_28  and  O_30 
ROOT
ATOM      1  O   LIG     1      31.609  28.733  21.169  0.00  0.00    -0.341 OA
ATOM      2  C   LIG     1      30.678  28.961  20.113  0.00  0.00     0.282 C 
ATOM      3  C   LIG     1      29.339  29.440  20.674  0.00  0.00     0.201 C 
ATOM      4  C   LIG     1      29.519  30.659  21.577  0.00  0.00     0.179 C 
ATOM      5  C   LIG     1      30.636  30.435  22.595  0.00  0.00     0.177 C 
ATOM      6  C   LIG     1      31.903  29.921  21.906  0.00  0.00     0.178 C 
ENDROOT
BRANCH   6   7
ATOM      7  C   LIG     1      32.995  29.578  22.915  0.00  0.00     0.197 C 
BRANCH   7   8
ATOM      8  O   LIG     1      33.369  28.225  22.732  0.00  0.00    -0.346 OA
BRANCH   8   9
ATOM      9  C   LIG     1      34.289  27.792  23.728  0.00  0.00     0.281 C 
ATOM     10  O   LIG     1      35.607  28.303  23.501  0.00  0.00    -0.346 OA
ATOM     11  C   LIG     1      36.230  27.785  22.328  0.00  0.00     0.197 C 
ATOM     12  C   LIG     1      36.373  26.271  22.420  0.00  0.00     0.171 C 
ATOM     13  C   LIG     1      35.008  25.613  22.625  0.00  0.00     0.178 C 
ATOM     14  C   LIG     1      34.284  26.257  23.813  0.00  0.00     0.201 C 
BRANCH  12  15
ATOM     15  O   LIG     1      36.983  25.759  21.243  0.00  0.00    -0.387 OA
ATOM     16  H   LIG     1      37.860  26.173  21.163  0.00  0.00     0.210 HD
ENDBRANCH  12  15
BRANCH  13  17
ATOM     17  O   LIG     1      34.224  25.774  21.444  0.00  0.00    -0.386 OA
ATOM     18  H   LIG     1      34.210  24.918  20.983  0.00  0.00     0.210 HD
ENDBRANCH  13  17
BRANCH  14  19
ATOM     19  O   LIG     1      34.936  25.881  25.023  0.00  0.00    -0.384 OA
ATOM     20  H   LIG     1      35.571  26.576  25.260  0.00  0.00     0.210 HD
ENDBRANCH  14  19
ENDBRANCH   8   9
ENDBRANCH   7   8
ENDBRANCH   6   7
BRANCH   5  21
ATOM     21  O   LIG     1      30.925  31.663  23.258  0.00  0.00    -0.386 OA
ATOM     22  H   LIG     1      31.387  31.454  24.088  0.00  0.00     0.210 HD
ENDBRANCH   5  21
BRANCH   2  23
ATOM     23  O   LIG     1      30.449  27.746  19.402  0.00  0.00    -0.345 OA
BRANCH  23  24
ATOM     24  C   LIG     1      31.388  27.575  18.353  0.00  0.00     0.190 C 
BRANCH  24  25
ATOM     25  C   LIG     1      30.650  27.266  17.091  0.00  0.00     0.001 C 
ATOM     26  C   LIG     1      31.167  26.529  16.096  0.00  0.00     0.006 C 
BRANCH  26  27
ATOM     27  C   LIG     1      30.473  26.187  14.842  0.00  0.00    -0.025 A 
ATOM     28  C   LIG     1      29.584  27.095  14.289  0.00  0.00     0.008 A 
ATOM     29  C   LIG     1      28.927  26.771  13.102  0.00  0.00     0.001 A 
ATOM     30  C   LIG     1      29.166  25.544  12.484  0.00  0.00     0.000 A 
ATOM     31  C   LIG     1      30.063  24.640  13.053  0.00  0.00     0.001 A 
ATOM     32  C   LIG     1      30.721  24.964  14.240  0.00  0.00     0.008 A 
ENDBRANCH  26  27
ENDBRANCH  24  25
ENDBRANCH  23  24
ENDBRANCH   2  23
BRANCH   4  33
ATOM     33  O   LIG     1      28.308  30.900  22.297  0.00  0.00    -0.386 OA
ATOM     34  H   LIG     1      28.510  30.810  23.244  0.00  0.00     0.210 HD
ENDBRANCH   4  33
BRANCH   3  35
ATOM     35  O   LIG     1      28.492  29.783  19.577  0.00  0.00    -0.384 OA
ATOM     36  H   LIG     1      27.768  30.335  19.916  0.00  0.00     0.210 HD
ENDBRANCH   3  35
TORSDOF 13
ENDMDL
MODEL 6
REMARK VINA RESULT:      -6.6      3.140      6.193
REMARK  13 active torsions:
REMARK  status: ('A' for Active; 'I' for Inactive)
REMARK    1  A    between atoms: C_2  and  O_12 
REMARK    2  A    between atoms: C_3  and  O_10 
REMARK    3  A    between atoms: C_4  and  O_8 
REMARK    4  A    between atoms: C_5  and  O_6 
REMARK    5  A    between atoms: C_22  and  C_23 
REMARK    6  A    between atoms: O_12  and  C_13 
REMARK    7  A    between atoms: C_13  and  C_14 
REMARK    8  A    between atoms: C_15  and  C_16 
REMARK    9  A    between atoms: C_23  and  O_24 
REMARK   10  A    between atoms: O_24  and  C_25 
REMARK   11  A    between atoms: C_26  and  O_34 
REMARK   12  A    between atoms: C_27  and  O_32 
REMARK   13  A    between atoms: C_28  and  O_30 
ROOT
ATOM      1  O   LIG     1      29.075  31.339  17.098  0.00  0.00    -0.341 OA
ATOM      2  C   LIG     1      29.532  30.187  17.803  0.00  0.00     0.282 C 
ATOM      3  C   LIG     1      29.391  30.391  19.312  0.00  0.00     0.201 C 
ATOM      4  C   LIG     1      27.964  30.789  19.689  0.00  0.00     0.179 C 
ATOM      5  C   LIG     1      27.453  31.924  18.803  0.00  0.00     0.177 C 
ATOM      6  C   LIG     1      27.690  31.607  17.324  0.00  0.00     0.178 C 
ENDROOT
BRANCH   6   7
ATOM      7  C   LIG     1      27.294  32.775  16.425  0.00  0.00     0.197 C 
BRANCH   7   8
ATOM      8  O   LIG     1      27.307  33.962  17.197  0.00  0.00    -0.346 OA
BRANCH   8   9
ATOM      9  C   LIG     1      28.290  34.882  16.735  0.00  0.00     0.281 C 
ATOM     10  O   LIG     1      29.516  34.769  17.466  0.00  0.00    -0.346 OA
ATOM     11  C   LIG     1      29.410  35.164  18.832  0.00  0.00     0.197 C 
ATOM     12  C   LIG     1      28.986  36.624  18.937  0.00  0.00     0.171 C 
ATOM     13  C   LIG     1      27.656  36.852  18.216  0.00  0.00     0.178 C 
ATOM     14  C   LIG     1      27.732  36.312  16.784  0.00  0.00     0.201 C 
BRANCH  12  15
ATOM     15  O   LIG     1      28.870  37.010  20.299  0.00  0.00    -0.387 OA
ATOM     16  H   LIG     1      28.083  36.568  20.663  0.00  0.00     0.210 HD
ENDBRANCH  12  15
BRANCH  13  17
ATOM     17  O   LIG     1      26.615  36.182  18.925  0.00  0.00    -0.386 OA
ATOM     18  H   LIG     1      26.626  35.250  18.648  0.00  0.00     0.210 HD
ENDBRANCH  13  17
BRANCH  14  19
ATOM     19  O   LIG     1      28.590  37.147  16.010  0.00  0.00    -0.384 OA
ATOM     20  H   LIG     1      28.341  37.061  15.075  0.00  0.00     0.210 HD
ENDBRANCH  14  19
ENDBRANCH   8   9
ENDBRANCH   7   8
ENDBRANCH   6   7
BRANCH   5  21
ATOM     21  O   LIG     1      26.057  32.106  19.028  0.00  0.00    -0.386 OA
ATOM     22  H   LIG     1      25.792  32.941  18.603  0.00  0.00     0.210 HD
ENDBRANCH   5  21
BRANCH   2  23
ATOM     23  O   LIG     1      30.910  29.961  17.515  0.00  0.00    -0.345 OA
BRANCH  23  24
ATOM     24  C   LIG     1      31.159  29.994  16.119  0.00  0.00     0.190 C 
BRANCH  24  25
ATOM     25  C   LIG     1      30.940  28.625  15.559  0.00  0.00     0.001 C 
ATOM     26  C   LIG     1      30.232  28.390  14.444  0.00  0.00     0.006 C 
BRANCH  26  27
ATOM     27  C   LIG     1      30.003  27.062  13.848  0.00  0.00    -0.025 A 
ATOM     28  C   LIG     1      30.822  26.005  14.209  0.00  0.00     0.008 A 
ATOM     29  C   LIG     1      30.604  24.748  13.644  0.00  0.00     0.001 A 
ATOM     30  C   LIG     1      29.571  24.565  12.725  0.00  0.00     0.000 A 
ATOM     31  C   LIG     1      28.755  25.639  12.371  0.00  0.00     0.001 A 
ATOM     32  C   LIG     1      28.972  26.896  12.936  0.00  0.00     0.008 A 
ENDBRANCH  26  27
ENDBRANCH  24  25
ENDBRANCH  23  24
ENDBRANCH   2  23
BRANCH   4  33
ATOM     33  O   LIG     1      27.939  31.241  21.044  0.00  0.00    -0.386 OA
ATOM     34  H   LIG     1      27.820  32.206  21.026  0.00  0.00     0.210 HD
ENDBRANCH   4  33
BRANCH   3  35
ATOM     35  O   LIG     1      29.730  29.167  19.962  0.00  0.00    -0.384 OA
ATOM     36  H   LIG     1      30.666  28.978  19.781  0.00  0.00     0.210 HD
ENDBRANCH   3  35
TORSDOF 13
ENDMDL
MODEL 7
REMARK VINA RESULT:      -6.5      1.622      4.824
REMARK  13 active torsions:
REMARK  status: ('A' for Active; 'I' for Inactive)
REMARK    1  A    between atoms: C_2  and  O_12 
REMARK    2  A    between atoms: C_3  and  O_10 
REMARK    3  A    between atoms: C_4  and  O_8 
REMARK    4  A    between atoms: C_5  and  O_6 
REMARK    5  A    between atoms: C_22  and  C_23 
REMARK    6  A    between atoms: O_12  and  C_13 
REMARK    7  A    between atoms: C_13  and  C_14 
REMARK    8  A    between atoms: C_15  and  C_16 
REMARK    9  A    between atoms: C_23  and  O_24 
REMARK   10  A    between atoms: O_24  and  C_25 
REMARK   11  A    between atoms: C_26  and  O_34 
REMARK   12  A    between atoms: C_27  and  O_32 
REMARK   13  A    between atoms: C_28  and  O_30 
ROOT
ATOM      1  O   LIG     1      31.406  28.226  19.567  0.00  0.00    -0.341 OA
ATOM      2  C   LIG     1      31.507  26.806  19.638  0.00  0.00     0.282 C 
ATOM      3  C   LIG     1      32.949  26.386  19.929  0.00  0.00     0.201 C 
ATOM      4  C   LIG     1      33.491  27.082  21.177  0.00  0.00     0.179 C 
ATOM      5  C   LIG     1      33.220  28.585  21.134  0.00  0.00     0.177 C 
ATOM      6  C   LIG     1      31.753  28.863  20.797  0.00  0.00     0.178 C 
ENDROOT
BRANCH   6   7
ATOM      7  C   LIG     1      31.484  30.356  20.634  0.00  0.00     0.197 C 
BRANCH   7   8
ATOM      8  O   LIG     1      30.135  30.531  20.240  0.00  0.00    -0.346 OA
BRANCH   8   9
ATOM      9  C   LIG     1      30.012  31.471  19.178  0.00  0.00     0.281 C 
ATOM     10  O   LIG     1      28.744  32.136  19.194  0.00  0.00    -0.346 OA
ATOM     11  C   LIG     1      27.642  31.278  18.911  0.00  0.00     0.197 C 
ATOM     12  C   LIG     1      27.782  30.663  17.524  0.00  0.00     0.171 C 
ATOM     13  C   LIG     1      29.096  29.889  17.407  0.00  0.00     0.178 C 
ATOM     14  C   LIG     1      30.270  30.777  17.832  0.00  0.00     0.201 C 
BRANCH  12  15
ATOM     15  O   LIG     1      26.687  29.800  17.252  0.00  0.00    -0.387 OA
ATOM     16  H   LIG     1      26.968  29.180  16.556  0.00  0.00     0.210 HD
ENDBRANCH  12  15
BRANCH  13  17
ATOM     17  O   LIG     1      29.040  28.737  18.246  0.00  0.00    -0.386 OA
ATOM     18  H   LIG     1      29.942  28.378  18.312  0.00  0.00     0.210 HD
ENDBRANCH  13  17
BRANCH  14  19
ATOM     19  O   LIG     1      30.480  31.786  16.848  0.00  0.00    -0.384 OA
ATOM     20  H   LIG     1      30.565  31.358  15.981  0.00  0.00     0.210 HD
ENDBRANCH  14  19
ENDBRANCH   8   9
ENDBRANCH   7   8
ENDBRANCH   6   7
BRANCH   5  21
ATOM     21  O   LIG     1      33.529  29.156  22.403  0.00  0.00    -0.386 OA
ATOM     22  H   LIG     1      34.191  29.855  22.263  0.00  0.00     0.210 HD
ENDBRANCH   5  21
BRANCH   2  23
ATOM     23  O   LIG     1      31.124  26.231  18.391  0.00  0.00    -0.345 OA
BRANCH  23  24
ATOM     24  C   LIG     1      31.890  26.760  17.321  0.00  0.00     0.190 C 
BRANCH  24  25
ATOM     25  C   LIG     1      31.072  26.709  16.071  0.00  0.00     0.001 C 
ATOM     26  C   LIG     1      30.465  25.596  15.632  0.00  0.00     0.006 C 
BRANCH  26  27
ATOM     27  C   LIG     1      29.638  25.502  14.416  0.00  0.00    -0.025 A 
ATOM     28  C   LIG     1      29.468  26.625  13.623  0.00  0.00     0.008 A 
ATOM     29  C   LIG     1      28.685  26.535  12.472  0.00  0.00     0.001 A 
ATOM     30  C   LIG     1      28.083  25.325  12.130  0.00  0.00     0.000 A 
ATOM     31  C   LIG     1      28.263  24.203  12.938  0.00  0.00     0.001 A 
ATOM     32  C   LIG     1      29.046  24.293  14.089  0.00  0.00     0.008 A 
ENDBRANCH  26  27
ENDBRANCH  24  25
ENDBRANCH  23  24
ENDBRANCH   2  23
BRANCH   4  33
ATOM     33  O   LIG     1      34.904  26.890  21.252  0.00  0.00    -0.386 OA
ATOM     34  H   LIG     1      35.319  27.547  20.668  0.00  0.00     0.210 HD
ENDBRANCH   4  33
BRANCH   3  35
ATOM     35  O   LIG     1      32.971  24.972  20.126  0.00  0.00    -0.384 OA
ATOM     36  H   LIG     1      33.761  24.619  19.683  0.00  0.00     0.210 HD
ENDBRANCH   3  35
TORSDOF 13
ENDMDL
MODEL 8
REMARK VINA RESULT:      -6.5     12.314     15.827
REMARK  13 active torsions:
REMARK  status: ('A' for Active; 'I' for Inactive)
REMARK    1  A    between atoms: C_2  and  O_12 
REMARK    2  A    between atoms: C_3  and  O_10 
REMARK    3  A    between atoms: C_4  and  O_8 
REMARK    4  A    between atoms: C_5  and  O_6 
REMARK    5  A    between atoms: C_22  and  C_23 
REMARK    6  A    between atoms: O_12  and  C_13 
REMARK    7  A    between atoms: C_13  and  C_14 
REMARK    8  A    between atoms: C_15  and  C_16 
REMARK    9  A    between atoms: C_23  and  O_24 
REMARK   10  A    between atoms: O_24  and  C_25 
REMARK   11  A    between atoms: C_26  and  O_34 
REMARK   12  A    between atoms: C_27  and  O_32 
REMARK   13  A    between atoms: C_28  and  O_30 
ROOT
ATOM      1  O   LIG     1      32.320  24.012  30.483  0.00  0.00    -0.341 OA
ATOM      2  C   LIG     1      31.144  23.856  29.692  0.00  0.00     0.282 C 
ATOM      3  C   LIG     1      30.942  25.072  28.787  0.00  0.00     0.201 C 
ATOM      4  C   LIG     1      32.187  25.352  27.946  0.00  0.00     0.179 C 
ATOM      5  C   LIG     1      33.449  25.353  28.808  0.00  0.00     0.177 C 
ATOM      6  C   LIG     1      33.505  24.103  29.690  0.00  0.00     0.178 C 
ENDROOT
BRANCH   6   7
ATOM      7  C   LIG     1      34.696  24.137  30.644  0.00  0.00     0.197 C 
BRANCH   7   8
ATOM      8  O   LIG     1      34.951  25.484  30.998  0.00  0.00    -0.346 OA
BRANCH   8   9
ATOM      9  C   LIG     1      34.827  25.695  32.400  0.00  0.00     0.281 C 
ATOM     10  O   LIG     1      33.806  26.649  32.712  0.00  0.00    -0.346 OA
ATOM     11  C   LIG     1      34.103  27.973  32.275  0.00  0.00     0.197 C 
ATOM     12  C   LIG     1      35.377  28.483  32.936  0.00  0.00     0.171 C 
ATOM     13  C   LIG     1      36.552  27.552  32.634  0.00  0.00     0.178 C 
ATOM     14  C   LIG     1      36.185  26.107  32.989  0.00  0.00     0.201 C 
BRANCH  12  15
ATOM     15  O   LIG     1      35.675  29.798  32.489  0.00  0.00    -0.387 OA
ATOM     16  H   LIG     1      35.570  30.398  33.247  0.00  0.00     0.210 HD
ENDBRANCH  12  15
BRANCH  13  17
ATOM     17  O   LIG     1      36.875  27.636  31.247  0.00  0.00    -0.386 OA
ATOM     18  H   LIG     1      36.713  26.761  30.855  0.00  0.00     0.210 HD
ENDBRANCH  13  17
BRANCH  14  19
ATOM     19  O   LIG     1      36.110  25.973  34.406  0.00  0.00    -0.384 OA
ATOM     20  H   LIG     1      36.569  25.156  34.663  0.00  0.00     0.210 HD
ENDBRANCH  14  19
ENDBRANCH   8   9
ENDBRANCH   7   8
ENDBRANCH   6   7
BRANCH   5  21
ATOM     21  O   LIG     1      34.597  25.386  27.964  0.00  0.00    -0.386 OA
ATOM     22  H   LIG     1      34.443  24.774  27.224  0.00  0.00     0.210 HD
ENDBRANCH   5  21
BRANCH   2  23
ATOM     23  O   LIG     1      30.004  23.746  30.542  0.00  0.00    -0.345 OA
BRANCH  23  24
ATOM     24  C   LIG     1      30.371  23.338  31.850  0.00  0.00     0.190 C 
BRANCH  24  25
ATOM     25  C   LIG     1      29.129  23.101  32.647  0.00  0.00     0.001 C 
ATOM     26  C   LIG     1      29.140  22.666  33.917  0.00  0.00     0.006 C 
BRANCH  26  27
ATOM     27  C   LIG     1      27.944  22.433  34.745  0.00  0.00    -0.025 A 
ATOM     28  C   LIG     1      28.071  22.391  36.124  0.00  0.00     0.008 A 
ATOM     29  C   LIG     1      26.938  22.171  36.908  0.00  0.00     0.001 A 
ATOM     30  C   LIG     1      25.694  21.994  36.303  0.00  0.00     0.000 A 
ATOM     31  C   LIG     1      25.582  22.039  34.913  0.00  0.00     0.001 A 
ATOM     32  C   LIG     1      26.715  22.260  34.129  0.00  0.00     0.008 A 
ENDBRANCH  26  27
ENDBRANCH  24  25
ENDBRANCH  23  24
ENDBRANCH   2  23
BRANCH   4  33
ATOM     33  O   LIG     1      32.069  26.638  27.335  0.00  0.00    -0.386 OA
ATOM     34  H   LIG     1      31.547  26.527  26.523  0.00  0.00     0.210 HD
ENDBRANCH   4  33
BRANCH   3  35
ATOM     35  O   LIG     1      29.837  24.808  27.924  0.00  0.00    -0.384 OA
ATOM     36  H   LIG     1      29.222  24.218  28.393  0.00  0.00     0.210 HD
ENDBRANCH   3  35
TORSDOF 13
ENDMDL
MODEL 9
REMARK VINA RESULT:      -6.5      1.846      3.092
REMARK  13 active torsions:
REMARK  status: ('A' for Active; 'I' for Inactive)
REMARK    1  A    between atoms: C_2  and  O_12 
REMARK    2  A    between atoms: C_3  and  O_10 
REMARK    3  A    between atoms: C_4  and  O_8 
REMARK    4  A    between atoms: C_5  and  O_6 
REMARK    5  A    between atoms: C_22  and  C_23 
REMARK    6  A    between atoms: O_12  and  C_13 
REMARK    7  A    between atoms: C_13  and  C_14 
REMARK    8  A    between atoms: C_15  and  C_16 
REMARK    9  A    between atoms: C_23  and  O_24 
REMARK   10  A    between atoms: O_24  and  C_25 
REMARK   11  A    between atoms: C_26  and  O_34 
REMARK   12  A    between atoms: C_27  and  O_32 
REMARK   13  A    between atoms: C_28  and  O_30 
ROOT
ATOM      1  O   LIG     1      29.419  29.167  18.811  0.00  0.00    -0.341 OA
ATOM      2  C   LIG     1      28.670  30.278  18.323  0.00  0.00     0.282 C 
ATOM      3  C   LIG     1      27.798  30.865  19.433  0.00  0.00     0.201 C 
ATOM      4  C   LIG     1      28.628  31.207  20.670  0.00  0.00     0.179 C 
ATOM      5  C   LIG     1      29.536  30.045  21.067  0.00  0.00     0.177 C 
ATOM      6  C   LIG     1      30.321  29.530  19.857  0.00  0.00     0.178 C 
ENDROOT
BRANCH   6   7
ATOM      7  C   LIG     1      31.147  28.295  20.203  0.00  0.00     0.197 C 
BRANCH   7   8
ATOM      8  O   LIG     1      31.999  28.612  21.289  0.00  0.00    -0.346 OA
BRANCH   8   9
ATOM      9  C   LIG     1      33.372  28.512  20.930  0.00  0.00     0.281 C 
ATOM     10  O   LIG     1      34.046  27.483  21.664  0.00  0.00    -0.346 OA
ATOM     11  C   LIG     1      34.160  27.754  23.059  0.00  0.00     0.197 C 
ATOM     12  C   LIG     1      34.954  29.033  23.295  0.00  0.00     0.171 C 
ATOM     13  C   LIG     1      34.296  30.215  22.581  0.00  0.00     0.178 C 
ATOM     14  C   LIG     1      34.060  29.875  21.106  0.00  0.00     0.201 C 
BRANCH  12  15
ATOM     15  O   LIG     1      35.054  29.305  24.686  0.00  0.00    -0.387 OA
ATOM     16  H   LIG     1      35.002  30.269  24.801  0.00  0.00     0.210 HD
ENDBRANCH  12  15
BRANCH  13  17
ATOM     17  O   LIG     1      33.050  30.511  23.208  0.00  0.00    -0.386 OA
ATOM     18  H   LIG     1      32.994  29.972  24.016  0.00  0.00     0.210 HD
ENDBRANCH  13  17
BRANCH  14  19
ATOM     19  O   LIG     1      35.312  29.828  20.425  0.00  0.00    -0.384 OA
ATOM     20  H   LIG     1      35.619  30.739  20.283  0.00  0.00     0.210 HD
ENDBRANCH  14  19
ENDBRANCH   8   9
ENDBRANCH   7   8
ENDBRANCH   6   7
BRANCH   5  21
ATOM     21  O   LIG     1      30.450  30.481  22.070  0.00  0.00    -0.386 OA
ATOM     22  H   LIG     1      30.447  29.821  22.785  0.00  0.00     0.210 HD
ENDBRANCH   5  21
BRANCH   2  23
ATOM     23  O   LIG     1      27.811  29.854  17.266  0.00  0.00    -0.345 OA
BRANCH  23  24
ATOM     24  C   LIG     1      28.433  30.011  16.000  0.00  0.00     0.190 C 
BRANCH  24  25
ATOM     25  C   LIG     1      28.505  28.677  15.330  0.00  0.00     0.001 C 
ATOM     26  C   LIG     1      29.536  28.292  14.563  0.00  0.00     0.006 C 
BRANCH  26  27
ATOM     27  C   LIG     1      29.657  26.984  13.896  0.00  0.00    -0.025 A 
ATOM     28  C   LIG     1      28.794  26.669  12.858  0.00  0.00     0.008 A 
ATOM     29  C   LIG     1      28.909  25.431  12.227  0.00  0.00     0.001 A 
ATOM     30  C   LIG     1      29.884  24.523  12.642  0.00  0.00     0.000 A 
ATOM     31  C   LIG     1      30.744  24.854  13.688  0.00  0.00     0.001 A 
ATOM     32  C   LIG     1      30.630  26.093  14.319  0.00  0.00     0.008 A 
ENDBRANCH  26  27
ENDBRANCH  24  25
ENDBRANCH  23  24
ENDBRANCH   2  23
BRANCH   4  33
ATOM     33  O   LIG     1      27.755  31.481  21.768  0.00  0.00    -0.386 OA
ATOM     34  H   LIG     1      28.288  31.440  22.580  0.00  0.00     0.210 HD
ENDBRANCH   4  33
BRANCH   3  35
ATOM     35  O   LIG     1      27.178  32.050  18.935  0.00  0.00    -0.384 OA
ATOM     36  H   LIG     1      27.758  32.431  18.255  0.00  0.00     0.210 HD
ENDBRANCH   3  35
TORSDOF 13
ENDMDL
