REMARK  Name = 138319308
REMARK                            x       y       z     vdW  Elec       q    Type
REMARK                         _______ _______ _______ _____ _____    ______ ____
ROOT
ATOM      1  O   LIG    1       -1.120  -9.049   2.069  0.00  0.00    -0.340 OA
ATOM      2  C   LIG    1       -0.455 -10.194   1.488  0.00  0.00    +0.282 C 
ATOM      3  C   LIG    1        1.002  -9.787   1.161  0.00  0.00    +0.201 C 
ATOM      4  C   LIG    1        1.740 -10.996   0.531  0.00  0.00    +0.179 C 
ATOM      5  C   LIG    1        0.991 -11.592  -0.700  0.00  0.00    +0.183 C 
ATOM      6  C   LIG    1       -0.548 -11.745  -0.419  0.00  0.00    +0.178 C 
ATOM     14  O   LIG    1        1.255 -10.780  -1.874  0.00  0.00    -0.340 OA
ATOM     15  C   LIG    1        1.418 -11.475  -3.141  0.00  0.00    +0.282 C 
ATOM     16  C   LIG    1        2.756 -12.272  -3.258  0.00  0.00    +0.201 C 
ATOM     17  C   LIG    1        4.005 -11.333  -3.336  0.00  0.00    +0.179 C 
ATOM     18  C   LIG    1        3.683  -9.894  -3.859  0.00  0.00    +0.183 C 
ATOM     19  C   LIG    1        2.450  -9.917  -4.819  0.00  0.00    +0.178 C 
ATOM     27  O   LIG    1        3.337  -9.036  -2.744  0.00  0.00    -0.340 OA
ATOM     28  C   LIG    1        4.027  -7.777  -2.612  0.00  0.00    +0.282 C 
ATOM     29  C   LIG    1        3.332  -6.997  -1.460  0.00  0.00    +0.201 C 
ATOM     30  C   LIG    1        3.755  -5.501  -1.422  0.00  0.00    +0.179 C 
ATOM     31  C   LIG    1        3.692  -4.848  -2.838  0.00  0.00    +0.183 C 
ATOM     32  C   LIG    1        4.513  -5.711  -3.850  0.00  0.00    +0.178 C 
ATOM     40  O   LIG    1        2.280  -4.769  -3.168  0.00  0.00    -0.340 OA
ATOM     41  C   LIG    1        1.785  -4.201  -4.401  0.00  0.00    +0.282 C 
ATOM     42  C   LIG    1        2.015  -2.664  -4.535  0.00  0.00    +0.201 C 
ATOM     43  C   LIG    1        1.053  -2.017  -5.571  0.00  0.00    +0.179 C 
ATOM     44  C   LIG    1       -0.422  -2.447  -5.348  0.00  0.00    +0.183 C 
ATOM     45  C   LIG    1       -0.511  -4.005  -5.318  0.00  0.00    +0.178 C 
ATOM     53  O   LIG    1       -0.847  -1.906  -4.074  0.00  0.00    -0.340 OA
ATOM     54  C   LIG    1       -2.223  -1.492  -3.925  0.00  0.00    +0.282 C 
ATOM     55  C   LIG    1       -2.402  -1.104  -2.430  0.00  0.00    +0.201 C 
ATOM     56  C   LIG    1       -3.898  -0.876  -2.083  0.00  0.00    +0.179 C 
ATOM     57  C   LIG    1       -4.754  -2.086  -2.544  0.00  0.00    +0.183 C 
ATOM     58  C   LIG    1       -4.531  -2.375  -4.057  0.00  0.00    +0.178 C 
ATOM     66  O   LIG    1       -4.292  -3.239  -1.802  0.00  0.00    -0.340 OA
ATOM     67  C   LIG    1       -5.252  -4.229  -1.396  0.00  0.00    +0.282 C 
ATOM     68  C   LIG    1       -5.797  -3.844   0.006  0.00  0.00    +0.201 C 
ATOM     69  C   LIG    1       -6.603  -5.021   0.604  0.00  0.00    +0.179 C 
ATOM     70  C   LIG    1       -5.754  -6.320   0.621  0.00  0.00    +0.183 C 
ATOM     71  C   LIG    1       -5.191  -6.626  -0.804  0.00  0.00    +0.178 C 
ATOM     79  O   LIG    1       -4.636  -6.115   1.518  0.00  0.00    -0.340 OA
ATOM     80  C   LIG    1       -4.230  -7.229   2.334  0.00  0.00    +0.282 C 
ATOM     81  C   LIG    1       -2.927  -6.829   3.072  0.00  0.00    +0.201 C 
ATOM     82  C   LIG    1       -2.372  -8.030   3.883  0.00  0.00    +0.179 C 
ATOM     87  O   LIG    1       -3.999  -8.408   1.529  0.00  0.00    -0.341 OA
ATOM     88  C   LIG    1       -3.542  -9.588   2.224  0.00  0.00    +0.178 C 
ATOM    100  O   LIG    1       -4.512  -5.472  -1.359  0.00  0.00    -0.341 OA
ATOM    105  O   LIG    1       -3.123  -2.553  -4.325  0.00  0.00    -0.341 OA
ATOM    110  O   LIG    1        0.381  -4.537  -4.314  0.00  0.00    -0.341 OA
ATOM    115  O   LIG    1        3.970  -7.049  -3.863  0.00  0.00    -0.341 OA
ATOM    120  O   LIG    1        1.267 -10.492  -4.196  0.00  0.00    -0.341 OA
ATOM    125  O   LIG    1       -1.115 -10.602   0.270  0.00  0.00    -0.341 OA
ATOM    126  C   LIG    1       -2.213  -9.295   2.990  0.00  0.00    +0.183 C 
ENDROOT
BRANCH  81  85
ATOM     85  O   LIG    1       -3.170  -5.724   3.941  0.00  0.00    -0.384 OA
ATOM     86  H   LIG    1       -3.465  -5.001   3.349  0.00  0.00    +0.210 HD
ENDBRANCH  81  85
BRANCH  69  96
ATOM     96  O   LIG    1       -7.044  -4.705   1.924  0.00  0.00    -0.386 OA
ATOM     97  H   LIG    1       -6.227  -4.583   2.452  0.00  0.00    +0.210 HD
ENDBRANCH  69  96
BRANCH  68  98
ATOM     98  O   LIG    1       -6.616  -2.680  -0.050  0.00  0.00    -0.384 OA
ATOM     99  H   LIG    1       -7.377  -2.933  -0.615  0.00  0.00    +0.210 HD
ENDBRANCH  68  98
BRANCH  56 101
ATOM    101  O   LIG    1       -4.057  -0.672  -0.679  0.00  0.00    -0.386 OA
ATOM    102  H   LIG    1       -3.738  -1.497  -0.255  0.00  0.00    +0.210 HD
ENDBRANCH  56 101
BRANCH  55 103
ATOM    103  O   LIG    1       -1.646   0.066  -2.123  0.00  0.00    -0.384 OA
ATOM    104  H   LIG    1       -0.711  -0.189  -2.269  0.00  0.00    +0.210 HD
ENDBRANCH  55 103
BRANCH  43 106
ATOM    106  O   LIG    1        1.159  -0.594  -5.514  0.00  0.00    -0.386 OA
ATOM    107  H   LIG    1        0.922  -0.354  -4.593  0.00  0.00    +0.210 HD
ENDBRANCH  43 106
BRANCH  30 111
ATOM    111  O   LIG    1        2.926  -4.781  -0.508  0.00  0.00    -0.386 OA
ATOM    112  H   LIG    1        2.019  -4.849  -0.875  0.00  0.00    +0.210 HD
ENDBRANCH  30 111
BRANCH  29 113
ATOM    113  O   LIG    1        3.627  -7.623  -0.212  0.00  0.00    -0.384 OA
ATOM    114  H   LIG    1        3.095  -7.136   0.452  0.00  0.00    +0.210 HD
ENDBRANCH  29 113
BRANCH  17 116
ATOM    116  O   LIG    1        4.668 -11.253  -2.075  0.00  0.00    -0.386 OA
ATOM    117  H   LIG    1        4.854 -12.185  -1.836  0.00  0.00    +0.210 HD
ENDBRANCH  17 116
BRANCH  16 118
ATOM    118  O   LIG    1        2.678 -13.107  -4.415  0.00  0.00    -0.384 OA
ATOM    119  H   LIG    1        1.867 -13.647  -4.294  0.00  0.00    +0.210 HD
ENDBRANCH  16 118
BRANCH   4 121
ATOM    121  O   LIG    1        3.078 -10.637   0.194  0.00  0.00    -0.386 OA
ATOM    122  H   LIG    1        2.995  -9.958  -0.508  0.00  0.00    +0.210 HD
ENDBRANCH   4 121
BRANCH   3 123
ATOM    123  O   LIG    1        1.652  -9.382   2.365  0.00  0.00    -0.384 OA
ATOM    124  H   LIG    1        2.557  -9.123   2.096  0.00  0.00    +0.210 HD
ENDBRANCH   3 123
BRANCH  42 108
ATOM    108  O   LIG    1        3.346  -2.375  -4.959  0.00  0.00    -0.384 OA
ATOM    109  H   LIG    1        3.924  -2.616  -4.210  0.00  0.00    +0.210 HD
ENDBRANCH  42 108
BRANCH  82  83
ATOM     83  O   LIG    1       -1.130  -7.682   4.499  0.00  0.00    -0.386 OA
ATOM     84  H   LIG    1       -0.531  -7.433   3.764  0.00  0.00    +0.210 HD
ENDBRANCH  82  83
BRANCH   6   7
ATOM      7  C   LIG    1       -0.876 -13.105   0.262  0.00  0.00    +0.194 C 
BRANCH   7   8
ATOM      8  O   LIG    1       -2.245 -13.208   0.705  0.00  0.00    -0.375 OA
BRANCH   8   9
ATOM      9  C   LIG    1       -2.587 -14.535   1.167  0.00  0.00    +0.190 C 
BRANCH   9  10
ATOM     10  C   LIG    1       -3.945 -14.537   1.906  0.00  0.00    +0.137 C 
ATOM     11  C   LIG    1       -4.339 -15.953   2.395  0.00  0.00    +0.040 C 
BRANCH  10  12
ATOM     12  O   LIG    1       -3.869 -13.672   3.035  0.00  0.00    -0.390 OA
ATOM     13  H   LIG    1       -4.762 -13.706   3.439  0.00  0.00    +0.210 HD
ENDBRANCH  10  12
ENDBRANCH   9  10
ENDBRANCH   8   9
ENDBRANCH   7   8
ENDBRANCH   6   7
BRANCH  32  33
ATOM     33  C   LIG    1        6.058  -5.672  -3.659  0.00  0.00    +0.194 C 
BRANCH  33  34
ATOM     34  O   LIG    1        6.656  -6.663  -4.516  0.00  0.00    -0.375 OA
BRANCH  34  35
ATOM     35  C   LIG    1        8.076  -6.820  -4.340  0.00  0.00    +0.190 C 
BRANCH  35  36
ATOM     36  C   LIG    1        8.580  -7.992  -5.214  0.00  0.00    +0.137 C 
ATOM     37  C   LIG    1       10.098  -8.233  -5.037  0.00  0.00    +0.040 C 
BRANCH  36  38
ATOM     38  O   LIG    1        7.869  -9.182  -4.874  0.00  0.00    -0.390 OA
ATOM     39  H   LIG    1        8.193  -9.859  -5.505  0.00  0.00    +0.210 HD
ENDBRANCH  36  38
ENDBRANCH  35  36
ENDBRANCH  34  35
ENDBRANCH  33  34
ENDBRANCH  32  33
BRANCH  45  46
ATOM     46  C   LIG    1       -0.383  -4.707  -6.700  0.00  0.00    +0.194 C 
BRANCH  46  47
ATOM     47  O   LIG    1       -0.784  -6.083  -6.555  0.00  0.00    -0.375 OA
BRANCH  47  48
ATOM     48  C   LIG    1       -0.781  -6.859  -7.769  0.00  0.00    +0.190 C 
BRANCH  48  49
ATOM     49  C   LIG    1       -1.523  -8.194  -7.513  0.00  0.00    +0.137 C 
ATOM     50  C   LIG    1       -1.643  -9.071  -8.781  0.00  0.00    +0.040 C 
BRANCH  49  51
ATOM     51  O   LIG    1       -0.853  -8.925  -6.486  0.00  0.00    -0.390 OA
ATOM     52  H   LIG    1       -1.415  -9.713  -6.326  0.00  0.00    +0.210 HD
ENDBRANCH  49  51
ENDBRANCH  48  49
ENDBRANCH  47  48
ENDBRANCH  46  47
ENDBRANCH  45  46
BRANCH  58  59
ATOM     59  C   LIG    1       -5.205  -1.371  -5.031  0.00  0.00    +0.194 C 
BRANCH  59  60
ATOM     60  O   LIG    1       -6.635  -1.434  -4.861  0.00  0.00    -0.375 OA
BRANCH  60  61
ATOM     61  C   LIG    1       -7.384  -0.596  -5.760  0.00  0.00    +0.190 C 
BRANCH  61  62
ATOM     62  C   LIG    1       -8.896  -0.840  -5.537  0.00  0.00    +0.137 C 
ATOM     63  C   LIG    1       -9.769  -0.059  -6.547  0.00  0.00    +0.040 C 
BRANCH  62  64
ATOM     64  O   LIG    1       -9.183  -2.234  -5.649  0.00  0.00    -0.390 OA
ATOM     65  H   LIG    1      -10.139  -2.315  -5.442  0.00  0.00    +0.210 HD
ENDBRANCH  62  64
ENDBRANCH  61  62
ENDBRANCH  60  61
ENDBRANCH  59  60
ENDBRANCH  58  59
BRANCH  19  20
ATOM     20  C   LIG    1        2.743 -10.627  -6.178  0.00  0.00    +0.194 C 
BRANCH  20  21
ATOM     21  O   LIG    1        3.039  -9.697  -7.237  0.00  0.00    -0.375 OA
BRANCH  21  22
ATOM     22  C   LIG    1        3.613 -10.324  -8.406  0.00  0.00    +0.190 C 
BRANCH  22  23
ATOM     23  C   LIG    1        3.372  -9.444  -9.653  0.00  0.00    +0.137 C 
ATOM     24  C   LIG    1        4.097 -10.064 -10.917  0.00  0.00    +0.040 C 
BRANCH  23  25
ATOM     25  O   LIG    1        1.970  -9.454  -9.913  0.00  0.00    -0.390 OA
ATOM     26  H   LIG    1        1.849  -8.912 -10.721  0.00  0.00    +0.210 HD
ENDBRANCH  23  25
ENDBRANCH  22  23
ENDBRANCH  21  22
ENDBRANCH  20  21
ENDBRANCH  19  20
BRANCH  71  72
ATOM     72  C   LIG    1       -6.200  -7.289  -1.787  0.00  0.00    +0.194 C 
BRANCH  72  73
ATOM     73  O   LIG    1       -5.447  -7.949  -2.825  0.00  0.00    -0.375 OA
BRANCH  73  74
ATOM     74  C   LIG    1       -6.208  -8.748  -3.752  0.00  0.00    +0.190 C 
BRANCH  74  75
ATOM     75  C   LIG    1       -5.222  -9.657  -4.528  0.00  0.00    +0.137 C 
ATOM     76  C   LIG    1       -5.930 -10.645  -5.486  0.00  0.00    +0.040 C 
BRANCH  75  77
ATOM     77  O   LIG    1       -4.307  -8.852  -5.266  0.00  0.00    -0.390 OA
ATOM     78  H   LIG    1       -3.678  -9.492  -5.663  0.00  0.00    +0.210 HD
ENDBRANCH  75  77
ENDBRANCH  74  75
ENDBRANCH  73  74
ENDBRANCH  72  73
ENDBRANCH  71  72
BRANCH  88  89
ATOM     89  C   LIG    1       -4.675 -10.241   3.059  0.00  0.00    +0.194 C 
BRANCH  89  90
ATOM     90  O   LIG    1       -5.756 -10.511   2.149  0.00  0.00    -0.375 OA
BRANCH  90  91
ATOM     91  C   LIG    1       -6.887 -11.194   2.711  0.00  0.00    +0.190 C 
BRANCH  91  92
ATOM     92  C   LIG    1       -7.884 -11.469   1.561  0.00  0.00    +0.137 C 
ATOM     93  C   LIG    1       -9.050 -12.389   1.986  0.00  0.00    +0.040 C 
BRANCH  92  94
ATOM     94  O   LIG    1       -8.400 -10.233   1.070  0.00  0.00    -0.390 OA
ATOM     95  H   LIG    1       -8.949 -10.477   0.295  0.00  0.00    +0.210 HD
ENDBRANCH  92  94
ENDBRANCH  91  92
ENDBRANCH  90  91
ENDBRANCH  89  90
ENDBRANCH  88  89
TORSDOF 49
