138319308
  -OEChem-10112304272D

217224  0     1  0  0  0  0  0999 V2000
   11.2952   -1.9813    0.0000 O   0  0  0  0  0  0  0  0  0  0  0  0
   13.0201    1.6123    0.0000 O   0  0  0  0  0  0  0  0  0  0  0  0
    7.4044   -2.8993    0.0000 O   0  0  0  0  0  0  0  0  0  0  0  0
   11.2283    5.1351    0.0000 O   0  0  0  0  0  0  0  0  0  0  0  0
    4.2725   -0.4201    0.0000 O   0  0  0  0  0  0  0  0  0  0  0  0
    7.3821    6.0754    0.0000 O   0  0  0  0  0  0  0  0  0  0  0  0
    4.2725    3.5962    0.0000 O   0  0  0  0  0  0  0  0  0  0  0  0
   12.7144   -1.0265    0.0000 O   0  0  0  0  0  0  0  0  0  0  0  0
    9.0415   -3.3876    0.0000 O   0  0  0  0  0  0  0  0  0  0  0  0
   13.1277    3.2534    0.0000 O   0  0  0  0  0  0  0  0  0  0  0  0
    4.8997   -2.0141    0.0000 O   0  0  0  0  0  0  0  0  0  0  0  0
    9.5664    4.6225    0.0000 O   0  0  0  0  0  0  0  0  0  0  0  0
    5.1420    2.0901    0.0000 O   0  0  0  0  0  0  0  0  0  0  0  0
    6.7467    4.4565    0.0000 O   0  0  0  0  0  0  0  0  0  0  0  0
    8.9532   -0.7357    0.0000 O   0  0  0  0  0  0  0  0  0  0  0  0
   10.5860    0.5579    0.0000 O   0  0  0  0  0  0  0  0  0  0  0  0
    6.9181   -0.2916    0.0000 O   0  0  0  0  0  0  0  0  0  0  0  0
   10.5619    2.5772    0.0000 O   0  0  0  0  0  0  0  0  0  0  0  0
    2.5369    1.5860    0.0000 O   0  0  0  0  0  0  0  0  0  0  0  0
    9.6547    7.2745    0.0000 O   0  0  0  0  0  0  0  0  0  0  0  0
    4.7284    6.1790    0.0000 O   0  0  0  0  0  0  0  0  0  0  0  0
   10.7137   -1.1729    0.0000 O   0  0  0  0  0  0  0  0  0  0  0  0
    7.6796   -1.9147    0.0000 O   0  0  0  0  0  0  0  0  0  0  0  0
   11.9948    1.5979    0.0000 O   0  0  0  0  0  0  0  0  0  0  0  0
    5.2022   -0.0309    0.0000 O   0  0  0  0  0  0  0  0  0  0  0  0
   10.9283    6.0955    0.0000 O   0  0  0  0  0  0  0  0  0  0  0  0
    3.4030    3.0901    0.0000 O   0  0  0  0  0  0  0  0  0  0  0  0
    6.4442    6.4397    0.0000 O   0  0  0  0  0  0  0  0  0  0  0  0
   10.4058   -4.8528    0.0000 O   0  0  0  0  0  0  0  0  0  0  0  0
   14.7106   -0.8734    0.0000 O   0  0  0  0  0  0  0  0  0  0  0  0
    4.6048   -3.9942    0.0000 O   0  0  0  0  0  0  0  0  0  0  0  0
   14.2526    4.9095    0.0000 O   0  0  0  0  0  0  0  0  0  0  0  0
    6.8741    1.0860    0.0000 O   0  0  0  0  0  0  0  0  0  0  0  0
    8.2021    3.1573    0.0000 O   0  0  0  0  0  0  0  0  0  0  0  0
    7.0416    2.4764    0.0000 O   0  0  0  0  0  0  0  0  0  0  0  0
   11.4714   -7.2745    0.0000 O   0  0  0  0  0  0  0  0  0  0  0  0
   17.2683   -1.5502    0.0000 O   0  0  0  0  0  0  0  0  0  0  0  0
    3.3758   -6.3372    0.0000 O   0  0  0  0  0  0  0  0  0  0  0  0
   16.3764    6.4873    0.0000 O   0  0  0  0  0  0  0  0  0  0  0  0
    8.1061    1.9521    0.0000 O   0  0  0  0  0  0  0  0  0  0  0  0
   10.4467    1.7567    0.0000 O   0  0  0  0  0  0  0  0  0  0  0  0
    9.3452    3.7778    0.0000 O   0  0  0  0  0  0  0  0  0  0  0  0
   10.3163   -2.2048    0.0000 C   0  0  1  0  0  0  0  0  0  0  0  0
   12.5844    0.7077    0.0000 C   0  0  1  0  0  0  0  0  0  0  0  0
    6.6194   -2.2733    0.0000 C   0  0  1  0  0  0  0  0  0  0  0  0
   11.6908    4.2331    0.0000 C   0  0  1  0  0  0  0  0  0  0  0  0
    4.2725    0.5840    0.0000 C   0  0  1  0  0  0  0  0  0  0  0  0
    8.2916    5.8054    0.0000 C   0  0  1  0  0  0  0  0  0  0  0  0
    5.0271    4.1973    0.0000 C   0  0  1  0  0  0  0  0  0  0  0  0
    9.6334   -1.4687    0.0000 C   0  0  2  0  0  0  0  0  0  0  0  0
   11.5832    0.6327    0.0000 C   0  0  2  0  0  0  0  0  0  0  0  0
    6.7690   -1.2804    0.0000 C   0  0  2  0  0  0  0  0  0  0  0  0
   11.1252    3.4035    0.0000 C   0  0  2  0  0  0  0  0  0  0  0  0
    3.4030    1.0860    0.0000 C   0  0  2  0  0  0  0  0  0  0  0  0
    8.9745    6.5414    0.0000 C   0  0  2  0  0  0  0  0  0  0  0  0
    4.8774    5.1902    0.0000 C   0  0  2  0  0  0  0  0  0  0  0  0
   11.7131   -1.1016    0.0000 C   0  0  1  0  0  0  0  0  0  0  0  0
    8.3585   -2.6516    0.0000 C   0  0  1  0  0  0  0  0  0  0  0  0
   10.0204   -3.1642    0.0000 C   0  0  1  0  0  0  0  0  0  0  0  0
   13.1500   -0.1219    0.0000 C   0  0  1  0  0  0  0  0  0  0  0  0
   12.5621    2.4238    0.0000 C   0  0  1  0  0  0  0  0  0  0  0  0
    5.0494   -1.0212    0.0000 C   0  0  1  0  0  0  0  0  0  0  0  0
    5.6847   -2.6401    0.0000 C   0  0  1  0  0  0  0  0  0  0  0  0
   12.6921    4.1580    0.0000 C   0  0  1  0  0  0  0  0  0  0  0  0
   10.2494    5.3586    0.0000 C   0  0  1  0  0  0  0  0  0  0  0  0
    4.2725    2.5921    0.0000 C   0  0  1  0  0  0  0  0  0  0  0  0
    6.5971    5.4494    0.0000 C   0  0  1  0  0  0  0  0  0  0  0  0
    5.1420    1.0860    0.0000 C   0  0  1  0  0  0  0  0  0  0  0  0
    8.5876    4.8460    0.0000 C   0  0  1  0  0  0  0  0  0  0  0  0
    5.9617    3.8305    0.0000 C   0  0  1  0  0  0  0  0  0  0  0  0
   11.1475   -0.2720    0.0000 C   0  0  1  0  0  0  0  0  0  0  0  0
    8.6545   -1.6922    0.0000 C   0  0  1  0  0  0  0  0  0  0  0  0
   11.5609    2.4988    0.0000 C   0  0  1  0  0  0  0  0  0  0  0  0
    5.9840   -0.6544    0.0000 C   0  0  1  0  0  0  0  0  0  0  0  0
    9.9534    6.3180    0.0000 C   0  0  1  0  0  0  0  0  0  0  0  0
    3.4030    2.0901    0.0000 C   0  0  1  0  0  0  0  0  0  0  0  0
    5.6624    5.8162    0.0000 C   0  0  1  0  0  0  0  0  0  0  0  0
   10.7005   -3.8972    0.0000 C   0  0  0  0  0  0  0  0  0  0  0  0
   14.1472   -0.0472    0.0000 C   0  0  0  0  0  0  0  0  0  0  0  0
    5.5357   -3.6289    0.0000 C   0  0  0  0  0  0  0  0  0  0  0  0
   13.2554    4.9843    0.0000 C   0  0  0  0  0  0  0  0  0  0  0  0
    6.0081    0.5860    0.0000 C   0  0  0  0  0  0  0  0  0  0  0  0
    7.9074    4.1129    0.0000 C   0  0  0  0  0  0  0  0  0  0  0  0
    6.1107    2.8417    0.0000 C   0  0  0  0  0  0  0  0  0  0  0  0
   11.0860   -5.5859    0.0000 C   0  0  0  0  0  0  0  0  0  0  0  0
   15.7078   -0.7987    0.0000 C   0  0  0  0  0  0  0  0  0  0  0  0
    4.4558   -4.9831    0.0000 C   0  0  0  0  0  0  0  0  0  0  0  0
   14.8159    5.7358    0.0000 C   0  0  0  0  0  0  0  0  0  0  0  0
    7.7401    0.5860    0.0000 C   0  0  0  0  0  0  0  0  0  0  0  0
    9.1771    2.9348    0.0000 C   0  0  0  0  0  0  0  0  0  0  0  0
    7.7033    3.2261    0.0000 C   0  0  0  0  0  0  0  0  0  0  0  0
   10.7912   -6.5414    0.0000 C   0  0  3  0  0  0  0  0  0  0  0  0
   16.2711   -1.6249    0.0000 C   0  0  3  0  0  0  0  0  0  0  0  0
    3.5249   -5.3484    0.0000 C   0  0  3  0  0  0  0  0  0  0  0  0
   15.8131    5.6610    0.0000 C   0  0  3  0  0  0  0  0  0  0  0  0
    8.6061    1.0860    0.0000 C   0  0  3  0  0  0  0  0  0  0  0  0
    9.4718    1.9792    0.0000 C   0  0  3  0  0  0  0  0  0  0  0  0
    8.6835    3.0280    0.0000 C   0  0  3  0  0  0  0  0  0  0  0  0
    9.8163   -6.7640    0.0000 C   0  0  0  0  0  0  0  0  0  0  0  0
   15.8372   -2.5259    0.0000 C   0  0  0  0  0  0  0  0  0  0  0  0
    2.7431   -4.7249    0.0000 C   0  0  0  0  0  0  0  0  0  0  0  0
   16.2470    4.7601    0.0000 C   0  0  0  0  0  0  0  0  0  0  0  0
    9.3722    0.4433    0.0000 C   0  0  0  0  0  0  0  0  0  0  0  0
    9.7666    1.0237    0.0000 C   0  0  0  0  0  0  0  0  0  0  0  0
    8.8325    2.0392    0.0000 C   0  0  0  0  0  0  0  0  0  0  0  0
   10.5669   -1.3925    0.0000 H   0  0  0  0  0  0  0  0  0  0  0  0
   13.4321    0.7712    0.0000 H   0  0  0  0  0  0  0  0  0  0  0  0
    7.4106   -1.9627    0.0000 H   0  0  0  0  0  0  0  0  0  0  0  0
   12.1608    4.9413    0.0000 H   0  0  0  0  0  0  0  0  0  0  0  0
    3.5364    0.1590    0.0000 H   0  0  0  0  0  0  0  0  0  0  0  0
    7.6938    5.2012    0.0000 H   0  0  0  0  0  0  0  0  0  0  0  0
    5.1536    3.3568    0.0000 H   0  0  0  0  0  0  0  0  0  0  0  0
   10.2378   -1.3308    0.0000 H   0  0  0  0  0  0  0  0  0  0  0  0
   11.8522    1.1913    0.0000 H   0  0  0  0  0  0  0  0  0  0  0  0
    7.2538   -1.6670    0.0000 H   0  0  0  0  0  0  0  0  0  0  0  0
   10.8562    3.9621    0.0000 H   0  0  0  0  0  0  0  0  0  0  0  0
    3.4030    0.4660    0.0000 H   0  0  0  0  0  0  0  0  0  0  0  0
    8.3701    6.6794    0.0000 H   0  0  0  0  0  0  0  0  0  0  0  0
    4.3927    4.8036    0.0000 H   0  0  0  0  0  0  0  0  0  0  0  0
   10.8657   -1.1673    0.0000 H   0  0  0  0  0  0  0  0  0  0  0  0
    7.7712   -2.0371    0.0000 H   0  0  0  0  0  0  0  0  0  0  0  0
    9.8376   -3.7566    0.0000 H   0  0  0  0  0  0  0  0  0  0  0  0
   13.4993   -0.6342    0.0000 H   0  0  0  0  0  0  0  0  0  0  0  0
   12.1064    1.7063    0.0000 H   0  0  0  0  0  0  0  0  0  0  0  0
    5.1699   -0.1798    0.0000 H   0  0  0  0  0  0  0  0  0  0  0  0
    5.1076   -2.8666    0.0000 H   0  0  0  0  0  0  0  0  0  0  0  0
   13.3103    4.1117    0.0000 H   0  0  0  0  0  0  0  0  0  0  0  0
    9.4207    5.5477    0.0000 H   0  0  0  0  0  0  0  0  0  0  0  0
    3.5364    3.0171    0.0000 H   0  0  0  0  0  0  0  0  0  0  0  0
    6.4704    6.2899    0.0000 H   0  0  0  0  0  0  0  0  0  0  0  0
    5.6790    1.3960    0.0000 H   0  0  0  0  0  0  0  0  0  0  0  0
    8.7703    4.2535    0.0000 H   0  0  0  0  0  0  0  0  0  0  0  0
    6.5388    3.6040    0.0000 H   0  0  0  0  0  0  0  0  0  0  0  0
   10.7983    0.2403    0.0000 H   0  0  0  0  0  0  0  0  0  0  0  0
    8.8372   -1.0997    0.0000 H   0  0  0  0  0  0  0  0  0  0  0  0
   10.9426    2.5452    0.0000 H   0  0  0  0  0  0  0  0  0  0  0  0
    6.5612   -0.4279    0.0000 H   0  0  0  0  0  0  0  0  0  0  0  0
    9.7707    6.9105    0.0000 H   0  0  0  0  0  0  0  0  0  0  0  0
    2.8660    1.7801    0.0000 H   0  0  0  0  0  0  0  0  0  0  0  0
    5.0853    6.0427    0.0000 H   0  0  0  0  0  0  0  0  0  0  0  0
   11.2523   -4.1801    0.0000 H   0  0  0  0  0  0  0  0  0  0  0  0
   11.0749   -3.4030    0.0000 H   0  0  0  0  0  0  0  0  0  0  0  0
   14.7124    0.2078    0.0000 H   0  0  0  0  0  0  0  0  0  0  0  0
   13.9943    0.5537    0.0000 H   0  0  0  0  0  0  0  0  0  0  0  0
    5.6585   -4.2366    0.0000 H   0  0  0  0  0  0  0  0  0  0  0  0
    6.1555   -3.6134    0.0000 H   0  0  0  0  0  0  0  0  0  0  0  0
   13.4084    5.5851    0.0000 H   0  0  0  0  0  0  0  0  0  0  0  0
   12.6903    5.2393    0.0000 H   0  0  0  0  0  0  0  0  0  0  0  0
    5.6095    0.1111    0.0000 H   0  0  0  0  0  0  0  0  0  0  0  0
    6.4066    0.1111    0.0000 H   0  0  0  0  0  0  0  0  0  0  0  0
    7.5330    4.6071    0.0000 H   0  0  0  0  0  0  0  0  0  0  0  0
    7.3557    3.8301    0.0000 H   0  0  0  0  0  0  0  0  0  0  0  0
    5.4909    2.8572    0.0000 H   0  0  0  0  0  0  0  0  0  0  0  0
    5.9879    2.2340    0.0000 H   0  0  0  0  0  0  0  0  0  0  0  0
    9.1360   -0.1432    0.0000 H   0  0  0  0  0  0  0  0  0  0  0  0
   10.1422    0.1250    0.0000 H   0  0  0  0  0  0  0  0  0  0  0  0
    7.4952   -0.0651    0.0000 H   0  0  0  0  0  0  0  0  0  0  0  0
    9.9436    2.6236    0.0000 H   0  0  0  0  0  0  0  0  0  0  0  0
    2.0000    1.2760    0.0000 H   0  0  0  0  0  0  0  0  0  0  0  0
    9.4720    7.8670    0.0000 H   0  0  0  0  0  0  0  0  0  0  0  0
    4.1512    6.4055    0.0000 H   0  0  0  0  0  0  0  0  0  0  0  0
   10.9687   -1.7381    0.0000 H   0  0  0  0  0  0  0  0  0  0  0  0
    7.6025   -2.5299    0.0000 H   0  0  0  0  0  0  0  0  0  0  0  0
   12.5599    1.3429    0.0000 H   0  0  0  0  0  0  0  0  0  0  0  0
    4.8789    0.4981    0.0000 H   0  0  0  0  0  0  0  0  0  0  0  0
   11.3501    6.5500    0.0000 H   0  0  0  0  0  0  0  0  0  0  0  0
    2.8660    3.4001    0.0000 H   0  0  0  0  0  0  0  0  0  0  0  0
    6.3518    7.0528    0.0000 H   0  0  0  0  0  0  0  0  0  0  0  0
   11.6377   -5.8687    0.0000 H   0  0  0  0  0  0  0  0  0  0  0  0
   11.4603   -5.0916    0.0000 H   0  0  0  0  0  0  0  0  0  0  0  0
   16.2729   -0.5437    0.0000 H   0  0  0  0  0  0  0  0  0  0  0  0
   15.5548   -0.1978    0.0000 H   0  0  0  0  0  0  0  0  0  0  0  0
    4.5786   -5.5908    0.0000 H   0  0  0  0  0  0  0  0  0  0  0  0
    5.0756   -4.9676    0.0000 H   0  0  0  0  0  0  0  0  0  0  0  0
   14.9689    6.3366    0.0000 H   0  0  0  0  0  0  0  0  0  0  0  0
   14.2508    5.9908    0.0000 H   0  0  0  0  0  0  0  0  0  0  0  0
    7.3416    0.1111    0.0000 H   0  0  0  0  0  0  0  0  0  0  0  0
    8.1386    0.1111    0.0000 H   0  0  0  0  0  0  0  0  0  0  0  0
    9.7922    3.0119    0.0000 H   0  0  0  0  0  0  0  0  0  0  0  0
    9.2080    3.5540    0.0000 H   0  0  0  0  0  0  0  0  0  0  0  0
    7.9298    3.8033    0.0000 H   0  0  0  0  0  0  0  0  0  0  0  0
    7.1743    3.5494    0.0000 H   0  0  0  0  0  0  0  0  0  0  0  0
   11.3957   -6.4035    0.0000 H   0  0  0  0  0  0  0  0  0  0  0  0
   16.6203   -2.1372    0.0000 H   0  0  0  0  0  0  0  0  0  0  0  0
    4.0096   -5.7350    0.0000 H   0  0  0  0  0  0  0  0  0  0  0  0
   15.5441    6.2196    0.0000 H   0  0  0  0  0  0  0  0  0  0  0  0
    9.0811    1.4846    0.0000 H   0  0  0  0  0  0  0  0  0  0  0  0
    9.8935    2.4337    0.0000 H   0  0  0  0  0  0  0  0  0  0  0  0
    9.2782    2.8526    0.0000 H   0  0  0  0  0  0  0  0  0  0  0  0
    9.6783   -6.1595    0.0000 H   0  0  0  0  0  0  0  0  0  0  0  0
    9.2118   -6.9019    0.0000 H   0  0  0  0  0  0  0  0  0  0  0  0
    9.9542   -7.3684    0.0000 H   0  0  0  0  0  0  0  0  0  0  0  0
   15.2786   -2.2569    0.0000 H   0  0  0  0  0  0  0  0  0  0  0  0
   15.5682   -3.0845    0.0000 H   0  0  0  0  0  0  0  0  0  0  0  0
   16.3958   -2.7949    0.0000 H   0  0  0  0  0  0  0  0  0  0  0  0
    3.1296   -4.2402    0.0000 H   0  0  0  0  0  0  0  0  0  0  0  0
    2.2583   -4.3384    0.0000 H   0  0  0  0  0  0  0  0  0  0  0  0
    2.3565   -5.2097    0.0000 H   0  0  0  0  0  0  0  0  0  0  0  0
   15.6884    4.4911    0.0000 H   0  0  0  0  0  0  0  0  0  0  0  0
   16.5160    4.2015    0.0000 H   0  0  0  0  0  0  0  0  0  0  0  0
   16.8056    5.0291    0.0000 H   0  0  0  0  0  0  0  0  0  0  0  0
    8.9737   -0.0317    0.0000 H   0  0  0  0  0  0  0  0  0  0  0  0
    9.8471    0.0447    0.0000 H   0  0  0  0  0  0  0  0  0  0  0  0
    9.7707    0.9182    0.0000 H   0  0  0  0  0  0  0  0  0  0  0  0
    9.1741    0.8409    0.0000 H   0  0  0  0  0  0  0  0  0  0  0  0
    9.9493    0.4312    0.0000 H   0  0  0  0  0  0  0  0  0  0  0  0
   10.3590    1.2064    0.0000 H   0  0  0  0  0  0  0  0  0  0  0  0
    8.2194    1.9468    0.0000 H   0  0  0  0  0  0  0  0  0  0  0  0
    8.9249    1.4261    0.0000 H   0  0  0  0  0  0  0  0  0  0  0  0
    9.4456    2.1316    0.0000 H   0  0  0  0  0  0  0  0  0  0  0  0
   11.2886   -7.8670    0.0000 H   0  0  0  0  0  0  0  0  0  0  0  0
   17.6176   -2.0624    0.0000 H   0  0  0  0  0  0  0  0  0  0  0  0
    2.7987   -6.5638    0.0000 H   0  0  0  0  0  0  0  0  0  0  0  0
   16.9947    6.4410    0.0000 H   0  0  0  0  0  0  0  0  0  0  0  0
    7.4861    1.9521    0.0000 H   0  0  0  0  0  0  0  0  0  0  0  0
   10.6295    1.1643    0.0000 H   0  0  0  0  0  0  0  0  0  0  0  0
    9.9529    3.6549    0.0000 H   0  0  0  0  0  0  0  0  0  0  0  0
  1 43  1  0  0  0  0
  1 57  1  0  0  0  0
  2 44  1  0  0  0  0
  2 61  1  0  0  0  0
  3 45  1  0  0  0  0
  3 58  1  0  0  0  0
  4 46  1  0  0  0  0
  4 65  1  0  0  0  0
  5 47  1  0  0  0  0
  5 62  1  0  0  0  0
  6 48  1  0  0  0  0
  6 67  1  0  0  0  0
  7 49  1  0  0  0  0
  7 66  1  0  0  0  0
  8 57  1  0  0  0  0
  8 60  1  0  0  0  0
  9 58  1  0  0  0  0
  9 59  1  0  0  0  0
 10 61  1  0  0  0  0
 10 64  1  0  0  0  0
 11 62  1  0  0  0  0
 11 63  1  0  0  0  0
 12 65  1  0  0  0  0
 12 69  1  0  0  0  0
 13 66  1  0  0  0  0
 13 68  1  0  0  0  0
 14 67  1  0  0  0  0
 14 70  1  0  0  0  0
 50 15  1  6  0  0  0
 15155  1  0  0  0  0
 51 16  1  6  0  0  0
 16156  1  0  0  0  0
 52 17  1  6  0  0  0
 17157  1  0  0  0  0
 53 18  1  6  0  0  0
 18158  1  0  0  0  0
 54 19  1  1  0  0  0
 19159  1  0  0  0  0
 55 20  1  1  0  0  0
 20160  1  0  0  0  0
 56 21  1  1  0  0  0
 21161  1  0  0  0  0
 71 22  1  1  0  0  0
 22162  1  0  0  0  0
 72 23  1  1  0  0  0
 23163  1  0  0  0  0
 73 24  1  1  0  0  0
 24164  1  0  0  0  0
 74 25  1  1  0  0  0
 25165  1  0  0  0  0
 75 26  1  6  0  0  0
 26166  1  0  0  0  0
 76 27  1  6  0  0  0
 27167  1  0  0  0  0
 77 28  1  6  0  0  0
 28168  1  0  0  0  0
 29 78  1  0  0  0  0
 29 85  1  0  0  0  0
 30 79  1  0  0  0  0
 30 86  1  0  0  0  0
 31 80  1  0  0  0  0
 31 87  1  0  0  0  0
 32 81  1  0  0  0  0
 32 88  1  0  0  0  0
 33 82  1  0  0  0  0
 33 89  1  0  0  0  0
 34 83  1  0  0  0  0
 34 90  1  0  0  0  0
 35 84  1  0  0  0  0
 35 91  1  0  0  0  0
 36 92  1  0  0  0  0
 36211  1  0  0  0  0
 37 93  1  0  0  0  0
 37212  1  0  0  0  0
 38 94  1  0  0  0  0
 38213  1  0  0  0  0
 39 95  1  0  0  0  0
 39214  1  0  0  0  0
 40 96  1  0  0  0  0
 40215  1  0  0  0  0
 41 97  1  0  0  0  0
 41216  1  0  0  0  0
 42 98  1  0  0  0  0
 42217  1  0  0  0  0
 43 50  1  0  0  0  0
 43 59  1  0  0  0  0
 43106  1  1  0  0  0
 44 51  1  0  0  0  0
 44 60  1  0  0  0  0
 44107  1  1  0  0  0
 45 52  1  0  0  0  0
 45 63  1  0  0  0  0
 45108  1  1  0  0  0
 46 53  1  0  0  0  0
 46 64  1  0  0  0  0
 46109  1  1  0  0  0
 47 54  1  0  0  0  0
 47 68  1  0  0  0  0
 47110  1  6  0  0  0
 48 55  1  0  0  0  0
 48 69  1  0  0  0  0
 48111  1  6  0  0  0
 49 56  1  0  0  0  0
 49 70  1  0  0  0  0
 49112  1  6  0  0  0
 50 72  1  0  0  0  0
 50113  1  0  0  0  0
 51 71  1  0  0  0  0
 51114  1  0  0  0  0
 52 74  1  0  0  0  0
 52115  1  0  0  0  0
 53 73  1  0  0  0  0
 53116  1  0  0  0  0
 54 76  1  0  0  0  0
 54117  1  0  0  0  0
 55 75  1  0  0  0  0
 55118  1  0  0  0  0
 56 77  1  0  0  0  0
 56119  1  0  0  0  0
 57 71  1  0  0  0  0
 57120  1  1  0  0  0
 58 72  1  0  0  0  0
 58121  1  1  0  0  0
 59 78  1  1  0  0  0
 59122  1  0  0  0  0
 60 79  1  1  0  0  0
 60123  1  0  0  0  0
 61 73  1  0  0  0  0
 61124  1  1  0  0  0
 62 74  1  0  0  0  0
 62125  1  1  0  0  0
 63 80  1  1  0  0  0
 63126  1  0  0  0  0
 64 81  1  1  0  0  0
 64127  1  0  0  0  0
 65 75  1  0  0  0  0
 65128  1  6  0  0  0
 66 76  1  0  0  0  0
 66129  1  6  0  0  0
 67 77  1  0  0  0  0
 67130  1  6  0  0  0
 68 82  1  6  0  0  0
 68131  1  0  0  0  0
 69 83  1  6  0  0  0
 69132  1  0  0  0  0
 70 84  1  6  0  0  0
 70133  1  0  0  0  0
 71134  1  0  0  0  0
 72135  1  0  0  0  0
 73136  1  0  0  0  0
 74137  1  0  0  0  0
 75138  1  0  0  0  0
 76139  1  0  0  0  0
 77140  1  0  0  0  0
 78141  1  0  0  0  0
 78142  1  0  0  0  0
 79143  1  0  0  0  0
 79144  1  0  0  0  0
 80145  1  0  0  0  0
 80146  1  0  0  0  0
 81147  1  0  0  0  0
 81148  1  0  0  0  0
 82149  1  0  0  0  0
 82150  1  0  0  0  0
 83151  1  0  0  0  0
 83152  1  0  0  0  0
 84153  1  0  0  0  0
 84154  1  0  0  0  0
 85 92  1  0  0  0  0
 85169  1  0  0  0  0
 85170  1  0  0  0  0
 86 93  1  0  0  0  0
 86171  1  0  0  0  0
 86172  1  0  0  0  0
 87 94  1  0  0  0  0
 87173  1  0  0  0  0
 87174  1  0  0  0  0
 88 95  1  0  0  0  0
 88175  1  0  0  0  0
 88176  1  0  0  0  0
 89 96  1  0  0  0  0
 89177  1  0  0  0  0
 89178  1  0  0  0  0
 90 97  1  0  0  0  0
 90179  1  0  0  0  0
 90180  1  0  0  0  0
 91 98  1  0  0  0  0
 91181  1  0  0  0  0
 91182  1  0  0  0  0
 92 99  1  0  0  0  0
 92183  1  0  0  0  0
 93100  1  0  0  0  0
 93184  1  0  0  0  0
 94101  1  0  0  0  0
 94185  1  0  0  0  0
 95102  1  0  0  0  0
 95186  1  0  0  0  0
 96103  1  0  0  0  0
 96187  1  0  0  0  0
 97104  1  0  0  0  0
 97188  1  0  0  0  0
 98105  1  0  0  0  0
 98189  1  0  0  0  0
 99190  1  0  0  0  0
 99191  1  0  0  0  0
 99192  1  0  0  0  0
100193  1  0  0  0  0
100194  1  0  0  0  0
100195  1  0  0  0  0
101196  1  0  0  0  0
101197  1  0  0  0  0
101198  1  0  0  0  0
102199  1  0  0  0  0
102200  1  0  0  0  0
102201  1  0  0  0  0
103202  1  0  0  0  0
103203  1  0  0  0  0
103204  1  0  0  0  0
104205  1  0  0  0  0
104206  1  0  0  0  0
104207  1  0  0  0  0
105208  1  0  0  0  0
105209  1  0  0  0  0
105210  1  0  0  0  0
M  END
> <PUBCHEM_COMPOUND_CID>
138319308

> <PUBCHEM_COMPOUND_CANONICALIZED>
1

> <PUBCHEM_CACTVS_COMPLEXITY>
2010

> <PUBCHEM_CACTVS_HBOND_ACCEPTOR>
42

> <PUBCHEM_CACTVS_HBOND_DONOR>
21

> <PUBCHEM_CACTVS_ROTATABLE_BOND>
28

> <PUBCHEM_CACTVS_SUBSKEYS>
AAADcfB8PgAAAAAAAAAAAAAAAAAAAAAAAAAkSJEiQAAAAAAAAAAAGgAACAAACBSwgAMCCAAABgAAAAAAAAAAAAAAAAAAAAAAAAAREAIAAAAiQAAFAAAHAAHAYAwAAAAAAAAAAAAAAAAAAAAAAAAAAAAAAA==

> <PUBCHEM_IUPAC_OPENEYE_NAME>
(1S,3R,5R,6S,8R,10R,11S,13R,15R,16S,18R,20R,21S,23R,25R,26S,28R,30R,31S,33R,35R,36S,37S,38S,39S,40S,41S,42S,43S,44S,45S,46S,47S,48S,49S)-5,10,15,20,25,30,35-heptakis(2-hydroxypropoxymethyl)-2,4,7,9,12,14,17,19,22,24,27,29,32,34-tetradecaoxaoctacyclo[31.2.2.23,6.28,11.213,16.218,21.223,26.228,31]nonatetracontane-36,37,38,39,40,41,42,43,44,45,46,47,48,49-tetradecol

> <PUBCHEM_IUPAC_CAS_NAME>
(1S,3R,5R,6S,8R,10R,11S,13R,15R,16S,18R,20R,21S,23R,25R,26S,28R,30R,31S,33R,35R,36S,37S,38S,39S,40S,41S,42S,43S,44S,45S,46S,47S,48S,49S)-5,10,15,20,25,30,35-heptakis(2-hydroxypropoxymethyl)-2,4,7,9,12,14,17,19,22,24,27,29,32,34-tetradecaoxaoctacyclo[31.2.2.23,6.28,11.213,16.218,21.223,26.228,31]nonatetracontane-36,37,38,39,40,41,42,43,44,45,46,47,48,49-tetradecol

> <PUBCHEM_IUPAC_NAME_MARKUP>
(1<I>S</I>,3<I>R</I>,5<I>R</I>,6<I>S</I>,8<I>R</I>,10<I>R</I>,11<I>S</I>,13<I>R</I>,15<I>R</I>,16<I>S</I>,18<I>R</I>,20<I>R</I>,21<I>S</I>,23<I>R</I>,25<I>R</I>,26<I>S</I>,28<I>R</I>,30<I>R</I>,31<I>S</I>,33<I>R</I>,35<I>R</I>,36<I>S</I>,37<I>S</I>,38<I>S</I>,39<I>S</I>,40<I>S</I>,41<I>S</I>,42<I>S</I>,43<I>S</I>,44<I>S</I>,45<I>S</I>,46<I>S</I>,47<I>S</I>,48<I>S</I>,49<I>S</I>)-5,10,15,20,25,30,35-heptakis(2-hydroxypropoxymethyl)-2,4,7,9,12,14,17,19,22,24,27,29,32,34-tetradecaoxaoctacyclo[31.2.2.2<SUP>3,6</SUP>.2<SUP>8,11</SUP>.2<SUP>13,16</SUP>.2<SUP>18,21</SUP>.2<SUP>23,26</SUP>.2<SUP>28,31</SUP>]nonatetracontane-36,37,38,39,40,41,42,43,44,45,46,47,48,49-tetradecol

> <PUBCHEM_IUPAC_NAME>
(1S,3R,5R,6S,8R,10R,11S,13R,15R,16S,18R,20R,21S,23R,25R,26S,28R,30R,31S,33R,35R,36S,37S,38S,39S,40S,41S,42S,43S,44S,45S,46S,47S,48S,49S)-5,10,15,20,25,30,35-heptakis(2-hydroxypropoxymethyl)-2,4,7,9,12,14,17,19,22,24,27,29,32,34-tetradecaoxaoctacyclo[31.2.2.23,6.28,11.213,16.218,21.223,26.228,31]nonatetracontane-36,37,38,39,40,41,42,43,44,45,46,47,48,49-tetradecol

> <PUBCHEM_IUPAC_SYSTEMATIC_NAME>
(1S,3R,5R,6S,8R,10R,11S,13R,15R,16S,18R,20R,21S,23R,25R,26S,28R,30R,31S,33R,35R,36S,37S,38S,39S,40S,41S,42S,43S,44S,45S,46S,47S,48S,49S)-5,10,15,20,25,30,35-heptakis(2-oxidanylpropoxymethyl)-2,4,7,9,12,14,17,19,22,24,27,29,32,34-tetradecaoxaoctacyclo[31.2.2.23,6.28,11.213,16.218,21.223,26.228,31]nonatetracontane-36,37,38,39,40,41,42,43,44,45,46,47,48,49-tetradecol

> <PUBCHEM_IUPAC_TRADITIONAL_NAME>
(1S,3R,5R,6S,8R,10R,11S,13R,15R,16S,18R,20R,21S,23R,25R,26S,28R,30R,31S,33R,35R,36S,37S,38S,39S,40S,41S,42S,43S,44S,45S,46S,47S,48S,49S)-5,10,15,20,25,30,35-heptakis(2-hydroxypropoxymethyl)-2,4,7,9,12,14,17,19,22,24,27,29,32,34-tetradecaoxaoctacyclo[31.2.2.23,6.28,11.213,16.218,21.223,26.228,31]nonatetracontane-36,37,38,39,40,41,42,43,44,45,46,47,48,49-tetradecol

> <PUBCHEM_IUPAC_INCHI>
InChI=1S/C63H112O42/c1-22(64)8-85-15-29-50-36(71)43(78)57(92-29)100-51-30(16-86-9-23(2)65)94-59(45(80)38(51)73)102-53-32(18-88-11-25(4)67)96-61(47(82)40(53)75)104-55-34(20-90-13-27(6)69)98-63(49(84)42(55)77)105-56-35(21-91-14-28(7)70)97-62(48(83)41(56)76)103-54-33(19-89-12-26(5)68)95-60(46(81)39(54)74)101-52-31(17-87-10-24(3)66)93-58(99-50)44(79)37(52)72/h22-84H,8-21H2,1-7H3/t22?,23?,24?,25?,26?,27?,28?,29-,30-,31-,32-,33-,34-,35-,36+,37+,38+,39+,40+,41+,42+,43+,44+,45+,46+,47+,48+,49+,50-,51-,52-,53-,54-,55-,56-,57-,58-,59-,60-,61-,62-,63-/m1/s1

> <PUBCHEM_IUPAC_INCHIKEY>
ODLHGICHYURWBS-LMNZQWFYSA-N

> <PUBCHEM_XLOGP3_AA>
-13

> <PUBCHEM_EXACT_MASS>
1540.6628176

> <PUBCHEM_MOLECULAR_FORMULA>
C63H112O42

> <PUBCHEM_MOLECULAR_WEIGHT>
1541.5

> <PUBCHEM_OPENEYE_CAN_SMILES>
CC(COCC1C2C(C(C(O1)OC3C(OC(C(C3O)O)OC4C(OC(C(C4O)O)OC5C(OC(C(C5O)O)OC6C(OC(C(C6O)O)OC7C(OC(C(C7O)O)OC8C(OC(O2)C(C8O)O)COCC(C)O)COCC(C)O)COCC(C)O)COCC(C)O)COCC(C)O)COCC(C)O)O)O)O

> <PUBCHEM_OPENEYE_ISO_SMILES>
CC(COC[C@@H]1[C@@H]2[C@H]([C@@H]([C@H](O1)O[C@@H]3[C@H](O[C@@H]([C@H]([C@@H]3O)O)O[C@@H]4[C@H](O[C@@H]([C@H]([C@@H]4O)O)O[C@@H]5[C@H](O[C@@H]([C@H]([C@@H]5O)O)O[C@@H]6[C@H](O[C@@H]([C@H]([C@@H]6O)O)O[C@@H]7[C@H](O[C@@H]([C@H]([C@@H]7O)O)O[C@@H]8[C@H](O[C@H](O2)[C@H]([C@@H]8O)O)COCC(C)O)COCC(C)O)COCC(C)O)COCC(C)O)COCC(C)O)COCC(C)O)O)O)O

> <PUBCHEM_CACTVS_TPSA>
619

> <PUBCHEM_MONOISOTOPIC_WEIGHT>
1540.6628176

> <PUBCHEM_TOTAL_CHARGE>
0

> <PUBCHEM_HEAVY_ATOM_COUNT>
105

> <PUBCHEM_ATOM_DEF_STEREO_COUNT>
35

> <PUBCHEM_ATOM_UDEF_STEREO_COUNT>
7

> <PUBCHEM_BOND_DEF_STEREO_COUNT>
0

> <PUBCHEM_BOND_UDEF_STEREO_COUNT>
0

> <PUBCHEM_ISOTOPIC_ATOM_COUNT>
0

> <PUBCHEM_COMPONENT_COUNT>
1

> <PUBCHEM_CACTVS_TAUTO_COUNT>
-1

> <PUBCHEM_COORDINATE_TYPE>
1
5
255

> <PUBCHEM_BONDANNOTATIONS>
50  15  6
51  16  6
52  17  6
53  18  6
54  19  5
55  20  5
56  21  5
71  22  5
72  23  5
73  24  5
74  25  5
75  26  6
76  27  6
77  28  6
92  36  3
93  37  3
94  38  3
95  39  3
96  40  3
97  41  3
98  42  3
43  106  5
44  107  5
45  108  5
46  109  5
47  110  6
48  111  6
49  112  6
57  120  5
58  121  5
59  78  5
60  79  5
61  124  5
62  125  5
63  80  5
64  81  5
65  128  6
66  129  6
67  130  6
68  82  6
69  83  6
70  84  6

$$$$
