MODEL 1
REMARK VINA RESULT:      -4.4      0.000      0.000
REMARK  12 active torsions:
REMARK  status: ('A' for Active; 'I' for Inactive)
REMARK    1  A    between atoms: O_1  and  C_10 
REMARK    2  A    between atoms: O_2  and  C_17 
REMARK    3  A    between atoms: O_3  and  C_20 
REMARK    4  A    between atoms: O_4  and  C_27 
REMARK    5  A    between atoms: O_6  and  C_29 
REMARK    6  A    between atoms: O_7  and  C_28 
REMARK    7  A    between atoms: O_8  and  C_33 
REMARK    8  A    between atoms: C_11  and  C_20 
REMARK    9  A    between atoms: C_20  and  C_28 
REMARK   10  A    between atoms: C_28  and  C_31 
REMARK   11  A    between atoms: C_31  and  C_32 
REMARK   12  A    between atoms: C_32  and  C_33 
ROOT
HETATM    1  O   UNK     0      -2.322  -4.671   7.861  0.00  0.00    -0.384 OA
HETATM    2  H   UNK     0      -1.887  -3.938   8.321  0.00  0.00     0.211 HD
ENDROOT
BRANCH   1   3
HETATM    3  C   UNK     0      -2.705  -5.714   8.786  0.00  0.00     0.090 C 
HETATM    4  C   UNK     0      -4.218  -5.596   9.106  0.00  0.00    -0.000 C 
HETATM    5  C   UNK     0      -4.256  -4.219   9.818  0.00  0.00     0.034 C 
HETATM    6  C   UNK     0      -5.001  -5.640   7.787  0.00  0.00     0.045 C 
HETATM    7  C   UNK     0      -4.729  -6.720  10.050  0.00  0.00     0.019 C 
HETATM    8  C   UNK     0      -2.978  -4.219  10.688  0.00  0.00     0.012 C 
HETATM    9  C   UNK     0      -2.062  -5.328  10.126  0.00  0.00     0.044 C 
HETATM   10  C   UNK     0      -4.715  -6.937   7.003  0.00  0.00     0.128 C 
HETATM   11  C   UNK     0      -3.187  -7.241   6.778  0.00  0.00     0.055 C 
HETATM   12  C   UNK     0      -2.906  -8.647   6.085  0.00  0.00    -0.021 C 
HETATM   13  C   UNK     0      -2.396  -7.021   8.084  0.00  0.00    -0.034 C 
HETATM   14  C   UNK     0      -1.421  -9.065   6.296  0.00  0.00     0.071 C 
HETATM   15  C   UNK     0      -3.230  -8.606   4.546  0.00  0.00     0.045 C 
HETATM   16  C   UNK     0      -3.797  -9.756   6.713  0.00  0.00     0.017 C 
HETATM   17  C   UNK     0      -0.388  -8.236   5.511  0.00  0.00     0.047 C 
HETATM   18  C   UNK     0      -1.051  -9.039   7.764  0.00  0.00     0.154 C 
HETATM   19  C   UNK     0      -0.916  -7.687   4.190  0.00  0.00     0.147 C 
HETATM   20  C   UNK     0      -2.017  -8.564   3.610  0.00  0.00     0.147 C 
HETATM   21  O   UNK     0      -0.352  -9.911   8.276  0.00  0.00    -0.293 OA
HETATM   22  C   UNK     0      -1.473  -7.870   8.560  0.00  0.00     0.057 C 
BRANCH   5  23
HETATM   23  C   UNK     0      -5.514  -3.900  10.615  0.00  0.00     0.084 C 
HETATM   24  C   UNK     0      -5.503  -4.680  11.940  0.00  0.00     0.049 C 
BRANCH  23  25
HETATM   25  O   UNK     0      -5.502  -2.503  10.940  0.00  0.00    -0.387 OA
HETATM   26  H   UNK     0      -4.719  -2.313  11.483  0.00  0.00     0.210 HD
ENDBRANCH  23  25
BRANCH  23  27
HETATM   27  C   UNK     0      -6.809  -4.199   9.813  0.00  0.00     0.152 C 
BRANCH  27  28
HETATM   28  O   UNK     0      -7.061  -3.132   8.893  0.00  0.00    -0.393 OA
HETATM   29  H   UNK     0      -7.999  -3.179   8.643  0.00  0.00     0.210 HD
ENDBRANCH  27  28
BRANCH  27  30
HETATM   30  C   UNK     0      -8.064  -4.392  10.686  0.00  0.00     0.037 C 
BRANCH  30  31
HETATM   31  C   UNK     0      -9.065  -3.234  10.523  0.00  0.00     0.040 C 
BRANCH  31  32
HETATM   32  C   UNK     0      -8.953  -2.134  11.599  0.00  0.00     0.051 C 
HETATM   33  C   UNK     0     -10.299  -1.416  11.742  0.00  0.00     0.045 C 
HETATM   34  C   UNK     0      -8.509  -2.684  12.957  0.00  0.00     0.045 C 
BRANCH  32  35
HETATM   35  O   UNK     0      -7.988  -1.174  11.163  0.00  0.00    -0.391 OA
HETATM   36  H   UNK     0      -7.195  -1.256  11.719  0.00  0.00     0.210 HD
ENDBRANCH  32  35
ENDBRANCH  31  32
ENDBRANCH  30  31
ENDBRANCH  27  30
ENDBRANCH  23  27
ENDBRANCH   5  23
BRANCH  10  37
HETATM   37  O   UNK     0      -5.394  -6.832   5.754  0.00  0.00    -0.395 OA
HETATM   38  H   UNK     0      -5.638  -7.730   5.473  0.00  0.00     0.210 HD
ENDBRANCH  10  37
BRANCH  19  39
HETATM   39  O   UNK     0       0.169  -7.580   3.273  0.00  0.00    -0.393 OA
HETATM   40  H   UNK     0       0.786  -6.908   3.607  0.00  0.00     0.210 HD
ENDBRANCH  19  39
BRANCH  20  41
HETATM   41  O   UNK     0      -1.539  -9.895   3.408  0.00  0.00    -0.393 OA
HETATM   42  H   UNK     0      -0.751  -9.841   2.842  0.00  0.00     0.210 HD
ENDBRANCH  20  41
ENDBRANCH   1   3
TORSDOF 12
ENDMDL
MODEL 2
REMARK VINA RESULT:      -4.3      1.947      8.911
REMARK  12 active torsions:
REMARK  status: ('A' for Active; 'I' for Inactive)
REMARK    1  A    between atoms: O_1  and  C_10 
REMARK    2  A    between atoms: O_2  and  C_17 
REMARK    3  A    between atoms: O_3  and  C_20 
REMARK    4  A    between atoms: O_4  and  C_27 
REMARK    5  A    between atoms: O_6  and  C_29 
REMARK    6  A    between atoms: O_7  and  C_28 
REMARK    7  A    between atoms: O_8  and  C_33 
REMARK    8  A    between atoms: C_11  and  C_20 
REMARK    9  A    between atoms: C_20  and  C_28 
REMARK   10  A    between atoms: C_28  and  C_31 
REMARK   11  A    between atoms: C_31  and  C_32 
REMARK   12  A    between atoms: C_32  and  C_33 
ROOT
HETATM    1  O   UNK     0      -4.891  -5.614   6.867  0.00  0.00    -0.384 OA
HETATM    2  H   UNK     0      -5.811  -5.314   6.865  0.00  0.00     0.211 HD
ENDROOT
BRANCH   1   3
HETATM    3  C   UNK     0      -4.756  -6.883   7.547  0.00  0.00     0.090 C 
HETATM    4  C   UNK     0      -3.293  -7.382   7.431  0.00  0.00    -0.000 C 
HETATM    5  C   UNK     0      -3.178  -7.589   5.898  0.00  0.00     0.034 C 
HETATM    6  C   UNK     0      -2.361  -6.296   7.986  0.00  0.00     0.045 C 
HETATM    7  C   UNK     0      -3.044  -8.717   8.187  0.00  0.00     0.019 C 
HETATM    8  C   UNK     0      -4.546  -8.193   5.505  0.00  0.00     0.012 C 
HETATM    9  C   UNK     0      -5.512  -7.895   6.674  0.00  0.00     0.044 C 
HETATM   10  C   UNK     0      -2.700  -5.957   9.452  0.00  0.00     0.128 C 
HETATM   11  C   UNK     0      -4.213  -5.606   9.708  0.00  0.00     0.055 C 
HETATM   12  C   UNK     0      -4.572  -5.388  11.244  0.00  0.00    -0.021 C 
HETATM   13  C   UNK     0      -5.130  -6.619   8.991  0.00  0.00    -0.034 C 
HETATM   14  C   UNK     0      -6.111  -5.487  11.457  0.00  0.00     0.071 C 
HETATM   15  C   UNK     0      -4.055  -3.997  11.765  0.00  0.00     0.045 C 
HETATM   16  C   UNK     0      -3.908  -6.484  12.123  0.00  0.00     0.017 C 
HETATM   17  C   UNK     0      -6.929  -4.316  10.883  0.00  0.00     0.047 C 
HETATM   18  C   UNK     0      -6.657  -6.782  10.895  0.00  0.00     0.154 C 
HETATM   19  C   UNK     0      -6.178  -2.989  10.868  0.00  0.00     0.147 C 
HETATM   20  C   UNK     0      -5.126  -2.920  11.967  0.00  0.00     0.147 C 
HETATM   21  O   UNK     0      -7.515  -7.438  11.482  0.00  0.00    -0.293 OA
HETATM   22  C   UNK     0      -6.200  -7.198   9.554  0.00  0.00     0.057 C 
BRANCH   5  23
HETATM   23  C   UNK     0      -2.002  -8.423   5.409  0.00  0.00     0.084 C 
HETATM   24  C   UNK     0      -2.378  -9.914   5.422  0.00  0.00     0.049 C 
BRANCH  23  25
HETATM   25  O   UNK     0      -1.725  -8.063   4.050  0.00  0.00    -0.387 OA
HETATM   26  H   UNK     0      -1.655  -7.096   3.988  0.00  0.00     0.210 HD
ENDBRANCH  23  25
BRANCH  23  27
HETATM   27  C   UNK     0      -0.718  -8.175   6.247  0.00  0.00     0.152 C 
BRANCH  27  28
HETATM   28  O   UNK     0      -0.030  -7.026   5.742  0.00  0.00    -0.393 OA
HETATM   29  H   UNK     0       0.913  -7.256   5.680  0.00  0.00     0.210 HD
ENDBRANCH  27  28
BRANCH  27  30
HETATM   30  C   UNK     0       0.266  -9.361   6.263  0.00  0.00     0.037 C 
BRANCH  30  31
HETATM   31  C   UNK     0       1.597  -9.016   5.571  0.00  0.00     0.040 C 
BRANCH  31  32
HETATM   32  C   UNK     0       1.644  -9.358   4.067  0.00  0.00     0.051 C 
HETATM   33  C   UNK     0       3.097  -9.587   3.637  0.00  0.00     0.045 C 
HETATM   34  C   UNK     0       0.798 -10.585   3.718  0.00  0.00     0.045 C 
BRANCH  32  35
HETATM   35  O   UNK     0       1.140  -8.239   3.335  0.00  0.00    -0.391 OA
HETATM   36  H   UNK     0       0.818  -8.552   2.473  0.00  0.00     0.210 HD
ENDBRANCH  32  35
ENDBRANCH  31  32
ENDBRANCH  30  31
ENDBRANCH  27  30
ENDBRANCH  23  27
ENDBRANCH   5  23
BRANCH  10  37
HETATM   37  O   UNK     0      -1.862  -4.870   9.836  0.00  0.00    -0.395 OA
HETATM   38  H   UNK     0      -2.106  -4.102   9.293  0.00  0.00     0.210 HD
ENDBRANCH  10  37
BRANCH  19  39
HETATM   39  O   UNK     0      -7.117  -1.928  11.012  0.00  0.00    -0.393 OA
HETATM   40  H   UNK     0      -8.009  -2.313  11.042  0.00  0.00     0.210 HD
ENDBRANCH  19  39
BRANCH  20  41
HETATM   41  O   UNK     0      -5.732  -3.101  13.248  0.00  0.00    -0.393 OA
HETATM   42  H   UNK     0      -6.279  -3.903  13.203  0.00  0.00     0.210 HD
ENDBRANCH  20  41
ENDBRANCH   1   3
TORSDOF 12
ENDMDL
MODEL 3
REMARK VINA RESULT:      -4.1     10.467     12.193
REMARK  12 active torsions:
REMARK  status: ('A' for Active; 'I' for Inactive)
REMARK    1  A    between atoms: O_1  and  C_10 
REMARK    2  A    between atoms: O_2  and  C_17 
REMARK    3  A    between atoms: O_3  and  C_20 
REMARK    4  A    between atoms: O_4  and  C_27 
REMARK    5  A    between atoms: O_6  and  C_29 
REMARK    6  A    between atoms: O_7  and  C_28 
REMARK    7  A    between atoms: O_8  and  C_33 
REMARK    8  A    between atoms: C_11  and  C_20 
REMARK    9  A    between atoms: C_20  and  C_28 
REMARK   10  A    between atoms: C_28  and  C_31 
REMARK   11  A    between atoms: C_31  and  C_32 
REMARK   12  A    between atoms: C_32  and  C_33 
ROOT
HETATM    1  O   UNK     0      -2.091   4.484   9.011  0.00  0.00    -0.384 OA
HETATM    2  H   UNK     0      -2.926   4.939   9.192  0.00  0.00     0.211 HD
ENDROOT
BRANCH   1   3
HETATM    3  C   UNK     0      -0.962   5.257   9.479  0.00  0.00     0.090 C 
HETATM    4  C   UNK     0      -0.328   4.558  10.709  0.00  0.00    -0.000 C 
HETATM    5  C   UNK     0      -1.493   4.653  11.729  0.00  0.00     0.034 C 
HETATM    6  C   UNK     0       0.044   3.121  10.316  0.00  0.00     0.045 C 
HETATM    7  C   UNK     0       0.933   5.293  11.243  0.00  0.00     0.019 C 
HETATM    8  C   UNK     0      -2.079   6.063  11.487  0.00  0.00     0.012 C 
HETATM    9  C   UNK     0      -1.566   6.523  10.104  0.00  0.00     0.044 C 
HETATM   10  C   UNK     0       1.017   3.096   9.120  0.00  0.00     0.128 C 
HETATM   11  C   UNK     0       0.542   3.932   7.874  0.00  0.00     0.055 C 
HETATM   12  C   UNK     0       1.616   4.005   6.700  0.00  0.00    -0.021 C 
HETATM   13  C   UNK     0       0.011   5.310   8.319  0.00  0.00    -0.034 C 
HETATM   14  C   UNK     0       1.275   5.172   5.729  0.00  0.00     0.071 C 
HETATM   15  C   UNK     0       1.685   2.653   5.898  0.00  0.00     0.045 C 
HETATM   16  C   UNK     0       3.036   4.273   7.273  0.00  0.00     0.017 C 
HETATM   17  C   UNK     0       0.026   4.955   4.855  0.00  0.00     0.047 C 
HETATM   18  C   UNK     0       1.122   6.479   6.479  0.00  0.00     0.154 C 
HETATM   19  C   UNK     0      -0.244   3.493   4.520  0.00  0.00     0.147 C 
HETATM   20  C   UNK     0       1.035   2.666   4.511  0.00  0.00     0.147 C 
HETATM   21  O   UNK     0       1.567   7.538   6.043  0.00  0.00    -0.293 OA
HETATM   22  C   UNK     0       0.327   6.469   7.723  0.00  0.00     0.057 C 
BRANCH   5  23
HETATM   23  C   UNK     0      -1.142   4.401  13.189  0.00  0.00     0.084 C 
HETATM   24  C   UNK     0      -0.077   5.409  13.651  0.00  0.00     0.049 C 
BRANCH  23  25
HETATM   25  O   UNK     0      -2.315   4.623  13.981  0.00  0.00    -0.387 OA
HETATM   26  H   UNK     0      -2.199   5.440  14.494  0.00  0.00     0.210 HD
ENDBRANCH  23  25
BRANCH  23  27
HETATM   27  C   UNK     0      -0.661   2.945  13.434  0.00  0.00     0.152 C 
BRANCH  27  28
HETATM   28  O   UNK     0      -1.498   2.322  14.414  0.00  0.00    -0.393 OA
HETATM   29  H   UNK     0      -1.320   1.366  14.383  0.00  0.00     0.210 HD
ENDBRANCH  27  28
BRANCH  27  30
HETATM   30  C   UNK     0       0.802   2.832  13.905  0.00  0.00     0.037 C 
BRANCH  30  31
HETATM   31  C   UNK     0       1.367   1.414  13.703  0.00  0.00     0.040 C 
BRANCH  31  32
HETATM   32  C   UNK     0       2.609   1.344  12.790  0.00  0.00     0.051 C 
HETATM   33  C   UNK     0       3.118   2.761  12.505  0.00  0.00     0.045 C 
HETATM   34  C   UNK     0       3.733   0.498  13.394  0.00  0.00     0.045 C 
BRANCH  32  35
HETATM   35  O   UNK     0       2.221   0.758  11.546  0.00  0.00    -0.391 OA
HETATM   36  H   UNK     0       1.802  -0.101  11.724  0.00  0.00     0.210 HD
ENDBRANCH  32  35
ENDBRANCH  31  32
ENDBRANCH  30  31
ENDBRANCH  27  30
ENDBRANCH  23  27
ENDBRANCH   5  23
BRANCH  10  37
HETATM   37  O   UNK     0       1.211   1.730   8.764  0.00  0.00    -0.395 OA
HETATM   38  H   UNK     0       1.438   1.700   7.819  0.00  0.00     0.210 HD
ENDBRANCH  10  37
BRANCH  19  39
HETATM   39  O   UNK     0      -0.889   3.424   3.252  0.00  0.00    -0.393 OA
HETATM   40  H   UNK     0      -0.462   4.064   2.658  0.00  0.00     0.210 HD
ENDBRANCH  19  39
BRANCH  20  41
HETATM   41  O   UNK     0       1.965   3.200   3.566  0.00  0.00    -0.393 OA
HETATM   42  H   UNK     0       1.638   4.073   3.293  0.00  0.00     0.210 HD
ENDBRANCH  20  41
ENDBRANCH   1   3
TORSDOF 12
ENDMDL
MODEL 4
REMARK VINA RESULT:      -4.1      2.024      3.216
REMARK  12 active torsions:
REMARK  status: ('A' for Active; 'I' for Inactive)
REMARK    1  A    between atoms: O_1  and  C_10 
REMARK    2  A    between atoms: O_2  and  C_17 
REMARK    3  A    between atoms: O_3  and  C_20 
REMARK    4  A    between atoms: O_4  and  C_27 
REMARK    5  A    between atoms: O_6  and  C_29 
REMARK    6  A    between atoms: O_7  and  C_28 
REMARK    7  A    between atoms: O_8  and  C_33 
REMARK    8  A    between atoms: C_11  and  C_20 
REMARK    9  A    between atoms: C_20  and  C_28 
REMARK   10  A    between atoms: C_28  and  C_31 
REMARK   11  A    between atoms: C_31  and  C_32 
REMARK   12  A    between atoms: C_32  and  C_33 
ROOT
HETATM    1  O   UNK     0      -0.167  -7.501   9.573  0.00  0.00    -0.384 OA
HETATM    2  H   UNK     0       0.203  -7.239  10.427  0.00  0.00     0.211 HD
ENDROOT
BRANCH   1   3
HETATM    3  C   UNK     0      -1.526  -7.975   9.715  0.00  0.00     0.090 C 
HETATM    4  C   UNK     0      -2.423  -6.830  10.252  0.00  0.00    -0.000 C 
HETATM    5  C   UNK     0      -1.794  -6.602  11.651  0.00  0.00     0.034 C 
HETATM    6  C   UNK     0      -2.297  -5.627   9.307  0.00  0.00     0.045 C 
HETATM    7  C   UNK     0      -3.917  -7.237  10.379  0.00  0.00     0.019 C 
HETATM    8  C   UNK     0      -1.474  -8.031  12.148  0.00  0.00     0.012 C 
HETATM    9  C   UNK     0      -1.497  -8.946  10.904  0.00  0.00     0.044 C 
HETATM   10  C   UNK     0      -2.702  -5.998   7.865  0.00  0.00     0.128 C 
HETATM   11  C   UNK     0      -1.970  -7.266   7.287  0.00  0.00     0.055 C 
HETATM   12  C   UNK     0      -2.494  -7.712   5.850  0.00  0.00    -0.021 C 
HETATM   13  C   UNK     0      -1.960  -8.404   8.328  0.00  0.00    -0.034 C 
HETATM   14  C   UNK     0      -2.060  -9.176   5.550  0.00  0.00     0.071 C 
HETATM   15  C   UNK     0      -1.957  -6.759   4.720  0.00  0.00     0.045 C 
HETATM   16  C   UNK     0      -4.047  -7.663   5.794  0.00  0.00     0.017 C 
HETATM   17  C   UNK     0      -0.555  -9.376   5.294  0.00  0.00     0.047 C 
HETATM   18  C   UNK     0      -2.493 -10.112   6.659  0.00  0.00     0.154 C 
HETATM   19  C   UNK     0       0.129  -8.164   4.670  0.00  0.00     0.147 C 
HETATM   20  C   UNK     0      -0.839  -7.329   3.842  0.00  0.00     0.147 C 
HETATM   21  O   UNK     0      -2.948 -11.230   6.429  0.00  0.00    -0.293 OA
HETATM   22  C   UNK     0      -2.259  -9.682   8.052  0.00  0.00     0.057 C 
BRANCH   5  23
HETATM   23  C   UNK     0      -2.621  -5.801  12.647  0.00  0.00     0.084 C 
HETATM   24  C   UNK     0      -3.987  -6.475  12.852  0.00  0.00     0.049 C 
BRANCH  23  25
HETATM   25  O   UNK     0      -1.943  -5.812  13.911  0.00  0.00    -0.387 OA
HETATM   26  H   UNK     0      -1.221  -6.461  13.875  0.00  0.00     0.210 HD
ENDBRANCH  23  25
BRANCH  23  27
HETATM   27  C   UNK     0      -2.799  -4.322  12.207  0.00  0.00     0.152 C 
BRANCH  27  28
HETATM   28  O   UNK     0      -2.013  -3.473  13.049  0.00  0.00    -0.393 OA
HETATM   29  H   UNK     0      -1.777  -3.986  13.840  0.00  0.00     0.210 HD
ENDBRANCH  27  28
BRANCH  27  30
HETATM   30  C   UNK     0      -4.257  -3.824  12.240  0.00  0.00     0.037 C 
BRANCH  30  31
HETATM   31  C   UNK     0      -4.717  -3.294  10.870  0.00  0.00     0.040 C 
BRANCH  31  32
HETATM   32  C   UNK     0      -6.234  -3.414  10.614  0.00  0.00     0.051 C 
HETATM   33  C   UNK     0      -6.688  -4.853  10.883  0.00  0.00     0.045 C 
HETATM   34  C   UNK     0      -7.052  -2.442  11.469  0.00  0.00     0.045 C 
BRANCH  32  35
HETATM   35  O   UNK     0      -6.483  -3.125   9.237  0.00  0.00    -0.391 OA
HETATM   36  H   UNK     0      -7.392  -3.395   9.023  0.00  0.00     0.210 HD
ENDBRANCH  32  35
ENDBRANCH  31  32
ENDBRANCH  30  31
ENDBRANCH  27  30
ENDBRANCH  23  27
ENDBRANCH   5  23
BRANCH  10  37
HETATM   37  O   UNK     0      -2.446  -4.857   7.051  0.00  0.00    -0.395 OA
HETATM   38  H   UNK     0      -3.126  -4.830   6.357  0.00  0.00     0.210 HD
ENDBRANCH  10  37
BRANCH  19  39
HETATM   39  O   UNK     0       1.213  -8.614   3.864  0.00  0.00    -0.393 OA
HETATM   40  H   UNK     0       1.741  -9.241   4.386  0.00  0.00     0.210 HD
ENDBRANCH  19  39
BRANCH  20  41
HETATM   41  O   UNK     0      -1.420  -8.124   2.807  0.00  0.00    -0.393 OA
HETATM   42  H   UNK     0      -2.212  -8.551   3.173  0.00  0.00     0.210 HD
ENDBRANCH  20  41
ENDBRANCH   1   3
TORSDOF 12
ENDMDL
MODEL 5
REMARK VINA RESULT:      -4.1     10.356     13.102
REMARK  12 active torsions:
REMARK  status: ('A' for Active; 'I' for Inactive)
REMARK    1  A    between atoms: O_1  and  C_10 
REMARK    2  A    between atoms: O_2  and  C_17 
REMARK    3  A    between atoms: O_3  and  C_20 
REMARK    4  A    between atoms: O_4  and  C_27 
REMARK    5  A    between atoms: O_6  and  C_29 
REMARK    6  A    between atoms: O_7  and  C_28 
REMARK    7  A    between atoms: O_8  and  C_33 
REMARK    8  A    between atoms: C_11  and  C_20 
REMARK    9  A    between atoms: C_20  and  C_28 
REMARK   10  A    between atoms: C_28  and  C_31 
REMARK   11  A    between atoms: C_31  and  C_32 
REMARK   12  A    between atoms: C_32  and  C_33 
ROOT
HETATM    1  O   UNK     0       1.132   1.811   8.856  0.00  0.00    -0.384 OA
HETATM    2  H   UNK     0       0.388   1.561   8.290  0.00  0.00     0.211 HD
ENDROOT
BRANCH   1   3
HETATM    3  C   UNK     0       1.610   3.138   8.535  0.00  0.00     0.090 C 
HETATM    4  C   UNK     0       0.811   3.702   7.332  0.00  0.00    -0.000 C 
HETATM    5  C   UNK     0       1.227   2.707   6.217  0.00  0.00     0.034 C 
HETATM    6  C   UNK     0      -0.684   3.664   7.677  0.00  0.00     0.045 C 
HETATM    7  C   UNK     0       1.221   5.153   6.957  0.00  0.00     0.019 C 
HETATM    8  C   UNK     0       2.732   2.466   6.482  0.00  0.00     0.012 C 
HETATM    9  C   UNK     0       3.005   2.933   7.929  0.00  0.00     0.044 C 
HETATM   10  C   UNK     0      -0.990   4.473   8.954  0.00  0.00     0.128 C 
HETATM   11  C   UNK     0      -0.100   4.095  10.196  0.00  0.00     0.055 C 
HETATM   12  C   UNK     0      -0.336   5.028  11.465  0.00  0.00    -0.021 C 
HETATM   13  C   UNK     0       1.381   3.970   9.780  0.00  0.00    -0.034 C 
HETATM   14  C   UNK     0       0.850   4.890  12.464  0.00  0.00     0.071 C 
HETATM   15  C   UNK     0      -1.685   4.679  12.194  0.00  0.00     0.045 C 
HETATM   16  C   UNK     0      -0.416   6.521  11.039  0.00  0.00     0.017 C 
HETATM   17  C   UNK     0       0.928   3.544  13.207  0.00  0.00     0.047 C 
HETATM   18  C   UNK     0       2.175   5.142  11.775  0.00  0.00     0.154 C 
HETATM   19  C   UNK     0      -0.429   2.887  13.434  0.00  0.00     0.147 C 
HETATM   20  C   UNK     0      -1.550   3.914  13.515  0.00  0.00     0.147 C 
HETATM   21  O   UNK     0       3.074   5.789  12.308  0.00  0.00    -0.293 OA
HETATM   22  C   UNK     0       2.404   4.501  10.466  0.00  0.00     0.057 C 
BRANCH   5  23
HETATM   23  C   UNK     0       0.940   3.131   4.784  0.00  0.00     0.084 C 
HETATM   24  C   UNK     0       1.371   4.592   4.576  0.00  0.00     0.049 C 
BRANCH  23  25
HETATM   25  O   UNK     0       1.731   2.322   3.904  0.00  0.00    -0.387 OA
HETATM   26  H   UNK     0       2.412   1.863   4.425  0.00  0.00     0.210 HD
ENDBRANCH  23  25
BRANCH  23  27
HETATM   27  C   UNK     0      -0.554   2.941   4.403  0.00  0.00     0.152 C 
BRANCH  27  28
HETATM   28  O   UNK     0      -0.737   1.651   3.810  0.00  0.00    -0.393 OA
HETATM   29  H   UNK     0      -0.153   1.603   3.034  0.00  0.00     0.210 HD
ENDBRANCH  27  28
BRANCH  27  30
HETATM   30  C   UNK     0      -1.100   4.004   3.430  0.00  0.00     0.037 C 
BRANCH  30  31
HETATM   31  C   UNK     0      -2.523   3.670   2.949  0.00  0.00     0.040 C 
BRANCH  31  32
HETATM   32  C   UNK     0      -2.624   3.302   1.454  0.00  0.00     0.051 C 
HETATM   33  C   UNK     0      -4.096   3.294   1.025  0.00  0.00     0.045 C 
HETATM   34  C   UNK     0      -1.827   4.257   0.561  0.00  0.00     0.045 C 
BRANCH  32  35
HETATM   35  O   UNK     0      -2.108   1.982   1.278  0.00  0.00    -0.391 OA
HETATM   36  H   UNK     0      -2.352   1.448   2.053  0.00  0.00     0.210 HD
ENDBRANCH  32  35
ENDBRANCH  31  32
ENDBRANCH  30  31
ENDBRANCH  27  30
ENDBRANCH  23  27
ENDBRANCH   5  23
BRANCH  10  37
HETATM   37  O   UNK     0      -2.370   4.285   9.250  0.00  0.00    -0.395 OA
HETATM   38  H   UNK     0      -2.861   5.027   8.858  0.00  0.00     0.210 HD
ENDBRANCH  10  37
BRANCH  19  39
HETATM   39  O   UNK     0      -0.371   2.119  14.633  0.00  0.00    -0.393 OA
HETATM   40  H   UNK     0      -0.611   2.697  15.377  0.00  0.00     0.210 HD
ENDBRANCH  19  39
BRANCH  20  41
HETATM   41  O   UNK     0      -1.297   4.845  14.568  0.00  0.00    -0.393 OA
HETATM   42  H   UNK     0      -1.401   5.739  14.201  0.00  0.00     0.210 HD
ENDBRANCH  20  41
ENDBRANCH   1   3
TORSDOF 12
ENDMDL
MODEL 6
REMARK VINA RESULT:      -4.1      1.536      2.418
REMARK  12 active torsions:
REMARK  status: ('A' for Active; 'I' for Inactive)
REMARK    1  A    between atoms: O_1  and  C_10 
REMARK    2  A    between atoms: O_2  and  C_17 
REMARK    3  A    between atoms: O_3  and  C_20 
REMARK    4  A    between atoms: O_4  and  C_27 
REMARK    5  A    between atoms: O_6  and  C_29 
REMARK    6  A    between atoms: O_7  and  C_28 
REMARK    7  A    between atoms: O_8  and  C_33 
REMARK    8  A    between atoms: C_11  and  C_20 
REMARK    9  A    between atoms: C_20  and  C_28 
REMARK   10  A    between atoms: C_28  and  C_31 
REMARK   11  A    between atoms: C_31  and  C_32 
REMARK   12  A    between atoms: C_32  and  C_33 
ROOT
HETATM    1  O   UNK     0      -1.965  -7.264  10.045  0.00  0.00    -0.384 OA
HETATM    2  H   UNK     0      -1.577  -6.377  10.066  0.00  0.00     0.211 HD
ENDROOT
BRANCH   1   3
HETATM    3  C   UNK     0      -3.197  -7.279   9.289  0.00  0.00     0.090 C 
HETATM    4  C   UNK     0      -3.652  -5.823   9.008  0.00  0.00    -0.000 C 
HETATM    5  C   UNK     0      -3.925  -5.322  10.450  0.00  0.00     0.034 C 
HETATM    6  C   UNK     0      -2.512  -5.084   8.294  0.00  0.00     0.045 C 
HETATM    7  C   UNK     0      -4.942  -5.745   8.145  0.00  0.00     0.019 C 
HETATM    8  C   UNK     0      -4.590  -6.535  11.141  0.00  0.00     0.012 C 
HETATM    9  C   UNK     0      -4.273  -7.769  10.269  0.00  0.00     0.044 C 
HETATM   10  C   UNK     0      -2.118  -5.788   6.980  0.00  0.00     0.128 C 
HETATM   11  C   UNK     0      -1.807  -7.324   7.130  0.00  0.00     0.055 C 
HETATM   12  C   UNK     0      -1.531  -8.063   5.746  0.00  0.00    -0.021 C 
HETATM   13  C   UNK     0      -2.881  -8.010   8.000  0.00  0.00    -0.034 C 
HETATM   14  C   UNK     0      -1.671  -9.603   5.921  0.00  0.00     0.071 C 
HETATM   15  C   UNK     0      -0.101  -7.722   5.186  0.00  0.00     0.045 C 
HETATM   16  C   UNK     0      -2.564  -7.619   4.673  0.00  0.00     0.017 C 
HETATM   17  C   UNK     0      -0.555 -10.275   6.741  0.00  0.00     0.047 C 
HETATM   18  C   UNK     0      -3.008  -9.963   6.534  0.00  0.00     0.154 C 
HETATM   19  C   UNK     0       0.794  -9.571   6.637  0.00  0.00     0.147 C 
HETATM   20  C   UNK     0       0.948  -8.831   5.315  0.00  0.00     0.147 C 
HETATM   21  O   UNK     0      -3.665 -10.928   6.146  0.00  0.00    -0.293 OA
HETATM   22  C   UNK     0      -3.468  -9.175   7.693  0.00  0.00     0.057 C 
BRANCH   5  23
HETATM   23  C   UNK     0      -4.741  -4.044  10.584  0.00  0.00     0.084 C 
HETATM   24  C   UNK     0      -4.652  -3.517  12.026  0.00  0.00     0.049 C 
BRANCH  23  25
HETATM   25  O   UNK     0      -4.166  -3.048   9.728  0.00  0.00    -0.387 OA
HETATM   26  H   UNK     0      -3.223  -3.246   9.603  0.00  0.00     0.210 HD
ENDBRANCH  23  25
BRANCH  23  27
HETATM   27  C   UNK     0      -6.222  -4.246  10.165  0.00  0.00     0.152 C 
BRANCH  27  28
HETATM   28  O   UNK     0      -6.625  -3.179   9.299  0.00  0.00    -0.393 OA
HETATM   29  H   UNK     0      -6.690  -2.374   9.840  0.00  0.00     0.210 HD
ENDBRANCH  27  28
BRANCH  27  30
HETATM   30  C   UNK     0      -7.211  -4.312  11.345  0.00  0.00     0.037 C 
BRANCH  30  31
HETATM   31  C   UNK     0      -8.479  -3.480  11.083  0.00  0.00     0.040 C 
BRANCH  31  32
HETATM   32  C   UNK     0      -8.584  -2.191  11.925  0.00  0.00     0.051 C 
HETATM   33  C   UNK     0     -10.056  -1.787  12.064  0.00  0.00     0.045 C 
HETATM   34  C   UNK     0      -7.953  -2.342  13.311  0.00  0.00     0.045 C 
BRANCH  32  35
HETATM   35  O   UNK     0      -7.905  -1.143  11.231  0.00  0.00    -0.391 OA
HETATM   36  H   UNK     0      -6.974  -1.397  11.118  0.00  0.00     0.210 HD
ENDBRANCH  32  35
ENDBRANCH  31  32
ENDBRANCH  30  31
ENDBRANCH  27  30
ENDBRANCH  23  27
ENDBRANCH   5  23
BRANCH  10  37
HETATM   37  O   UNK     0      -0.988  -5.097   6.455  0.00  0.00    -0.395 OA
HETATM   38  H   UNK     0      -0.236  -5.713   6.457  0.00  0.00     0.210 HD
ENDBRANCH  10  37
BRANCH  19  39
HETATM   39  O   UNK     0       1.829 -10.538   6.788  0.00  0.00    -0.393 OA
HETATM   40  H   UNK     0       1.896 -10.768   7.730  0.00  0.00     0.210 HD
ENDBRANCH  19  39
BRANCH  20  41
HETATM   41  O   UNK     0       0.805  -9.736   4.219  0.00  0.00    -0.393 OA
HETATM   42  H   UNK     0       1.385  -9.426   3.504  0.00  0.00     0.210 HD
ENDBRANCH  20  41
ENDBRANCH   1   3
TORSDOF 12
ENDMDL
MODEL 7
REMARK VINA RESULT:      -4.1      2.164      8.888
REMARK  12 active torsions:
REMARK  status: ('A' for Active; 'I' for Inactive)
REMARK    1  A    between atoms: O_1  and  C_10 
REMARK    2  A    between atoms: O_2  and  C_17 
REMARK    3  A    between atoms: O_3  and  C_20 
REMARK    4  A    between atoms: O_4  and  C_27 
REMARK    5  A    between atoms: O_6  and  C_29 
REMARK    6  A    between atoms: O_7  and  C_28 
REMARK    7  A    between atoms: O_8  and  C_33 
REMARK    8  A    between atoms: C_11  and  C_20 
REMARK    9  A    between atoms: C_20  and  C_28 
REMARK   10  A    between atoms: C_28  and  C_31 
REMARK   11  A    between atoms: C_31  and  C_32 
REMARK   12  A    between atoms: C_32  and  C_33 
ROOT
HETATM    1  O   UNK     0      -4.857  -5.666   6.907  0.00  0.00    -0.384 OA
HETATM    2  H   UNK     0      -5.764  -5.326   6.932  0.00  0.00     0.211 HD
ENDROOT
BRANCH   1   3
HETATM    3  C   UNK     0      -4.756  -6.937   7.589  0.00  0.00     0.090 C 
HETATM    4  C   UNK     0      -3.299  -7.460   7.500  0.00  0.00    -0.000 C 
HETATM    5  C   UNK     0      -3.160  -7.669   5.969  0.00  0.00     0.034 C 
HETATM    6  C   UNK     0      -2.360  -6.390   8.072  0.00  0.00     0.045 C 
HETATM    7  C   UNK     0      -3.086  -8.798   8.261  0.00  0.00     0.019 C 
HETATM    8  C   UNK     0      -4.531  -8.250   5.552  0.00  0.00     0.012 C 
HETATM    9  C   UNK     0      -5.513  -7.936   6.703  0.00  0.00     0.044 C 
HETATM   10  C   UNK     0      -2.720  -6.044   9.531  0.00  0.00     0.128 C 
HETATM   11  C   UNK     0      -4.231  -5.669   9.760  0.00  0.00     0.055 C 
HETATM   12  C   UNK     0      -4.615  -5.444  11.289  0.00  0.00    -0.021 C 
HETATM   13  C   UNK     0      -5.152  -6.666   9.027  0.00  0.00    -0.034 C 
HETATM   14  C   UNK     0      -6.158  -5.517  11.474  0.00  0.00     0.071 C 
HETATM   15  C   UNK     0      -4.083  -4.061  11.820  0.00  0.00     0.045 C 
HETATM   16  C   UNK     0      -3.984  -6.551  12.180  0.00  0.00     0.017 C 
HETATM   17  C   UNK     0      -6.947  -4.333  10.886  0.00  0.00     0.047 C 
HETATM   18  C   UNK     0      -6.716  -6.804  10.902  0.00  0.00     0.154 C 
HETATM   19  C   UNK     0      -6.173  -3.019  10.885  0.00  0.00     0.147 C 
HETATM   20  C   UNK     0      -5.140  -2.967  12.002  0.00  0.00     0.147 C 
HETATM   21  O   UNK     0      -7.595  -7.445  11.474  0.00  0.00    -0.293 OA
HETATM   22  C   UNK     0      -6.242  -7.227   9.570  0.00  0.00     0.057 C 
BRANCH   5  23
HETATM   23  C   UNK     0      -1.990  -8.523   5.502  0.00  0.00     0.084 C 
HETATM   24  C   UNK     0      -2.359 -10.012   5.596  0.00  0.00     0.049 C 
BRANCH  23  25
HETATM   25  O   UNK     0      -1.738  -8.230   4.121  0.00  0.00    -0.387 OA
HETATM   26  H   UNK     0      -1.648  -7.269   4.014  0.00  0.00     0.210 HD
ENDBRANCH  23  25
BRANCH  23  27
HETATM   27  C   UNK     0      -0.692  -8.229   6.303  0.00  0.00     0.152 C 
BRANCH  27  28
HETATM   28  O   UNK     0       0.049  -7.192   5.651  0.00  0.00    -0.393 OA
HETATM   29  H   UNK     0      -0.122  -6.365   6.133  0.00  0.00     0.210 HD
ENDBRANCH  27  28
BRANCH  27  30
HETATM   30  C   UNK     0       0.233  -9.448   6.479  0.00  0.00     0.037 C 
BRANCH  30  31
HETATM   31  C   UNK     0       1.379  -9.457   5.452  0.00  0.00     0.040 C 
BRANCH  31  32
HETATM   32  C   UNK     0       2.785  -9.265   6.059  0.00  0.00     0.051 C 
HETATM   33  C   UNK     0       2.904 -10.085   7.348  0.00  0.00     0.045 C 
HETATM   34  C   UNK     0       3.902  -9.658   5.087  0.00  0.00     0.045 C 
BRANCH  32  35
HETATM   35  O   UNK     0       2.945  -7.887   6.399  0.00  0.00    -0.391 OA
HETATM   36  H   UNK     0       3.387  -7.829   7.263  0.00  0.00     0.210 HD
ENDBRANCH  32  35
ENDBRANCH  31  32
ENDBRANCH  30  31
ENDBRANCH  27  30
ENDBRANCH  23  27
ENDBRANCH   5  23
BRANCH  10  37
HETATM   37  O   UNK     0      -1.871  -4.972   9.931  0.00  0.00    -0.395 OA
HETATM   38  H   UNK     0      -1.214  -4.836   9.228  0.00  0.00     0.210 HD
ENDBRANCH  10  37
BRANCH  19  39
HETATM   39  O   UNK     0      -7.097  -1.943  11.012  0.00  0.00    -0.393 OA
HETATM   40  H   UNK     0      -7.969  -2.252  10.713  0.00  0.00     0.210 HD
ENDBRANCH  19  39
BRANCH  20  41
HETATM   41  O   UNK     0      -5.772  -3.138  13.272  0.00  0.00    -0.393 OA
HETATM   42  H   UNK     0      -6.340  -3.924  13.214  0.00  0.00     0.210 HD
ENDBRANCH  20  41
ENDBRANCH   1   3
TORSDOF 12
ENDMDL
MODEL 8
REMARK VINA RESULT:      -4.0      2.313      8.014
REMARK  12 active torsions:
REMARK  status: ('A' for Active; 'I' for Inactive)
REMARK    1  A    between atoms: O_1  and  C_10 
REMARK    2  A    between atoms: O_2  and  C_17 
REMARK    3  A    between atoms: O_3  and  C_20 
REMARK    4  A    between atoms: O_4  and  C_27 
REMARK    5  A    between atoms: O_6  and  C_29 
REMARK    6  A    between atoms: O_7  and  C_28 
REMARK    7  A    between atoms: O_8  and  C_33 
REMARK    8  A    between atoms: C_11  and  C_20 
REMARK    9  A    between atoms: C_20  and  C_28 
REMARK   10  A    between atoms: C_28  and  C_31 
REMARK   11  A    between atoms: C_31  and  C_32 
REMARK   12  A    between atoms: C_32  and  C_33 
ROOT
HETATM    1  O   UNK     0      -5.559  -6.037   6.407  0.00  0.00    -0.384 OA
HETATM    2  H   UNK     0      -6.181  -5.540   6.958  0.00  0.00     0.211 HD
ENDROOT
BRANCH   1   3
HETATM    3  C   UNK     0      -5.142  -7.258   7.060  0.00  0.00     0.090 C 
HETATM    4  C   UNK     0      -3.780  -7.718   6.479  0.00  0.00    -0.000 C 
HETATM    5  C   UNK     0      -4.177  -8.014   5.009  0.00  0.00     0.034 C 
HETATM    6  C   UNK     0      -2.770  -6.572   6.635  0.00  0.00     0.045 C 
HETATM    7  C   UNK     0      -3.226  -8.996   7.169  0.00  0.00     0.019 C 
HETATM    8  C   UNK     0      -5.566  -8.682   5.132  0.00  0.00     0.012 C 
HETATM    9  C   UNK     0      -6.096  -8.344   6.543  0.00  0.00     0.044 C 
HETATM   10  C   UNK     0      -2.613  -6.155   8.111  0.00  0.00     0.128 C 
HETATM   11  C   UNK     0      -3.967  -5.836   8.847  0.00  0.00     0.055 C 
HETATM   12  C   UNK     0      -3.800  -5.535  10.402  0.00  0.00    -0.021 C 
HETATM   13  C   UNK     0      -5.021  -6.918   8.531  0.00  0.00    -0.034 C 
HETATM   14  C   UNK     0      -5.171  -5.668  11.128  0.00  0.00     0.071 C 
HETATM   15  C   UNK     0      -3.207  -4.100  10.651  0.00  0.00     0.045 C 
HETATM   16  C   UNK     0      -2.826  -6.556  11.055  0.00  0.00     0.017 C 
HETATM   17  C   UNK     0      -6.191  -4.560  10.811  0.00  0.00     0.047 C 
HETATM   18  C   UNK     0      -5.810  -7.012  10.845  0.00  0.00     0.154 C 
HETATM   19  C   UNK     0      -5.554  -3.214  10.480  0.00  0.00     0.147 C 
HETATM   20  C   UNK     0      -4.199  -3.046  11.153  0.00  0.00     0.147 C 
HETATM   21  O   UNK     0      -6.386  -7.656  11.718  0.00  0.00    -0.293 OA
HETATM   22  C   UNK     0      -5.810  -7.493   9.450  0.00  0.00     0.057 C 
BRANCH   5  23
HETATM   23  C   UNK     0      -3.194  -8.840   4.191  0.00  0.00     0.084 C 
HETATM   24  C   UNK     0      -2.013  -7.960   3.752  0.00  0.00     0.049 C 
BRANCH  23  25
HETATM   25  O   UNK     0      -2.666  -9.877   5.029  0.00  0.00    -0.387 OA
HETATM   26  H   UNK     0      -2.651 -10.709   4.529  0.00  0.00     0.210 HD
ENDBRANCH  23  25
BRANCH  23  27
HETATM   27  C   UNK     0      -3.868  -9.507   2.962  0.00  0.00     0.152 C 
BRANCH  27  28
HETATM   28  O   UNK     0      -3.108 -10.652   2.561  0.00  0.00    -0.393 OA
HETATM   29  H   UNK     0      -3.061 -10.645   1.590  0.00  0.00     0.210 HD
ENDBRANCH  27  28
BRANCH  27  30
HETATM   30  C   UNK     0      -4.022  -8.577   1.743  0.00  0.00     0.037 C 
BRANCH  30  31
HETATM   31  C   UNK     0      -5.471  -8.087   1.570  0.00  0.00     0.040 C 
BRANCH  31  32
HETATM   32  C   UNK     0      -5.651  -6.560   1.703  0.00  0.00     0.051 C 
HETATM   33  C   UNK     0      -6.004  -5.964   0.337  0.00  0.00     0.045 C 
HETATM   34  C   UNK     0      -6.724  -6.183   2.729  0.00  0.00     0.045 C 
BRANCH  32  35
HETATM   35  O   UNK     0      -4.408  -5.995   2.121  0.00  0.00    -0.391 OA
HETATM   36  H   UNK     0      -3.846  -5.868   1.338  0.00  0.00     0.210 HD
ENDBRANCH  32  35
ENDBRANCH  31  32
ENDBRANCH  30  31
ENDBRANCH  27  30
ENDBRANCH  23  27
ENDBRANCH   5  23
BRANCH  10  37
HETATM   37  O   UNK     0      -1.749  -5.022   8.138  0.00  0.00    -0.395 OA
HETATM   38  H   UNK     0      -2.303  -4.230   8.246  0.00  0.00     0.210 HD
ENDBRANCH  10  37
BRANCH  19  39
HETATM   39  O   UNK     0      -6.442  -2.176  10.883  0.00  0.00    -0.393 OA
HETATM   40  H   UNK     0      -6.147  -1.840  11.746  0.00  0.00     0.210 HD
ENDBRANCH  19  39
BRANCH  20  41
HETATM   41  O   UNK     0      -4.330  -3.167  12.570  0.00  0.00    -0.393 OA
HETATM   42  H   UNK     0      -3.620  -3.754  12.882  0.00  0.00     0.210 HD
ENDBRANCH  20  41
ENDBRANCH   1   3
TORSDOF 12
ENDMDL
MODEL 9
REMARK VINA RESULT:      -4.0      3.100      5.251
REMARK  12 active torsions:
REMARK  status: ('A' for Active; 'I' for Inactive)
REMARK    1  A    between atoms: O_1  and  C_10 
REMARK    2  A    between atoms: O_2  and  C_17 
REMARK    3  A    between atoms: O_3  and  C_20 
REMARK    4  A    between atoms: O_4  and  C_27 
REMARK    5  A    between atoms: O_6  and  C_29 
REMARK    6  A    between atoms: O_7  and  C_28 
REMARK    7  A    between atoms: O_8  and  C_33 
REMARK    8  A    between atoms: C_11  and  C_20 
REMARK    9  A    between atoms: C_20  and  C_28 
REMARK   10  A    between atoms: C_28  and  C_31 
REMARK   11  A    between atoms: C_31  and  C_32 
REMARK   12  A    between atoms: C_32  and  C_33 
ROOT
HETATM    1  O   UNK     0      -0.352  -7.020   9.884  0.00  0.00    -0.384 OA
HETATM    2  H   UNK     0       0.243  -7.780   9.960  0.00  0.00     0.211 HD
ENDROOT
BRANCH   1   3
HETATM    3  C   UNK     0      -1.736  -7.428   9.980  0.00  0.00     0.090 C 
HETATM    4  C   UNK     0      -2.616  -6.202  10.332  0.00  0.00    -0.000 C 
HETATM    5  C   UNK     0      -2.071  -5.849  11.741  0.00  0.00     0.034 C 
HETATM    6  C   UNK     0      -2.379  -5.111   9.279  0.00  0.00     0.045 C 
HETATM    7  C   UNK     0      -4.132  -6.540  10.397  0.00  0.00     0.019 C 
HETATM    8  C   UNK     0      -1.846  -7.227  12.404  0.00  0.00     0.012 C 
HETATM    9  C   UNK     0      -1.825  -8.268  11.263  0.00  0.00     0.044 C 
HETATM   10  C   UNK     0      -2.703  -5.618   7.859  0.00  0.00     0.128 C 
HETATM   11  C   UNK     0      -1.990  -6.965   7.467  0.00  0.00     0.055 C 
HETATM   12  C   UNK     0      -2.438  -7.543   6.052  0.00  0.00    -0.021 C 
HETATM   13  C   UNK     0      -2.097  -7.987   8.619  0.00  0.00    -0.034 C 
HETATM   14  C   UNK     0      -2.048  -9.045   5.935  0.00  0.00     0.071 C 
HETATM   15  C   UNK     0      -1.788  -6.735   4.868  0.00  0.00     0.045 C 
HETATM   16  C   UNK     0      -3.980  -7.446   5.883  0.00  0.00     0.017 C 
HETATM   17  C   UNK     0      -0.539  -9.324   5.806  0.00  0.00     0.047 C 
HETATM   18  C   UNK     0      -2.591  -9.842   7.103  0.00  0.00     0.154 C 
HETATM   19  C   UNK     0       0.235  -8.210   5.109  0.00  0.00     0.147 C 
HETATM   20  C   UNK     0      -0.640  -7.435   4.134  0.00  0.00     0.147 C 
HETATM   21  O   UNK     0      -3.077 -10.961   6.959  0.00  0.00    -0.293 OA
HETATM   22  C   UNK     0      -2.431  -9.275   8.456  0.00  0.00     0.057 C 
BRANCH   5  23
HETATM   23  C   UNK     0      -2.926  -4.917  12.589  0.00  0.00     0.084 C 
HETATM   24  C   UNK     0      -3.543  -3.824  11.701  0.00  0.00     0.049 C 
BRANCH  23  25
HETATM   25  O   UNK     0      -4.007  -5.677  13.146  0.00  0.00    -0.387 OA
HETATM   26  H   UNK     0      -4.438  -5.150  13.838  0.00  0.00     0.210 HD
ENDBRANCH  23  25
BRANCH  23  27
HETATM   27  C   UNK     0      -2.124  -4.286  13.759  0.00  0.00     0.152 C 
BRANCH  27  28
HETATM   28  O   UNK     0      -2.823  -3.140  14.256  0.00  0.00    -0.393 OA
HETATM   29  H   UNK     0      -3.620  -3.026  13.710  0.00  0.00     0.210 HD
ENDBRANCH  27  28
BRANCH  27  30
HETATM   30  C   UNK     0      -0.692  -3.856  13.385  0.00  0.00     0.037 C 
BRANCH  30  31
HETATM   31  C   UNK     0       0.308  -4.126  14.524  0.00  0.00     0.040 C 
BRANCH  31  32
HETATM   32  C   UNK     0       1.670  -4.683  14.061  0.00  0.00     0.051 C 
HETATM   33  C   UNK     0       2.690  -4.556  15.198  0.00  0.00     0.045 C 
HETATM   34  C   UNK     0       1.582  -6.141  13.602  0.00  0.00     0.045 C 
BRANCH  32  35
HETATM   35  O   UNK     0       2.132  -3.892  12.965  0.00  0.00    -0.391 OA
HETATM   36  H   UNK     0       1.604  -4.111  12.179  0.00  0.00     0.210 HD
ENDBRANCH  32  35
ENDBRANCH  31  32
ENDBRANCH  30  31
ENDBRANCH  27  30
ENDBRANCH  23  27
ENDBRANCH   5  23
BRANCH  10  37
HETATM   37  O   UNK     0      -2.347  -4.580   6.950  0.00  0.00    -0.395 OA
HETATM   38  H   UNK     0      -1.524  -4.845   6.506  0.00  0.00     0.210 HD
ENDBRANCH  10  37
BRANCH  19  39
HETATM   39  O   UNK     0       1.350  -8.781   4.432  0.00  0.00    -0.393 OA
HETATM   40  H   UNK     0       1.776  -8.085   3.904  0.00  0.00     0.210 HD
ENDBRANCH  19  39
BRANCH  20  41
HETATM   41  O   UNK     0      -1.186  -8.314   3.149  0.00  0.00    -0.393 OA
HETATM   42  H   UNK     0      -0.442  -8.713   2.666  0.00  0.00     0.210 HD
ENDBRANCH  20  41
ENDBRANCH   1   3
TORSDOF 12
ENDMDL
MODEL 10
REMARK VINA RESULT:      -4.0     10.561     13.048
REMARK  12 active torsions:
REMARK  status: ('A' for Active; 'I' for Inactive)
REMARK    1  A    between atoms: O_1  and  C_10 
REMARK    2  A    between atoms: O_2  and  C_17 
REMARK    3  A    between atoms: O_3  and  C_20 
REMARK    4  A    between atoms: O_4  and  C_27 
REMARK    5  A    between atoms: O_6  and  C_29 
REMARK    6  A    between atoms: O_7  and  C_28 
REMARK    7  A    between atoms: O_8  and  C_33 
REMARK    8  A    between atoms: C_11  and  C_20 
REMARK    9  A    between atoms: C_20  and  C_28 
REMARK   10  A    between atoms: C_28  and  C_31 
REMARK   11  A    between atoms: C_31  and  C_32 
REMARK   12  A    between atoms: C_32  and  C_33 
ROOT
HETATM    1  O   UNK     0       3.088   1.911   6.631  0.00  0.00    -0.384 OA
HETATM    2  H   UNK     0       3.912   1.916   6.124  0.00  0.00     0.211 HD
ENDROOT
BRANCH   1   3
HETATM    3  C   UNK     0       2.531   3.242   6.736  0.00  0.00     0.090 C 
HETATM    4  C   UNK     0       1.013   3.148   7.037  0.00  0.00    -0.000 C 
HETATM    5  C   UNK     0       0.503   2.463   5.742  0.00  0.00     0.034 C 
HETATM    6  C   UNK     0       0.818   2.308   8.307  0.00  0.00     0.045 C 
HETATM    7  C   UNK     0       0.344   4.538   7.226  0.00  0.00     0.019 C 
HETATM    8  C   UNK     0       1.330   3.134   4.621  0.00  0.00     0.012 C 
HETATM    9  C   UNK     0       2.542   3.802   5.307  0.00  0.00     0.044 C 
HETATM   10  C   UNK     0       1.569   2.918   9.508  0.00  0.00     0.128 C 
HETATM   11  C   UNK     0       3.091   3.219   9.243  0.00  0.00     0.055 C 
HETATM   12  C   UNK     0       3.819   3.969  10.444  0.00  0.00    -0.021 C 
HETATM   13  C   UNK     0       3.273   3.911   7.875  0.00  0.00    -0.034 C 
HETATM   14  C   UNK     0       5.149   4.611   9.953  0.00  0.00     0.071 C 
HETATM   15  C   UNK     0       4.114   2.989  11.640  0.00  0.00     0.045 C 
HETATM   16  C   UNK     0       2.924   5.113  10.998  0.00  0.00     0.017 C 
HETATM   17  C   UNK     0       6.274   3.615   9.618  0.00  0.00     0.047 C 
HETATM   18  C   UNK     0       4.913   5.501   8.750  0.00  0.00     0.154 C 
HETATM   19  C   UNK     0       6.227   2.334  10.442  0.00  0.00     0.147 C 
HETATM   20  C   UNK     0       5.575   2.555  11.800  0.00  0.00     0.147 C 
HETATM   21  O   UNK     0       5.476   6.586   8.621  0.00  0.00    -0.293 OA
HETATM   22  C   UNK     0       4.051   4.983   7.670  0.00  0.00     0.057 C 
BRANCH   5  23
HETATM   23  C   UNK     0      -0.997   2.521   5.487  0.00  0.00     0.084 C 
HETATM   24  C   UNK     0      -1.516   1.124   5.108  0.00  0.00     0.049 C 
BRANCH  23  25
HETATM   25  O   UNK     0      -1.649   2.905   6.704  0.00  0.00    -0.387 OA
HETATM   26  H   UNK     0      -2.586   2.655   6.652  0.00  0.00     0.210 HD
ENDBRANCH  23  25
BRANCH  23  27
HETATM   27  C   UNK     0      -1.366   3.558   4.392  0.00  0.00     0.152 C 
BRANCH  27  28
HETATM   28  O   UNK     0      -2.128   4.621   4.975  0.00  0.00    -0.393 OA
HETATM   29  H   UNK     0      -2.341   4.359   5.886  0.00  0.00     0.210 HD
ENDBRANCH  27  28
BRANCH  27  30
HETATM   30  C   UNK     0      -2.170   2.975   3.213  0.00  0.00     0.037 C 
BRANCH  30  31
HETATM   31  C   UNK     0      -2.239   3.949   2.023  0.00  0.00     0.040 C 
BRANCH  31  32
HETATM   32  C   UNK     0      -2.526   3.279   0.663  0.00  0.00     0.051 C 
HETATM   33  C   UNK     0      -4.017   3.404   0.334  0.00  0.00     0.045 C 
HETATM   34  C   UNK     0      -1.691   3.876  -0.473  0.00  0.00     0.045 C 
BRANCH  32  35
HETATM   35  O   UNK     0      -2.215   1.889   0.771  0.00  0.00    -0.391 OA
HETATM   36  H   UNK     0      -2.463   1.450  -0.060  0.00  0.00     0.210 HD
ENDBRANCH  32  35
ENDBRANCH  31  32
ENDBRANCH  30  31
ENDBRANCH  27  30
ENDBRANCH  23  27
ENDBRANCH   5  23
BRANCH  10  37
HETATM   37  O   UNK     0       1.420   2.015  10.600  0.00  0.00    -0.395 OA
HETATM   38  H   UNK     0       1.233   1.134  10.232  0.00  0.00     0.210 HD
ENDBRANCH  10  37
BRANCH  19  39
HETATM   39  O   UNK     0       7.554   1.843  10.602  0.00  0.00    -0.393 OA
HETATM   40  H   UNK     0       8.168   2.492  10.218  0.00  0.00     0.210 HD
ENDBRANCH  19  39
BRANCH  20  41
HETATM   41  O   UNK     0       6.280   3.559  12.532  0.00  0.00    -0.393 OA
HETATM   42  H   UNK     0       6.366   4.337  11.957  0.00  0.00     0.210 HD
ENDBRANCH  20  41
ENDBRANCH   1   3
TORSDOF 12
ENDMDL
