MODEL 1
REMARK VINA RESULT:      -9.0      0.000      0.000
REMARK  16 active torsions:
REMARK  status: ('A' for Active; 'I' for Inactive)
REMARK    1  A    between atoms: O_2  and  C_22 
REMARK    2  A    between atoms: O_2  and  C_26 
REMARK    3  A    between atoms: O_4  and  C_18 
REMARK    4  A    between atoms: O_5  and  C_19 
REMARK    5  A    between atoms: O_6  and  C_25 
REMARK    6  A    between atoms: O_6  and  C_29 
REMARK    7  A    between atoms: O_7  and  C_20 
REMARK    8  A    between atoms: O_8  and  C_21 
REMARK    9  A    between atoms: O_9  and  C_23 
REMARK   10  A    between atoms: O_10  and  C_24 
REMARK   11  A    between atoms: O_13  and  C_35 
REMARK   12  A    between atoms: O_14  and  C_40 
REMARK   13  A    between atoms: O_15  and  C_41 
REMARK   14  A    between atoms: O_16  and  C_43 
REMARK   15  A    between atoms: C_17  and  C_26 
REMARK   16  A    between atoms: C_30  and  C_33 
ROOT
HETATM    1  O   UNK     0     151.145 155.404 148.731  0.00  0.00    -0.348 OA
HETATM    2  C   UNK     0     150.929 156.622 148.016  0.00  0.00     0.180 C 
HETATM    3  C   UNK     0     149.578 157.224 148.408  0.00  0.00     0.180 C 
HETATM    4  C   UNK     0     148.448 156.221 148.174  0.00  0.00     0.183 C 
HETATM    5  C   UNK     0     148.778 154.862 148.792  0.00  0.00     0.205 C 
HETATM    6  C   UNK     0     150.184 154.402 148.406  0.00  0.00     0.298 C 
ENDROOT
BRANCH   2   7
HETATM    7  C   UNK     0     152.085 157.561 148.350  0.00  0.00     0.205 C 
BRANCH   7   8
HETATM    8  O   UNK     0     152.576 157.247 149.644  0.00  0.00    -0.356 OA
BRANCH   8   9
HETATM    9  C   UNK     0     152.571 158.390 150.494  0.00  0.00     0.291 C 
HETATM   10  O   UNK     0     153.757 159.178 150.355  0.00  0.00    -0.351 OA
HETATM   11  C   UNK     0     154.957 158.510 150.757  0.00  0.00     0.152 C 
HETATM   12  C   UNK     0     154.882 158.081 152.229  0.00  0.00     0.178 C 
HETATM   13  C   UNK     0     156.113 159.474 150.501  0.00  0.00     0.042 C 
HETATM   14  C   UNK     0     153.629 157.238 152.468  0.00  0.00     0.183 C 
HETATM   15  C   UNK     0     152.381 157.953 151.946  0.00  0.00     0.204 C 
BRANCH  12  16
HETATM   16  O   UNK     0     156.019 157.292 152.572  0.00  0.00    -0.390 OA
HETATM   17  H   UNK     0     156.544 157.157 151.765  0.00  0.00     0.210 HD
ENDBRANCH  12  16
BRANCH  14  18
HETATM   18  O   UNK     0     153.493 156.983 153.864  0.00  0.00    -0.390 OA
HETATM   19  H   UNK     0     154.224 156.399 154.131  0.00  0.00     0.210 HD
ENDBRANCH  14  18
BRANCH  15  20
HETATM   20  O   UNK     0     152.129 159.124 152.723  0.00  0.00    -0.388 OA
HETATM   21  H   UNK     0     151.614 158.867 153.508  0.00  0.00     0.210 HD
ENDBRANCH  15  20
ENDBRANCH   8   9
ENDBRANCH   7   8
ENDBRANCH   2   7
BRANCH   6  22
HETATM   22  O   UNK     0     150.470 153.207 149.131  0.00  0.00    -0.311 OA
BRANCH  22  23
HETATM   23  C   UNK     0     151.228 152.331 148.386  0.00  0.00     0.157 A 
HETATM   24  C   UNK     0     152.522 152.073 148.647  0.00  0.00     0.124 A 
HETATM   25  O   UNK     0     153.322 151.223 147.899  0.00  0.00    -0.306 OA
HETATM   26  C   UNK     0     152.764 150.577 146.825  0.00  0.00     0.096 A 
HETATM   27  C   UNK     0     151.434 150.748 146.450  0.00  0.00     0.084 A 
HETATM   28  C   UNK     0     153.591 149.721 146.097  0.00  0.00     0.075 A 
HETATM   29  C   UNK     0     150.584 151.659 147.232  0.00  0.00     0.223 A 
HETATM   30  C   UNK     0     150.919 150.064 145.344  0.00  0.00     0.085 A 
HETATM   31  O   UNK     0     149.410 151.852 146.946  0.00  0.00    -0.284 OA
HETATM   32  C   UNK     0     151.749 149.208 144.618  0.00  0.00     0.074 A 
HETATM   33  C   UNK     0     153.081 149.036 144.994  0.00  0.00     0.071 A 
BRANCH  24  34
HETATM   34  C   UNK     0     153.244 152.701 149.768  0.00  0.00     0.004 A 
HETATM   35  C   UNK     0     154.197 153.689 149.519  0.00  0.00     0.053 A 
HETATM   36  C   UNK     0     154.879 154.284 150.580  0.00  0.00     0.099 A 
HETATM   37  C   UNK     0     154.611 153.891 151.890  0.00  0.00     0.098 A 
HETATM   38  C   UNK     0     153.659 152.902 152.140  0.00  0.00     0.040 A 
HETATM   39  C   UNK     0     152.976 152.308 151.080  0.00  0.00     0.017 A 
BRANCH  36  40
HETATM   40  O   UNK     0     155.809 155.248 150.323  0.00  0.00    -0.358 OA
HETATM   41  H   UNK     0     155.680 155.594 149.425  0.00  0.00     0.217 HD
ENDBRANCH  36  40
BRANCH  37  42
HETATM   42  O   UNK     0     155.270 154.465 152.934  0.00  0.00    -0.358 OA
HETATM   43  H   UNK     0     155.793 153.794 153.400  0.00  0.00     0.217 HD
ENDBRANCH  37  42
ENDBRANCH  24  34
BRANCH  30  44
HETATM   44  O   UNK     0     149.628 150.195 144.935  0.00  0.00    -0.360 OA
HETATM   45  H   UNK     0     149.609 150.468 144.001  0.00  0.00     0.217 HD
ENDBRANCH  30  44
BRANCH  33  46
HETATM   46  O   UNK     0     153.886 148.201 144.282  0.00  0.00    -0.361 OA
HETATM   47  H   UNK     0     153.618 147.282 144.454  0.00  0.00     0.217 HD
ENDBRANCH  33  46
ENDBRANCH  22  23
ENDBRANCH   6  22
BRANCH   3  48
HETATM   48  O   UNK     0     149.339 158.393 147.628  0.00  0.00    -0.390 OA
HETATM   49  H   UNK     0     148.959 159.071 148.210  0.00  0.00     0.210 HD
ENDBRANCH   3  48
BRANCH   5  50
HETATM   50  O   UNK     0     147.844 153.889 148.325  0.00  0.00    -0.388 OA
HETATM   51  H   UNK     0     148.093 153.645 147.418  0.00  0.00     0.210 HD
ENDBRANCH   5  50
BRANCH   4  52
HETATM   52  O   UNK     0     147.262 156.743 148.777  0.00  0.00    -0.390 OA
HETATM   53  H   UNK     0     146.506 156.281 148.378  0.00  0.00     0.210 HD
ENDBRANCH   4  52
TORSDOF 16
ENDMDL
MODEL 2
REMARK VINA RESULT:      -8.9      2.134      8.500
REMARK  16 active torsions:
REMARK  status: ('A' for Active; 'I' for Inactive)
REMARK    1  A    between atoms: O_2  and  C_22 
REMARK    2  A    between atoms: O_2  and  C_26 
REMARK    3  A    between atoms: O_4  and  C_18 
REMARK    4  A    between atoms: O_5  and  C_19 
REMARK    5  A    between atoms: O_6  and  C_25 
REMARK    6  A    between atoms: O_6  and  C_29 
REMARK    7  A    between atoms: O_7  and  C_20 
REMARK    8  A    between atoms: O_8  and  C_21 
REMARK    9  A    between atoms: O_9  and  C_23 
REMARK   10  A    between atoms: O_10  and  C_24 
REMARK   11  A    between atoms: O_13  and  C_35 
REMARK   12  A    between atoms: O_14  and  C_40 
REMARK   13  A    between atoms: O_15  and  C_41 
REMARK   14  A    between atoms: O_16  and  C_43 
REMARK   15  A    between atoms: C_17  and  C_26 
REMARK   16  A    between atoms: C_30  and  C_33 
ROOT
HETATM    1  O   UNK     0     151.844 155.232 151.430  0.00  0.00    -0.348 OA
HETATM    2  C   UNK     0     152.578 154.007 151.368  0.00  0.00     0.180 C 
HETATM    3  C   UNK     0     153.165 153.680 152.743  0.00  0.00     0.180 C 
HETATM    4  C   UNK     0     154.029 154.834 153.252  0.00  0.00     0.183 C 
HETATM    5  C   UNK     0     153.292 156.168 153.142  0.00  0.00     0.205 C 
HETATM    6  C   UNK     0     152.671 156.347 151.756  0.00  0.00     0.298 C 
ENDROOT
BRANCH   2   7
HETATM    7  C   UNK     0     151.618 152.922 150.890  0.00  0.00     0.205 C 
BRANCH   7   8
HETATM    8  O   UNK     0     152.208 152.229 149.801  0.00  0.00    -0.356 OA
BRANCH   8   9
HETATM    9  C   UNK     0     152.072 152.958 148.585  0.00  0.00     0.291 C 
HETATM   10  O   UNK     0     150.982 152.487 147.786  0.00  0.00    -0.351 OA
HETATM   11  C   UNK     0     151.135 151.144 147.316  0.00  0.00     0.152 C 
HETATM   12  C   UNK     0     152.403 151.001 146.462  0.00  0.00     0.178 C 
HETATM   13  C   UNK     0     149.874 150.800 146.529  0.00  0.00     0.042 C 
HETATM   14  C   UNK     0     153.621 151.496 147.242  0.00  0.00     0.183 C 
HETATM   15  C   UNK     0     153.381 152.900 147.799  0.00  0.00     0.204 C 
BRANCH  12  16
HETATM   16  O   UNK     0     152.618 149.633 146.124  0.00  0.00    -0.390 OA
HETATM   17  H   UNK     0     152.074 149.089 146.719  0.00  0.00     0.210 HD
ENDBRANCH  12  16
BRANCH  14  18
HETATM   18  O   UNK     0     154.758 151.503 146.382  0.00  0.00    -0.390 OA
HETATM   19  H   UNK     0     154.513 151.040 145.562  0.00  0.00     0.210 HD
ENDBRANCH  14  18
BRANCH  15  20
HETATM   20  O   UNK     0     153.287 153.840 146.728  0.00  0.00    -0.388 OA
HETATM   21  H   UNK     0     152.501 154.395 146.875  0.00  0.00     0.210 HD
ENDBRANCH  15  20
ENDBRANCH   8   9
ENDBRANCH   7   8
ENDBRANCH   2   7
BRANCH   6  22
HETATM   22  O   UNK     0     151.886 157.539 151.777  0.00  0.00    -0.311 OA
BRANCH  22  23
HETATM   23  C   UNK     0     152.018 158.253 150.607  0.00  0.00     0.157 A 
HETATM   24  C   UNK     0     151.111 158.213 149.614  0.00  0.00     0.124 A 
HETATM   25  O   UNK     0     151.229 158.894 148.412  0.00  0.00    -0.306 OA
HETATM   26  C   UNK     0     152.333 159.683 148.213  0.00  0.00     0.096 A 
HETATM   27  C   UNK     0     153.343 159.821 149.162  0.00  0.00     0.084 A 
HETATM   28  C   UNK     0     152.419 160.363 146.998  0.00  0.00     0.075 A 
HETATM   29  C   UNK     0     153.230 159.091 150.434  0.00  0.00     0.223 A 
HETATM   30  C   UNK     0     154.447 160.639 148.905  0.00  0.00     0.085 A 
HETATM   31  O   UNK     0     154.089 159.168 151.303  0.00  0.00    -0.284 OA
HETATM   32  C   UNK     0     154.531 161.318 147.688  0.00  0.00     0.074 A 
HETATM   33  C   UNK     0     153.519 161.181 146.737  0.00  0.00     0.071 A 
BRANCH  24  34
HETATM   34  C   UNK     0     149.882 157.404 149.697  0.00  0.00     0.004 A 
HETATM   35  C   UNK     0     149.860 156.112 149.171  0.00  0.00     0.053 A 
HETATM   36  C   UNK     0     148.698 155.345 149.250  0.00  0.00     0.099 A 
HETATM   37  C   UNK     0     147.556 155.871 149.854  0.00  0.00     0.098 A 
HETATM   38  C   UNK     0     147.577 157.163 150.380  0.00  0.00     0.040 A 
HETATM   39  C   UNK     0     148.740 157.929 150.301  0.00  0.00     0.017 A 
BRANCH  36  40
HETATM   40  O   UNK     0     148.689 154.085 148.731  0.00  0.00    -0.358 OA
HETATM   41  H   UNK     0     147.894 153.962 148.188  0.00  0.00     0.217 HD
ENDBRANCH  36  40
BRANCH  37  42
HETATM   42  O   UNK     0     146.415 155.131 149.938  0.00  0.00    -0.358 OA
HETATM   43  H   UNK     0     146.367 154.517 149.189  0.00  0.00     0.217 HD
ENDBRANCH  37  42
ENDBRANCH  24  34
BRANCH  30  44
HETATM   44  O   UNK     0     155.461 160.807 149.797  0.00  0.00    -0.360 OA
HETATM   45  H   UNK     0     156.078 161.482 149.465  0.00  0.00     0.217 HD
ENDBRANCH  30  44
BRANCH  33  46
HETATM   46  O   UNK     0     153.605 161.845 145.552  0.00  0.00    -0.361 OA
HETATM   47  H   UNK     0     153.070 162.655 145.605  0.00  0.00     0.217 HD
ENDBRANCH  33  46
ENDBRANCH  22  23
ENDBRANCH   6  22
BRANCH   3  48
HETATM   48  O   UNK     0     153.961 152.502 152.647  0.00  0.00    -0.390 OA
HETATM   49  H   UNK     0     154.646 152.656 151.975  0.00  0.00     0.210 HD
ENDBRANCH   3  48
BRANCH   5  50
HETATM   50  O   UNK     0     154.211 157.238 153.362  0.00  0.00    -0.388 OA
HETATM   51  H   UNK     0     154.764 157.007 154.128  0.00  0.00     0.210 HD
ENDBRANCH   5  50
BRANCH   4  52
HETATM   52  O   UNK     0     154.345 154.577 154.622  0.00  0.00    -0.390 OA
HETATM   53  H   UNK     0     155.212 154.980 154.801  0.00  0.00     0.210 HD
ENDBRANCH   4  52
TORSDOF 16
ENDMDL
MODEL 3
REMARK VINA RESULT:      -8.8      2.150      8.335
REMARK  16 active torsions:
REMARK  status: ('A' for Active; 'I' for Inactive)
REMARK    1  A    between atoms: O_2  and  C_22 
REMARK    2  A    between atoms: O_2  and  C_26 
REMARK    3  A    between atoms: O_4  and  C_18 
REMARK    4  A    between atoms: O_5  and  C_19 
REMARK    5  A    between atoms: O_6  and  C_25 
REMARK    6  A    between atoms: O_6  and  C_29 
REMARK    7  A    between atoms: O_7  and  C_20 
REMARK    8  A    between atoms: O_8  and  C_21 
REMARK    9  A    between atoms: O_9  and  C_23 
REMARK   10  A    between atoms: O_10  and  C_24 
REMARK   11  A    between atoms: O_13  and  C_35 
REMARK   12  A    between atoms: O_14  and  C_40 
REMARK   13  A    between atoms: O_15  and  C_41 
REMARK   14  A    between atoms: O_16  and  C_43 
REMARK   15  A    between atoms: C_17  and  C_26 
REMARK   16  A    between atoms: C_30  and  C_33 
ROOT
HETATM    1  O   UNK     0     150.625 153.088 149.214  0.00  0.00    -0.348 OA
HETATM    2  C   UNK     0     151.632 152.687 148.283  0.00  0.00     0.180 C 
HETATM    3  C   UNK     0     152.491 151.575 148.890  0.00  0.00     0.180 C 
HETATM    4  C   UNK     0     153.094 152.020 150.223  0.00  0.00     0.183 C 
HETATM    5  C   UNK     0     152.027 152.616 151.141  0.00  0.00     0.205 C 
HETATM    6  C   UNK     0     151.173 153.649 150.405  0.00  0.00     0.298 C 
ENDROOT
BRANCH   2   7
HETATM    7  C   UNK     0     150.925 152.226 147.012  0.00  0.00     0.205 C 
BRANCH   7   8
HETATM    8  O   UNK     0     151.895 151.994 146.002  0.00  0.00    -0.356 OA
BRANCH   8   9
HETATM    9  C   UNK     0     151.353 151.240 144.923  0.00  0.00     0.291 C 
HETATM   10  O   UNK     0     151.384 149.831 145.173  0.00  0.00    -0.351 OA
HETATM   11  C   UNK     0     152.701 149.285 145.290  0.00  0.00     0.152 C 
HETATM   12  C   UNK     0     153.513 149.523 144.009  0.00  0.00     0.178 C 
HETATM   13  C   UNK     0     152.542 147.797 145.597  0.00  0.00     0.042 C 
HETATM   14  C   UNK     0     153.521 151.012 143.662  0.00  0.00     0.183 C 
HETATM   15  C   UNK     0     152.099 151.575 143.632  0.00  0.00     0.204 C 
BRANCH  12  16
HETATM   16  O   UNK     0     154.863 149.104 144.195  0.00  0.00    -0.390 OA
HETATM   17  H   UNK     0     155.410 149.900 144.305  0.00  0.00     0.210 HD
ENDBRANCH  12  16
BRANCH  14  18
HETATM   18  O   UNK     0     154.142 151.195 142.392  0.00  0.00    -0.390 OA
HETATM   19  H   UNK     0     155.019 150.774 142.427  0.00  0.00     0.210 HD
ENDBRANCH  14  18
BRANCH  15  20
HETATM   20  O   UNK     0     151.370 151.000 142.547  0.00  0.00    -0.388 OA
HETATM   21  H   UNK     0     151.294 150.043 142.701  0.00  0.00     0.210 HD
ENDBRANCH  15  20
ENDBRANCH   8   9
ENDBRANCH   7   8
ENDBRANCH   2   7
BRANCH   6  22
HETATM   22  O   UNK     0     150.118 154.051 151.278  0.00  0.00    -0.311 OA
BRANCH  22  23
HETATM   23  C   UNK     0     149.608 155.280 150.925  0.00  0.00     0.157 A 
HETATM   24  C   UNK     0     150.327 156.416 150.974  0.00  0.00     0.124 A 
HETATM   25  O   UNK     0     149.835 157.673 150.657  0.00  0.00    -0.306 OA
HETATM   26  C   UNK     0     148.532 157.780 150.243  0.00  0.00     0.096 A 
HETATM   27  C   UNK     0     147.681 156.683 150.139  0.00  0.00     0.084 A 
HETATM   28  C   UNK     0     148.069 159.056 149.922  0.00  0.00     0.075 A 
HETATM   29  C   UNK     0     148.193 155.348 150.487  0.00  0.00     0.223 A 
HETATM   30  C   UNK     0     146.360 156.852 149.713  0.00  0.00     0.085 A 
HETATM   31  O   UNK     0     147.490 154.349 150.421  0.00  0.00    -0.284 OA
HETATM   32  C   UNK     0     145.900 158.130 149.392  0.00  0.00     0.074 A 
HETATM   33  C   UNK     0     146.752 159.229 149.495  0.00  0.00     0.071 A 
BRANCH  24  34
HETATM   34  C   UNK     0     151.737 156.443 151.402  0.00  0.00     0.004 A 
HETATM   35  C   UNK     0     152.057 156.341 152.756  0.00  0.00     0.053 A 
HETATM   36  C   UNK     0     153.391 156.365 153.162  0.00  0.00     0.099 A 
HETATM   37  C   UNK     0     154.406 156.492 152.215  0.00  0.00     0.098 A 
HETATM   38  C   UNK     0     154.087 156.595 150.861  0.00  0.00     0.040 A 
HETATM   39  C   UNK     0     152.753 156.569 150.455  0.00  0.00     0.017 A 
BRANCH  36  40
HETATM   40  O   UNK     0     153.690 156.266 154.488  0.00  0.00    -0.358 OA
HETATM   41  H   UNK     0     154.650 156.164 154.599  0.00  0.00     0.217 HD
ENDBRANCH  36  40
BRANCH  37  42
HETATM   42  O   UNK     0     155.713 156.516 152.599  0.00  0.00    -0.358 OA
HETATM   43  H   UNK     0     155.874 155.820 153.255  0.00  0.00     0.217 HD
ENDBRANCH  37  42
ENDBRANCH  24  34
BRANCH  30  44
HETATM   44  O   UNK     0     145.488 155.814 149.595  0.00  0.00    -0.360 OA
HETATM   45  H   UNK     0     144.868 155.823 150.345  0.00  0.00     0.217 HD
ENDBRANCH  30  44
BRANCH  33  46
HETATM   46  O   UNK     0     146.298 160.473 149.181  0.00  0.00    -0.361 OA
HETATM   47  H   UNK     0     145.994 160.474 148.258  0.00  0.00     0.217 HD
ENDBRANCH  33  46
ENDBRANCH  22  23
ENDBRANCH   6  22
BRANCH   3  48
HETATM   48  O   UNK     0     153.541 151.244 147.985  0.00  0.00    -0.390 OA
HETATM   49  H   UNK     0     153.351 150.367 147.612  0.00  0.00     0.210 HD
ENDBRANCH   3  48
BRANCH   5  50
HETATM   50  O   UNK     0     152.659 153.263 152.245  0.00  0.00    -0.388 OA
HETATM   51  H   UNK     0     152.277 154.152 152.333  0.00  0.00     0.210 HD
ENDBRANCH   5  50
BRANCH   4  52
HETATM   52  O   UNK     0     153.675 150.875 150.849  0.00  0.00    -0.390 OA
HETATM   53  H   UNK     0     152.952 150.371 151.261  0.00  0.00     0.210 HD
ENDBRANCH   4  52
TORSDOF 16
ENDMDL
MODEL 4
REMARK VINA RESULT:      -8.7      1.753      2.401
REMARK  16 active torsions:
REMARK  status: ('A' for Active; 'I' for Inactive)
REMARK    1  A    between atoms: O_2  and  C_22 
REMARK    2  A    between atoms: O_2  and  C_26 
REMARK    3  A    between atoms: O_4  and  C_18 
REMARK    4  A    between atoms: O_5  and  C_19 
REMARK    5  A    between atoms: O_6  and  C_25 
REMARK    6  A    between atoms: O_6  and  C_29 
REMARK    7  A    between atoms: O_7  and  C_20 
REMARK    8  A    between atoms: O_8  and  C_21 
REMARK    9  A    between atoms: O_9  and  C_23 
REMARK   10  A    between atoms: O_10  and  C_24 
REMARK   11  A    between atoms: O_13  and  C_35 
REMARK   12  A    between atoms: O_14  and  C_40 
REMARK   13  A    between atoms: O_15  and  C_41 
REMARK   14  A    between atoms: O_16  and  C_43 
REMARK   15  A    between atoms: C_17  and  C_26 
REMARK   16  A    between atoms: C_30  and  C_33 
ROOT
HETATM    1  O   UNK     0     150.797 155.445 149.938  0.00  0.00    -0.348 OA
HETATM    2  C   UNK     0     150.410 156.818 149.857  0.00  0.00     0.180 C 
HETATM    3  C   UNK     0     148.963 156.981 150.330  0.00  0.00     0.180 C 
HETATM    4  C   UNK     0     148.025 156.077 149.528  0.00  0.00     0.183 C 
HETATM    5  C   UNK     0     148.552 154.643 149.472  0.00  0.00     0.205 C 
HETATM    6  C   UNK     0     150.028 154.608 149.077  0.00  0.00     0.298 C 
ENDROOT
BRANCH   2   7
HETATM    7  C   UNK     0     151.380 157.620 150.719  0.00  0.00     0.205 C 
BRANCH   7   8
HETATM    8  O   UNK     0     152.669 157.576 150.126  0.00  0.00    -0.356 OA
BRANCH   8   9
HETATM    9  C   UNK     0     152.993 158.809 149.491  0.00  0.00     0.291 C 
HETATM   10  O   UNK     0     153.375 158.634 148.123  0.00  0.00    -0.351 OA
HETATM   11  C   UNK     0     154.577 157.878 147.942  0.00  0.00     0.152 C 
HETATM   12  C   UNK     0     155.762 158.549 148.650  0.00  0.00     0.178 C 
HETATM   13  C   UNK     0     154.805 157.755 146.438  0.00  0.00     0.042 C 
HETATM   14  C   UNK     0     155.430 158.785 150.124  0.00  0.00     0.183 C 
HETATM   15  C   UNK     0     154.096 159.519 150.274  0.00  0.00     0.204 C 
BRANCH  12  16
HETATM   16  O   UNK     0     156.915 157.713 148.584  0.00  0.00    -0.390 OA
HETATM   17  H   UNK     0     157.522 158.092 147.925  0.00  0.00     0.210 HD
ENDBRANCH  12  16
BRANCH  14  18
HETATM   18  O   UNK     0     156.474 159.547 150.724  0.00  0.00    -0.390 OA
HETATM   19  H   UNK     0     157.043 159.885 150.011  0.00  0.00     0.210 HD
ENDBRANCH  14  18
BRANCH  15  20
HETATM   20  O   UNK     0     154.210 160.846 149.758  0.00  0.00    -0.388 OA
HETATM   21  H   UNK     0     154.682 161.390 150.412  0.00  0.00     0.210 HD
ENDBRANCH  15  20
ENDBRANCH   8   9
ENDBRANCH   7   8
ENDBRANCH   2   7
BRANCH   6  22
HETATM   22  O   UNK     0     150.481 153.259 149.186  0.00  0.00    -0.311 OA
BRANCH  22  23
HETATM   23  C   UNK     0     151.269 152.900 148.115  0.00  0.00     0.157 A 
HETATM   24  C   UNK     0     152.613 152.955 148.141  0.00  0.00     0.124 A 
HETATM   25  O   UNK     0     153.434 152.633 147.071  0.00  0.00    -0.306 OA
HETATM   26  C   UNK     0     152.852 152.208 145.905  0.00  0.00     0.096 A 
HETATM   27  C   UNK     0     151.473 152.097 145.746  0.00  0.00     0.084 A 
HETATM   28  C   UNK     0     153.705 151.882 144.850  0.00  0.00     0.075 A 
HETATM   29  C   UNK     0     150.596 152.451 146.873  0.00  0.00     0.223 A 
HETATM   30  C   UNK     0     150.935 151.660 144.532  0.00  0.00     0.085 A 
HETATM   31  O   UNK     0     149.377 152.379 146.790  0.00  0.00    -0.284 OA
HETATM   32  C   UNK     0     151.790 151.334 143.479  0.00  0.00     0.074 A 
HETATM   33  C   UNK     0     153.172 151.444 143.637  0.00  0.00     0.071 A 
BRANCH  24  34
HETATM   34  C   UNK     0     153.365 153.396 149.329  0.00  0.00     0.004 A 
HETATM   35  C   UNK     0     153.257 152.687 150.526  0.00  0.00     0.053 A 
HETATM   36  C   UNK     0     153.970 153.103 151.650  0.00  0.00     0.099 A 
HETATM   37  C   UNK     0     154.790 154.229 151.579  0.00  0.00     0.098 A 
HETATM   38  C   UNK     0     154.897 154.938 150.383  0.00  0.00     0.040 A 
HETATM   39  C   UNK     0     154.186 154.522 149.259  0.00  0.00     0.017 A 
BRANCH  36  40
HETATM   40  O   UNK     0     153.855 152.403 152.814  0.00  0.00    -0.358 OA
HETATM   41  H   UNK     0     154.733 152.111 153.108  0.00  0.00     0.217 HD
ENDBRANCH  36  40
BRANCH  37  42
HETATM   42  O   UNK     0     155.491 154.644 152.670  0.00  0.00    -0.358 OA
HETATM   43  H   UNK     0     156.240 154.047 152.825  0.00  0.00     0.217 HD
ENDBRANCH  37  42
ENDBRANCH  24  34
BRANCH  30  44
HETATM   44  O   UNK     0     149.595 151.535 144.325  0.00  0.00    -0.360 OA
HETATM   45  H   UNK     0     149.180 152.414 144.345  0.00  0.00     0.217 HD
ENDBRANCH  30  44
BRANCH  33  46
HETATM   46  O   UNK     0     154.002 151.125 142.607  0.00  0.00    -0.361 OA
HETATM   47  H   UNK     0     154.185 151.928 142.089  0.00  0.00     0.217 HD
ENDBRANCH  33  46
ENDBRANCH  22  23
ENDBRANCH   6  22
BRANCH   3  48
HETATM   48  O   UNK     0     148.564 158.339 150.165  0.00  0.00    -0.390 OA
HETATM   49  H   UNK     0     149.366 158.879 150.074  0.00  0.00     0.210 HD
ENDBRANCH   3  48
BRANCH   5  50
HETATM   50  O   UNK     0     147.810 153.904 148.502  0.00  0.00    -0.388 OA
HETATM   51  H   UNK     0     146.864 154.052 148.668  0.00  0.00     0.210 HD
ENDBRANCH   5  50
BRANCH   4  52
HETATM   52  O   UNK     0     146.747 156.090 150.167  0.00  0.00    -0.390 OA
HETATM   53  H   UNK     0     146.073 155.999 149.472  0.00  0.00     0.210 HD
ENDBRANCH   4  52
TORSDOF 16
ENDMDL
MODEL 5
REMARK VINA RESULT:      -8.6      3.704      6.681
REMARK  16 active torsions:
REMARK  status: ('A' for Active; 'I' for Inactive)
REMARK    1  A    between atoms: O_2  and  C_22 
REMARK    2  A    between atoms: O_2  and  C_26 
REMARK    3  A    between atoms: O_4  and  C_18 
REMARK    4  A    between atoms: O_5  and  C_19 
REMARK    5  A    between atoms: O_6  and  C_25 
REMARK    6  A    between atoms: O_6  and  C_29 
REMARK    7  A    between atoms: O_7  and  C_20 
REMARK    8  A    between atoms: O_8  and  C_21 
REMARK    9  A    between atoms: O_9  and  C_23 
REMARK   10  A    between atoms: O_10  and  C_24 
REMARK   11  A    between atoms: O_13  and  C_35 
REMARK   12  A    between atoms: O_14  and  C_40 
REMARK   13  A    between atoms: O_15  and  C_41 
REMARK   14  A    between atoms: O_16  and  C_43 
REMARK   15  A    between atoms: C_17  and  C_26 
REMARK   16  A    between atoms: C_30  and  C_33 
ROOT
HETATM    1  O   UNK     0     152.638 156.907 150.883  0.00  0.00    -0.348 OA
HETATM    2  C   UNK     0     153.081 157.037 152.235  0.00  0.00     0.180 C 
HETATM    3  C   UNK     0     153.536 155.676 152.768  0.00  0.00     0.180 C 
HETATM    4  C   UNK     0     152.421 154.639 152.632  0.00  0.00     0.183 C 
HETATM    5  C   UNK     0     151.832 154.640 151.222  0.00  0.00     0.205 C 
HETATM    6  C   UNK     0     151.498 156.059 150.760  0.00  0.00     0.298 C 
ENDROOT
BRANCH   2   7
HETATM    7  C   UNK     0     154.214 158.058 152.251  0.00  0.00     0.205 C 
BRANCH   7   8
HETATM    8  O   UNK     0     154.250 158.728 151.000  0.00  0.00    -0.356 OA
BRANCH   8   9
HETATM    9  C   UNK     0     155.542 158.655 150.407  0.00  0.00     0.291 C 
HETATM   10  O   UNK     0     156.090 159.947 150.129  0.00  0.00    -0.351 OA
HETATM   11  C   UNK     0     155.355 160.699 149.158  0.00  0.00     0.152 C 
HETATM   12  C   UNK     0     155.287 159.951 147.818  0.00  0.00     0.178 C 
HETATM   13  C   UNK     0     156.049 162.052 149.022  0.00  0.00     0.042 C 
HETATM   14  C   UNK     0     154.721 158.547 148.029  0.00  0.00     0.183 C 
HETATM   15  C   UNK     0     155.479 157.811 149.135  0.00  0.00     0.204 C 
BRANCH  12  16
HETATM   16  O   UNK     0     154.433 160.643 146.910  0.00  0.00    -0.390 OA
HETATM   17  H   UNK     0     154.995 161.103 146.264  0.00  0.00     0.210 HD
ENDBRANCH  12  16
BRANCH  14  18
HETATM   18  O   UNK     0     154.812 157.816 146.808  0.00  0.00    -0.390 OA
HETATM   19  H   UNK     0     155.287 156.987 146.993  0.00  0.00     0.210 HD
ENDBRANCH  14  18
BRANCH  15  20
HETATM   20  O   UNK     0     156.821 157.553 148.717  0.00  0.00    -0.388 OA
HETATM   21  H   UNK     0     156.807 157.302 147.777  0.00  0.00     0.210 HD
ENDBRANCH  15  20
ENDBRANCH   8   9
ENDBRANCH   7   8
ENDBRANCH   2   7
BRANCH   6  22
HETATM   22  O   UNK     0     151.093 155.993 149.393  0.00  0.00    -0.311 OA
BRANCH  22  23
HETATM   23  C   UNK     0     149.760 156.309 149.244  0.00  0.00     0.157 A 
HETATM   24  C   UNK     0     149.272 157.547 149.438  0.00  0.00     0.124 A 
HETATM   25  O   UNK     0     147.934 157.891 149.328  0.00  0.00    -0.306 OA
HETATM   26  C   UNK     0     147.034 156.917 148.979  0.00  0.00     0.096 A 
HETATM   27  C   UNK     0     147.407 155.596 148.741  0.00  0.00     0.084 A 
HETATM   28  C   UNK     0     145.696 157.296 148.866  0.00  0.00     0.075 A 
HETATM   29  C   UNK     0     148.824 155.222 148.869  0.00  0.00     0.223 A 
HETATM   30  C   UNK     0     146.446 154.644 148.389  0.00  0.00     0.085 A 
HETATM   31  O   UNK     0     149.209 154.076 148.678  0.00  0.00    -0.284 OA
HETATM   32  C   UNK     0     145.108 155.026 148.277  0.00  0.00     0.074 A 
HETATM   33  C   UNK     0     144.734 156.349 148.515  0.00  0.00     0.071 A 
BRANCH  24  34
HETATM   34  C   UNK     0     150.128 158.685 149.818  0.00  0.00     0.004 A 
HETATM   35  C   UNK     0     150.156 159.125 151.142  0.00  0.00     0.053 A 
HETATM   36  C   UNK     0     150.967 160.200 151.503  0.00  0.00     0.099 A 
HETATM   37  C   UNK     0     151.749 160.838 150.540  0.00  0.00     0.098 A 
HETATM   38  C   UNK     0     151.721 160.399 149.216  0.00  0.00     0.040 A 
HETATM   39  C   UNK     0     150.911 159.323 148.856  0.00  0.00     0.017 A 
BRANCH  36  40
HETATM   40  O   UNK     0     150.985 160.622 152.798  0.00  0.00    -0.358 OA
HETATM   41  H   UNK     0     150.691 161.546 152.845  0.00  0.00     0.217 HD
ENDBRANCH  36  40
BRANCH  37  42
HETATM   42  O   UNK     0     152.546 161.889 150.880  0.00  0.00    -0.358 OA
HETATM   43  H   UNK     0     152.281 162.677 150.379  0.00  0.00     0.217 HD
ENDBRANCH  37  42
ENDBRANCH  24  34
BRANCH  30  44
HETATM   44  O   UNK     0     146.756 153.341 148.147  0.00  0.00    -0.360 OA
HETATM   45  H   UNK     0     145.952 152.797 148.213  0.00  0.00     0.217 HD
ENDBRANCH  30  44
BRANCH  33  46
HETATM   46  O   UNK     0     143.428 156.717 148.405  0.00  0.00    -0.361 OA
HETATM   47  H   UNK     0     142.948 156.032 147.908  0.00  0.00     0.217 HD
ENDBRANCH  33  46
ENDBRANCH  22  23
ENDBRANCH   6  22
BRANCH   3  48
HETATM   48  O   UNK     0     153.896 155.804 154.141  0.00  0.00    -0.390 OA
HETATM   49  H   UNK     0     153.509 156.630 154.477  0.00  0.00     0.210 HD
ENDBRANCH   3  48
BRANCH   5  50
HETATM   50  O   UNK     0     150.630 153.871 151.209  0.00  0.00    -0.388 OA
HETATM   51  H   UNK     0     150.027 154.265 150.557  0.00  0.00     0.210 HD
ENDBRANCH   5  50
BRANCH   4  52
HETATM   52  O   UNK     0     152.977 153.354 152.915  0.00  0.00    -0.390 OA
HETATM   53  H   UNK     0     152.662 153.087 153.795  0.00  0.00     0.210 HD
ENDBRANCH   4  52
TORSDOF 16
ENDMDL
MODEL 6
REMARK VINA RESULT:      -8.5      1.546      2.134
REMARK  16 active torsions:
REMARK  status: ('A' for Active; 'I' for Inactive)
REMARK    1  A    between atoms: O_2  and  C_22 
REMARK    2  A    between atoms: O_2  and  C_26 
REMARK    3  A    between atoms: O_4  and  C_18 
REMARK    4  A    between atoms: O_5  and  C_19 
REMARK    5  A    between atoms: O_6  and  C_25 
REMARK    6  A    between atoms: O_6  and  C_29 
REMARK    7  A    between atoms: O_7  and  C_20 
REMARK    8  A    between atoms: O_8  and  C_21 
REMARK    9  A    between atoms: O_9  and  C_23 
REMARK   10  A    between atoms: O_10  and  C_24 
REMARK   11  A    between atoms: O_13  and  C_35 
REMARK   12  A    between atoms: O_14  and  C_40 
REMARK   13  A    between atoms: O_15  and  C_41 
REMARK   14  A    between atoms: O_16  and  C_43 
REMARK   15  A    between atoms: C_17  and  C_26 
REMARK   16  A    between atoms: C_30  and  C_33 
ROOT
HETATM    1  O   UNK     0     150.793 155.799 150.309  0.00  0.00    -0.348 OA
HETATM    2  C   UNK     0     150.480 157.152 149.971  0.00  0.00     0.180 C 
HETATM    3  C   UNK     0     148.993 157.420 150.217  0.00  0.00     0.180 C 
HETATM    4  C   UNK     0     148.127 156.426 149.444  0.00  0.00     0.183 C 
HETATM    5  C   UNK     0     148.592 154.988 149.675  0.00  0.00     0.205 C 
HETATM    6  C   UNK     0     150.104 154.857 149.490  0.00  0.00     0.298 C 
ENDROOT
BRANCH   2   7
HETATM    7  C   UNK     0     151.366 158.055 150.823  0.00  0.00     0.205 C 
BRANCH   7   8
HETATM    8  O   UNK     0     152.408 158.578 150.013  0.00  0.00    -0.356 OA
BRANCH   8   9
HETATM    9  C   UNK     0     153.533 158.962 150.796  0.00  0.00     0.291 C 
HETATM   10  O   UNK     0     154.026 160.258 150.443  0.00  0.00    -0.351 OA
HETATM   11  C   UNK     0     154.542 160.347 149.111  0.00  0.00     0.152 C 
HETATM   12  C   UNK     0     155.701 159.362 148.902  0.00  0.00     0.178 C 
HETATM   13  C   UNK     0     154.977 161.795 148.896  0.00  0.00     0.042 C 
HETATM   14  C   UNK     0     155.260 157.945 149.270  0.00  0.00     0.183 C 
HETATM   15  C   UNK     0     154.636 157.912 150.666  0.00  0.00     0.204 C 
BRANCH  12  16
HETATM   16  O   UNK     0     156.106 159.359 147.534  0.00  0.00    -0.390 OA
HETATM   17  H   UNK     0     155.928 158.474 147.172  0.00  0.00     0.210 HD
ENDBRANCH  12  16
BRANCH  14  18
HETATM   18  O   UNK     0     156.387 157.074 149.221  0.00  0.00    -0.390 OA
HETATM   19  H   UNK     0     156.137 156.240 149.654  0.00  0.00     0.210 HD
ENDBRANCH  14  18
BRANCH  15  20
HETATM   20  O   UNK     0     155.629 158.201 151.651  0.00  0.00    -0.388 OA
HETATM   21  H   UNK     0     155.184 158.543 152.445  0.00  0.00     0.210 HD
ENDBRANCH  15  20
ENDBRANCH   8   9
ENDBRANCH   7   8
ENDBRANCH   2   7
BRANCH   6  22
HETATM   22  O   UNK     0     150.479 153.531 149.860  0.00  0.00    -0.311 OA
BRANCH  22  23
HETATM   23  C   UNK     0     151.382 152.992 148.970  0.00  0.00     0.157 A 
HETATM   24  C   UNK     0     152.704 152.932 149.210  0.00  0.00     0.124 A 
HETATM   25  O   UNK     0     153.642 152.426 148.323  0.00  0.00    -0.306 OA
HETATM   26  C   UNK     0     153.206 151.931 147.122  0.00  0.00     0.096 A 
HETATM   27  C   UNK     0     151.863 151.924 146.751  0.00  0.00     0.084 A 
HETATM   28  C   UNK     0     154.172 151.419 146.255  0.00  0.00     0.075 A 
HETATM   29  C   UNK     0     150.864 152.472 147.682  0.00  0.00     0.223 A 
HETATM   30  C   UNK     0     151.475 151.407 145.511  0.00  0.00     0.085 A 
HETATM   31  O   UNK     0     149.672 152.498 147.408  0.00  0.00    -0.284 OA
HETATM   32  C   UNK     0     152.444 150.896 144.646  0.00  0.00     0.074 A 
HETATM   33  C   UNK     0     153.789 150.902 145.017  0.00  0.00     0.071 A 
BRANCH  24  34
HETATM   34  C   UNK     0     153.306 153.431 150.459  0.00  0.00     0.004 A 
HETATM   35  C   UNK     0     154.534 154.091 150.427  0.00  0.00     0.053 A 
HETATM   36  C   UNK     0     155.104 154.565 151.608  0.00  0.00     0.099 A 
HETATM   37  C   UNK     0     154.446 154.377 152.824  0.00  0.00     0.098 A 
HETATM   38  C   UNK     0     153.218 153.716 152.857  0.00  0.00     0.040 A 
HETATM   39  C   UNK     0     152.648 153.244 151.675  0.00  0.00     0.017 A 
BRANCH  36  40
HETATM   40  O   UNK     0     156.305 155.208 151.564  0.00  0.00    -0.358 OA
HETATM   41  H   UNK     0     156.395 155.672 150.716  0.00  0.00     0.217 HD
ENDBRANCH  36  40
BRANCH  37  42
HETATM   42  O   UNK     0     154.991 154.836 153.984  0.00  0.00    -0.358 OA
HETATM   43  H   UNK     0     155.893 155.153 153.819  0.00  0.00     0.217 HD
ENDBRANCH  37  42
ENDBRANCH  24  34
BRANCH  30  44
HETATM   44  O   UNK     0     150.178 151.378 145.100  0.00  0.00    -0.360 OA
HETATM   45  H   UNK     0     149.597 151.631 145.839  0.00  0.00     0.217 HD
ENDBRANCH  30  44
BRANCH  33  46
HETATM   46  O   UNK     0     154.730 150.403 144.170  0.00  0.00    -0.361 OA
HETATM   47  H   UNK     0     154.468 149.506 143.899  0.00  0.00     0.217 HD
ENDBRANCH  33  46
ENDBRANCH  22  23
ENDBRANCH   6  22
BRANCH   3  48
HETATM   48  O   UNK     0     148.678 158.745 149.797  0.00  0.00    -0.390 OA
HETATM   49  H   UNK     0     147.711 158.843 149.809  0.00  0.00     0.210 HD
ENDBRANCH   3  48
BRANCH   5  50
HETATM   50  O   UNK     0     147.949 154.125 148.738  0.00  0.00    -0.388 OA
HETATM   51  H   UNK     0     148.119 153.207 149.009  0.00  0.00     0.210 HD
ENDBRANCH   5  50
BRANCH   4  52
HETATM   52  O   UNK     0     146.779 156.568 149.898  0.00  0.00    -0.390 OA
HETATM   53  H   UNK     0     146.197 156.253 149.186  0.00  0.00     0.210 HD
ENDBRANCH   4  52
TORSDOF 16
ENDMDL
MODEL 7
REMARK VINA RESULT:      -8.5      3.832      6.631
REMARK  16 active torsions:
REMARK  status: ('A' for Active; 'I' for Inactive)
REMARK    1  A    between atoms: O_2  and  C_22 
REMARK    2  A    between atoms: O_2  and  C_26 
REMARK    3  A    between atoms: O_4  and  C_18 
REMARK    4  A    between atoms: O_5  and  C_19 
REMARK    5  A    between atoms: O_6  and  C_25 
REMARK    6  A    between atoms: O_6  and  C_29 
REMARK    7  A    between atoms: O_7  and  C_20 
REMARK    8  A    between atoms: O_8  and  C_21 
REMARK    9  A    between atoms: O_9  and  C_23 
REMARK   10  A    between atoms: O_10  and  C_24 
REMARK   11  A    between atoms: O_13  and  C_35 
REMARK   12  A    between atoms: O_14  and  C_40 
REMARK   13  A    between atoms: O_15  and  C_41 
REMARK   14  A    between atoms: O_16  and  C_43 
REMARK   15  A    between atoms: C_17  and  C_26 
REMARK   16  A    between atoms: C_30  and  C_33 
ROOT
HETATM    1  O   UNK     0     150.979 159.996 149.262  0.00  0.00    -0.348 OA
HETATM    2  C   UNK     0     150.966 160.432 147.901  0.00  0.00     0.180 C 
HETATM    3  C   UNK     0     149.678 161.208 147.615  0.00  0.00     0.180 C 
HETATM    4  C   UNK     0     148.449 160.365 147.953  0.00  0.00     0.183 C 
HETATM    5  C   UNK     0     148.563 159.756 149.351  0.00  0.00     0.205 C 
HETATM    6  C   UNK     0     149.922 159.085 149.555  0.00  0.00     0.298 C 
ENDROOT
BRANCH   2   7
HETATM    7  C   UNK     0     152.206 161.293 147.683  0.00  0.00     0.205 C 
BRANCH   7   8
HETATM    8  O   UNK     0     153.225 160.871 148.577  0.00  0.00    -0.356 OA
BRANCH   8   9
HETATM    9  C   UNK     0     154.522 161.104 148.036  0.00  0.00     0.291 C 
HETATM   10  O   UNK     0     154.893 160.121 147.065  0.00  0.00    -0.351 OA
HETATM   11  C   UNK     0     155.021 158.796 147.592  0.00  0.00     0.152 C 
HETATM   12  C   UNK     0     156.080 158.744 148.701  0.00  0.00     0.178 C 
HETATM   13  C   UNK     0     155.375 157.883 146.421  0.00  0.00     0.042 C 
HETATM   14  C   UNK     0     155.763 159.779 149.781  0.00  0.00     0.183 C 
HETATM   15  C   UNK     0     155.549 161.163 149.166  0.00  0.00     0.204 C 
BRANCH  12  16
HETATM   16  O   UNK     0     156.092 157.455 149.313  0.00  0.00    -0.390 OA
HETATM   17  H   UNK     0     156.424 157.559 150.220  0.00  0.00     0.210 HD
ENDBRANCH  12  16
BRANCH  14  18
HETATM   18  O   UNK     0     156.836 159.825 150.718  0.00  0.00    -0.390 OA
HETATM   19  H   UNK     0     157.423 159.070 150.535  0.00  0.00     0.210 HD
ENDBRANCH  14  18
BRANCH  15  20
HETATM   20  O   UNK     0     156.775 161.646 148.614  0.00  0.00    -0.388 OA
HETATM   21  H   UNK     0     157.107 162.361 149.183  0.00  0.00     0.210 HD
ENDBRANCH  15  20
ENDBRANCH   8   9
ENDBRANCH   7   8
ENDBRANCH   2   7
BRANCH   6  22
HETATM   22  O   UNK     0     150.008 158.670 150.918  0.00  0.00    -0.311 OA
BRANCH  22  23
HETATM   23  C   UNK     0     150.976 157.707 151.095  0.00  0.00     0.157 A 
HETATM   24  C   UNK     0     150.791 156.412 150.782  0.00  0.00     0.124 A 
HETATM   25  O   UNK     0     151.732 155.413 150.977  0.00  0.00    -0.306 OA
HETATM   26  C   UNK     0     152.949 155.756 151.508  0.00  0.00     0.096 A 
HETATM   27  C   UNK     0     153.275 157.062 151.868  0.00  0.00     0.084 A 
HETATM   28  C   UNK     0     153.879 154.730 151.684  0.00  0.00     0.075 A 
HETATM   29  C   UNK     0     152.276 158.124 151.676  0.00  0.00     0.223 A 
HETATM   30  C   UNK     0     154.532 157.353 152.407  0.00  0.00     0.085 A 
HETATM   31  O   UNK     0     152.503 159.287 151.979  0.00  0.00    -0.284 OA
HETATM   32  C   UNK     0     155.460 156.325 152.581  0.00  0.00     0.074 A 
HETATM   33  C   UNK     0     155.134 155.017 152.220  0.00  0.00     0.071 A 
BRANCH  24  34
HETATM   34  C   UNK     0     149.531 155.909 150.207  0.00  0.00     0.004 A 
HETATM   35  C   UNK     0     149.420 155.716 148.830  0.00  0.00     0.053 A 
HETATM   36  C   UNK     0     148.228 155.238 148.286  0.00  0.00     0.099 A 
HETATM   37  C   UNK     0     147.146 154.954 149.118  0.00  0.00     0.098 A 
HETATM   38  C   UNK     0     147.256 155.147 150.495  0.00  0.00     0.040 A 
HETATM   39  C   UNK     0     148.448 155.624 151.039  0.00  0.00     0.017 A 
BRANCH  36  40
HETATM   40  O   UNK     0     148.131 155.055 146.939  0.00  0.00    -0.358 OA
HETATM   41  H   UNK     0     148.045 154.108 146.743  0.00  0.00     0.217 HD
ENDBRANCH  36  40
BRANCH  37  42
HETATM   42  O   UNK     0     145.977 154.486 148.599  0.00  0.00    -0.358 OA
HETATM   43  H   UNK     0     145.479 155.217 148.201  0.00  0.00     0.217 HD
ENDBRANCH  37  42
ENDBRANCH  24  34
BRANCH  30  44
HETATM   44  O   UNK     0     154.900 158.610 152.776  0.00  0.00    -0.360 OA
HETATM   45  H   UNK     0     154.239 159.249 152.456  0.00  0.00     0.217 HD
ENDBRANCH  30  44
BRANCH  33  46
HETATM   46  O   UNK     0     156.043 154.018 152.393  0.00  0.00    -0.361 OA
HETATM   47  H   UNK     0     156.432 154.095 153.280  0.00  0.00     0.217 HD
ENDBRANCH  33  46
ENDBRANCH  22  23
ENDBRANCH   6  22
BRANCH   3  48
HETATM   48  O   UNK     0     149.640 161.564 146.235  0.00  0.00    -0.390 OA
HETATM   49  H   UNK     0     150.187 160.927 145.745  0.00  0.00     0.210 HD
ENDBRANCH   3  48
BRANCH   5  50
HETATM   50  O   UNK     0     147.547 158.769 149.522  0.00  0.00    -0.388 OA
HETATM   51  H   UNK     0     147.364 158.370 148.655  0.00  0.00     0.210 HD
ENDBRANCH   5  50
BRANCH   4  52
HETATM   52  O   UNK     0     147.302 161.215 147.898  0.00  0.00    -0.390 OA
HETATM   53  H   UNK     0     147.519 162.029 148.383  0.00  0.00     0.210 HD
ENDBRANCH   4  52
TORSDOF 16
ENDMDL
MODEL 8
REMARK VINA RESULT:      -8.5      2.328      8.925
REMARK  16 active torsions:
REMARK  status: ('A' for Active; 'I' for Inactive)
REMARK    1  A    between atoms: O_2  and  C_22 
REMARK    2  A    between atoms: O_2  and  C_26 
REMARK    3  A    between atoms: O_4  and  C_18 
REMARK    4  A    between atoms: O_5  and  C_19 
REMARK    5  A    between atoms: O_6  and  C_25 
REMARK    6  A    between atoms: O_6  and  C_29 
REMARK    7  A    between atoms: O_7  and  C_20 
REMARK    8  A    between atoms: O_8  and  C_21 
REMARK    9  A    between atoms: O_9  and  C_23 
REMARK   10  A    between atoms: O_10  and  C_24 
REMARK   11  A    between atoms: O_13  and  C_35 
REMARK   12  A    between atoms: O_14  and  C_40 
REMARK   13  A    between atoms: O_15  and  C_41 
REMARK   14  A    between atoms: O_16  and  C_43 
REMARK   15  A    between atoms: C_17  and  C_26 
REMARK   16  A    between atoms: C_30  and  C_33 
ROOT
HETATM    1  O   UNK     0     149.947 152.834 147.704  0.00  0.00    -0.348 OA
HETATM    2  C   UNK     0     150.539 152.672 146.413  0.00  0.00     0.180 C 
HETATM    3  C   UNK     0     151.840 151.874 146.532  0.00  0.00     0.180 C 
HETATM    4  C   UNK     0     152.798 152.544 147.516  0.00  0.00     0.183 C 
HETATM    5  C   UNK     0     152.097 152.877 148.833  0.00  0.00     0.205 C 
HETATM    6  C   UNK     0     150.768 153.591 148.590  0.00  0.00     0.298 C 
ENDROOT
BRANCH   2   7
HETATM    7  C   UNK     0     149.519 151.962 145.527  0.00  0.00     0.205 C 
BRANCH   7   8
HETATM    8  O   UNK     0     150.025 150.683 145.174  0.00  0.00    -0.356 OA
BRANCH   8   9
HETATM    9  C   UNK     0     149.176 149.640 145.642  0.00  0.00     0.291 C 
HETATM   10  O   UNK     0     149.905 148.464 146.005  0.00  0.00    -0.351 OA
HETATM   11  C   UNK     0     150.582 147.833 144.913  0.00  0.00     0.152 C 
HETATM   12  C   UNK     0     149.591 147.418 143.817  0.00  0.00     0.178 C 
HETATM   13  C   UNK     0     151.335 146.635 145.486  0.00  0.00     0.042 C 
HETATM   14  C   UNK     0     148.757 148.622 143.378  0.00  0.00     0.183 C 
HETATM   15  C   UNK     0     148.123 149.317 144.584  0.00  0.00     0.204 C 
BRANCH  12  16
HETATM   16  O   UNK     0     150.293 146.925 142.678  0.00  0.00    -0.390 OA
HETATM   17  H   UNK     0     149.640 146.744 141.980  0.00  0.00     0.210 HD
ENDBRANCH  12  16
BRANCH  14  18
HETATM   18  O   UNK     0     147.740 148.186 142.478  0.00  0.00    -0.390 OA
HETATM   19  H   UNK     0     147.671 147.218 142.555  0.00  0.00     0.210 HD
ENDBRANCH  14  18
BRANCH  15  20
HETATM   20  O   UNK     0     147.150 148.460 145.184  0.00  0.00    -0.388 OA
HETATM   21  H   UNK     0     146.377 148.414 144.596  0.00  0.00     0.210 HD
ENDBRANCH  15  20
ENDBRANCH   8   9
ENDBRANCH   7   8
ENDBRANCH   2   7
BRANCH   6  22
HETATM   22  O   UNK     0     150.110 153.738 149.848  0.00  0.00    -0.311 OA
BRANCH  22  23
HETATM   23  C   UNK     0     149.409 154.922 149.918  0.00  0.00     0.157 A 
HETATM   24  C   UNK     0     149.890 156.027 150.515  0.00  0.00     0.124 A 
HETATM   25  O   UNK     0     149.197 157.222 150.632  0.00  0.00    -0.306 OA
HETATM   26  C   UNK     0     147.941 157.306 150.089  0.00  0.00     0.096 A 
HETATM   27  C   UNK     0     147.328 156.240 149.436  0.00  0.00     0.084 A 
HETATM   28  C   UNK     0     147.274 158.525 150.214  0.00  0.00     0.075 A 
HETATM   29  C   UNK     0     148.052 154.964 149.320  0.00  0.00     0.223 A 
HETATM   30  C   UNK     0     146.044 156.383 148.902  0.00  0.00     0.085 A 
HETATM   31  O   UNK     0     147.562 153.992 148.763  0.00  0.00    -0.284 OA
HETATM   32  C   UNK     0     145.379 157.603 149.028  0.00  0.00     0.074 A 
HETATM   33  C   UNK     0     145.992 158.672 149.682  0.00  0.00     0.071 A 
BRANCH  24  34
HETATM   34  C   UNK     0     151.223 156.072 151.141  0.00  0.00     0.004 A 
HETATM   35  C   UNK     0     151.491 155.299 152.270  0.00  0.00     0.053 A 
HETATM   36  C   UNK     0     152.753 155.340 152.862  0.00  0.00     0.099 A 
HETATM   37  C   UNK     0     153.748 156.157 152.325  0.00  0.00     0.098 A 
HETATM   38  C   UNK     0     153.481 156.931 151.196  0.00  0.00     0.040 A 
HETATM   39  C   UNK     0     152.219 156.888 150.604  0.00  0.00     0.017 A 
BRANCH  36  40
HETATM   40  O   UNK     0     153.002 154.581 153.966  0.00  0.00    -0.358 OA
HETATM   41  H   UNK     0     153.246 153.681 153.695  0.00  0.00     0.217 HD
ENDBRANCH  36  40
BRANCH  37  42
HETATM   42  O   UNK     0     154.985 156.205 152.893  0.00  0.00    -0.358 OA
HETATM   43  H   UNK     0     155.159 155.379 153.370  0.00  0.00     0.217 HD
ENDBRANCH  37  42
ENDBRANCH  24  34
BRANCH  30  44
HETATM   44  O   UNK     0     145.401 155.372 148.256  0.00  0.00    -0.360 OA
HETATM   45  H   UNK     0     144.788 155.745 147.598  0.00  0.00     0.217 HD
ENDBRANCH  30  44
BRANCH  33  46
HETATM   46  O   UNK     0     145.339 159.860 149.803  0.00  0.00    -0.361 OA
HETATM   47  H   UNK     0     145.817 160.420 150.439  0.00  0.00     0.217 HD
ENDBRANCH  33  46
ENDBRANCH  22  23
ENDBRANCH   6  22
BRANCH   3  48
HETATM   48  O   UNK     0     152.460 151.792 145.252  0.00  0.00    -0.390 OA
HETATM   49  H   UNK     0     151.876 151.282 144.666  0.00  0.00     0.210 HD
ENDBRANCH   3  48
BRANCH   5  50
HETATM   50  O   UNK     0     152.931 153.735 149.611  0.00  0.00    -0.388 OA
HETATM   51  H   UNK     0     152.549 154.628 149.588  0.00  0.00     0.210 HD
ENDBRANCH   5  50
BRANCH   4  52
HETATM   52  O   UNK     0     153.876 151.640 147.767  0.00  0.00    -0.390 OA
HETATM   53  H   UNK     0     154.080 151.190 146.929  0.00  0.00     0.210 HD
ENDBRANCH   4  52
TORSDOF 16
ENDMDL
MODEL 9
REMARK VINA RESULT:      -8.4      3.738      8.613
REMARK  16 active torsions:
REMARK  status: ('A' for Active; 'I' for Inactive)
REMARK    1  A    between atoms: O_2  and  C_22 
REMARK    2  A    between atoms: O_2  and  C_26 
REMARK    3  A    between atoms: O_4  and  C_18 
REMARK    4  A    between atoms: O_5  and  C_19 
REMARK    5  A    between atoms: O_6  and  C_25 
REMARK    6  A    between atoms: O_6  and  C_29 
REMARK    7  A    between atoms: O_7  and  C_20 
REMARK    8  A    between atoms: O_8  and  C_21 
REMARK    9  A    between atoms: O_9  and  C_23 
REMARK   10  A    between atoms: O_10  and  C_24 
REMARK   11  A    between atoms: O_13  and  C_35 
REMARK   12  A    between atoms: O_14  and  C_40 
REMARK   13  A    between atoms: O_15  and  C_41 
REMARK   14  A    between atoms: O_16  and  C_43 
REMARK   15  A    between atoms: C_17  and  C_26 
REMARK   16  A    between atoms: C_30  and  C_33 
ROOT
HETATM    1  O   UNK     0     153.117 159.669 149.246  0.00  0.00    -0.348 OA
HETATM    2  C   UNK     0     153.612 158.421 149.734  0.00  0.00     0.180 C 
HETATM    3  C   UNK     0     154.820 158.659 150.644  0.00  0.00     0.180 C 
HETATM    4  C   UNK     0     155.902 159.453 149.913  0.00  0.00     0.183 C 
HETATM    5  C   UNK     0     155.319 160.696 149.241  0.00  0.00     0.205 C 
HETATM    6  C   UNK     0     154.067 160.354 148.433  0.00  0.00     0.298 C 
ENDROOT
BRANCH   2   7
HETATM    7  C   UNK     0     152.471 157.733 150.476  0.00  0.00     0.205 C 
BRANCH   7   8
HETATM    8  O   UNK     0     152.843 156.391 150.754  0.00  0.00    -0.356 OA
BRANCH   8   9
HETATM    9  C   UNK     0     151.804 155.693 151.433  0.00  0.00     0.291 C 
HETATM   10  O   UNK     0     152.105 155.475 152.815  0.00  0.00    -0.351 OA
HETATM   11  C   UNK     0     153.236 154.627 153.042  0.00  0.00     0.152 C 
HETATM   12  C   UNK     0     153.022 153.243 152.413  0.00  0.00     0.178 C 
HETATM   13  C   UNK     0     153.434 154.543 154.553  0.00  0.00     0.042 C 
HETATM   14  C   UNK     0     152.681 153.387 150.929  0.00  0.00     0.183 C 
HETATM   15  C   UNK     0     151.525 154.368 150.726  0.00  0.00     0.204 C 
BRANCH  12  16
HETATM   16  O   UNK     0     154.210 152.463 152.522  0.00  0.00    -0.390 OA
HETATM   17  H   UNK     0     154.395 152.077 151.649  0.00  0.00     0.210 HD
ENDBRANCH  12  16
BRANCH  14  18
HETATM   18  O   UNK     0     152.333 152.109 150.402  0.00  0.00    -0.390 OA
HETATM   19  H   UNK     0     152.774 151.433 150.946  0.00  0.00     0.210 HD
ENDBRANCH  14  18
BRANCH  15  20
HETATM   20  O   UNK     0     150.323 153.825 151.276  0.00  0.00    -0.388 OA
HETATM   21  H   UNK     0     150.389 153.857 152.246  0.00  0.00     0.210 HD
ENDBRANCH  15  20
ENDBRANCH   8   9
ENDBRANCH   7   8
ENDBRANCH   2   7
BRANCH   6  22
HETATM   22  O   UNK     0     153.503 161.576 147.958  0.00  0.00    -0.311 OA
BRANCH  22  23
HETATM   23  C   UNK     0     152.281 161.370 147.355  0.00  0.00     0.157 A 
HETATM   24  C   UNK     0     151.110 161.665 147.947  0.00  0.00     0.124 A 
HETATM   25  O   UNK     0     149.864 161.441 147.382  0.00  0.00    -0.306 OA
HETATM   26  C   UNK     0     149.805 160.899 146.124  0.00  0.00     0.096 A 
HETATM   27  C   UNK     0     150.941 160.555 145.396  0.00  0.00     0.084 A 
HETATM   28  C   UNK     0     148.537 160.695 145.579  0.00  0.00     0.075 A 
HETATM   29  C   UNK     0     152.266 160.779 145.995  0.00  0.00     0.223 A 
HETATM   30  C   UNK     0     150.820 160.005 144.117  0.00  0.00     0.085 A 
HETATM   31  O   UNK     0     153.299 160.491 145.405  0.00  0.00    -0.284 OA
HETATM   32  C   UNK     0     149.550 159.801 143.573  0.00  0.00     0.074 A 
HETATM   33  C   UNK     0     148.412 160.146 144.302  0.00  0.00     0.071 A 
BRANCH  24  34
HETATM   34  C   UNK     0     151.031 162.249 149.298  0.00  0.00     0.004 A 
HETATM   35  C   UNK     0     150.196 161.677 150.258  0.00  0.00     0.053 A 
HETATM   36  C   UNK     0     150.122 162.227 151.537  0.00  0.00     0.099 A 
HETATM   37  C   UNK     0     150.882 163.353 151.857  0.00  0.00     0.098 A 
HETATM   38  C   UNK     0     151.716 163.926 150.897  0.00  0.00     0.040 A 
HETATM   39  C   UNK     0     151.791 163.374 149.619  0.00  0.00     0.017 A 
BRANCH  36  40
HETATM   40  O   UNK     0     149.302 161.660 152.466  0.00  0.00    -0.358 OA
HETATM   41  H   UNK     0     149.101 162.306 153.163  0.00  0.00     0.217 HD
ENDBRANCH  36  40
BRANCH  37  42
HETATM   42  O   UNK     0     150.819 163.899 153.103  0.00  0.00    -0.358 OA
HETATM   43  H   UNK     0     151.079 164.833 153.064  0.00  0.00     0.217 HD
ENDBRANCH  37  42
ENDBRANCH  24  34
BRANCH  30  44
HETATM   44  O   UNK     0     151.897 159.651 143.364  0.00  0.00    -0.360 OA
HETATM   45  H   UNK     0     151.858 160.107 142.506  0.00  0.00     0.217 HD
ENDBRANCH  30  44
BRANCH  33  46
HETATM   46  O   UNK     0     147.176 159.945 143.768  0.00  0.00    -0.361 OA
HETATM   47  H   UNK     0     147.214 160.118 142.812  0.00  0.00     0.217 HD
ENDBRANCH  33  46
ENDBRANCH  22  23
ENDBRANCH   6  22
BRANCH   3  48
HETATM   48  O   UNK     0     155.354 157.403 151.055  0.00  0.00    -0.390 OA
HETATM   49  H   UNK     0     156.067 157.164 150.441  0.00  0.00     0.210 HD
ENDBRANCH   3  48
BRANCH   5  50
HETATM   50  O   UNK     0     156.287 161.253 148.353  0.00  0.00    -0.388 OA
HETATM   51  H   UNK     0     156.256 160.753 147.520  0.00  0.00     0.210 HD
ENDBRANCH   5  50
BRANCH   4  52
HETATM   52  O   UNK     0     156.884 159.848 150.874  0.00  0.00    -0.390 OA
HETATM   53  H   UNK     0     157.757 159.656 150.493  0.00  0.00     0.210 HD
ENDBRANCH   4  52
TORSDOF 16
ENDMDL
MODEL 10
REMARK VINA RESULT:      -8.4      4.701      7.292
REMARK  16 active torsions:
REMARK  status: ('A' for Active; 'I' for Inactive)
REMARK    1  A    between atoms: O_2  and  C_22 
REMARK    2  A    between atoms: O_2  and  C_26 
REMARK    3  A    between atoms: O_4  and  C_18 
REMARK    4  A    between atoms: O_5  and  C_19 
REMARK    5  A    between atoms: O_6  and  C_25 
REMARK    6  A    between atoms: O_6  and  C_29 
REMARK    7  A    between atoms: O_7  and  C_20 
REMARK    8  A    between atoms: O_8  and  C_21 
REMARK    9  A    between atoms: O_9  and  C_23 
REMARK   10  A    between atoms: O_10  and  C_24 
REMARK   11  A    between atoms: O_13  and  C_35 
REMARK   12  A    between atoms: O_14  and  C_40 
REMARK   13  A    between atoms: O_15  and  C_41 
REMARK   14  A    between atoms: O_16  and  C_43 
REMARK   15  A    between atoms: C_17  and  C_26 
REMARK   16  A    between atoms: C_30  and  C_33 
ROOT
HETATM    1  O   UNK     0     151.900 161.527 149.587  0.00  0.00    -0.348 OA
HETATM    2  C   UNK     0     151.750 162.657 148.725  0.00  0.00     0.180 C 
HETATM    3  C   UNK     0     152.080 163.942 149.488  0.00  0.00     0.180 C 
HETATM    4  C   UNK     0     151.214 164.066 150.742  0.00  0.00     0.183 C 
HETATM    5  C   UNK     0     151.241 162.776 151.563  0.00  0.00     0.205 C 
HETATM    6  C   UNK     0     150.989 161.552 150.683  0.00  0.00     0.298 C 
ENDROOT
BRANCH   2   7
HETATM    7  C   UNK     0     152.682 162.452 147.534  0.00  0.00     0.205 C 
BRANCH   7   8
HETATM    8  O   UNK     0     153.276 161.165 147.628  0.00  0.00    -0.356 OA
BRANCH   8   9
HETATM    9  C   UNK     0     154.639 161.190 147.217  0.00  0.00     0.291 C 
HETATM   10  O   UNK     0     154.997 160.040 146.445  0.00  0.00    -0.351 OA
HETATM   11  C   UNK     0     154.922 158.804 147.163  0.00  0.00     0.152 C 
HETATM   12  C   UNK     0     155.849 158.821 148.386  0.00  0.00     0.178 C 
HETATM   13  C   UNK     0     155.290 157.694 146.182  0.00  0.00     0.042 C 
HETATM   14  C   UNK     0     155.539 160.034 149.264  0.00  0.00     0.183 C 
HETATM   15  C   UNK     0     155.545 161.322 148.440  0.00  0.00     0.204 C 
BRANCH  12  16
HETATM   16  O   UNK     0     155.654 157.645 149.169  0.00  0.00    -0.390 OA
HETATM   17  H   UNK     0     155.371 156.932 148.572  0.00  0.00     0.210 HD
ENDBRANCH  12  16
BRANCH  14  18
HETATM   18  O   UNK     0     156.509 160.119 150.306  0.00  0.00    -0.390 OA
HETATM   19  H   UNK     0     157.281 160.596 149.954  0.00  0.00     0.210 HD
ENDBRANCH  14  18
BRANCH  15  20
HETATM   20  O   UNK     0     156.867 161.597 147.975  0.00  0.00    -0.388 OA
HETATM   21  H   UNK     0     157.467 161.601 148.740  0.00  0.00     0.210 HD
ENDBRANCH  15  20
ENDBRANCH   8   9
ENDBRANCH   7   8
ENDBRANCH   2   7
BRANCH   6  22
HETATM   22  O   UNK     0     151.171 160.387 151.488  0.00  0.00    -0.311 OA
BRANCH  22  23
HETATM   23  C   UNK     0     150.333 159.365 151.098  0.00  0.00     0.157 A 
HETATM   24  C   UNK     0     150.704 158.072 151.095  0.00  0.00     0.124 A 
HETATM   25  O   UNK     0     149.898 157.024 150.678  0.00  0.00    -0.306 OA
HETATM   26  C   UNK     0     148.624 157.306 150.256  0.00  0.00     0.096 A 
HETATM   27  C   UNK     0     148.111 158.601 150.218  0.00  0.00     0.084 A 
HETATM   28  C   UNK     0     147.834 156.229 149.853  0.00  0.00     0.075 A 
HETATM   29  C   UNK     0     148.966 159.719 150.646  0.00  0.00     0.223 A 
HETATM   30  C   UNK     0     146.805 158.829 149.777  0.00  0.00     0.085 A 
HETATM   31  O   UNK     0     148.571 160.877 150.629  0.00  0.00    -0.284 OA
HETATM   32  C   UNK     0     146.016 157.750 149.374  0.00  0.00     0.074 A 
HETATM   33  C   UNK     0     146.529 156.453 149.412  0.00  0.00     0.071 A 
BRANCH  24  34
HETATM   34  C   UNK     0     152.044 157.631 151.521  0.00  0.00     0.004 A 
HETATM   35  C   UNK     0     152.987 158.570 151.941  0.00  0.00     0.053 A 
HETATM   36  C   UNK     0     154.255 158.153 152.346  0.00  0.00     0.099 A 
HETATM   37  C   UNK     0     154.581 156.797 152.330  0.00  0.00     0.098 A 
HETATM   38  C   UNK     0     153.639 155.858 151.909  0.00  0.00     0.040 A 
HETATM   39  C   UNK     0     152.371 156.275 151.506  0.00  0.00     0.017 A 
BRANCH  36  40
HETATM   40  O   UNK     0     155.168 159.080 152.753  0.00  0.00    -0.358 OA
HETATM   41  H   UNK     0     154.822 159.563 153.521  0.00  0.00     0.217 HD
ENDBRANCH  36  40
BRANCH  37  42
HETATM   42  O   UNK     0     155.816 156.378 152.724  0.00  0.00    -0.358 OA
HETATM   43  H   UNK     0     156.489 156.736 152.125  0.00  0.00     0.217 HD
ENDBRANCH  37  42
ENDBRANCH  24  34
BRANCH  30  44
HETATM   44  O   UNK     0     146.256 160.073 149.719  0.00  0.00    -0.360 OA
HETATM   45  H   UNK     0     146.160 160.344 148.790  0.00  0.00     0.217 HD
ENDBRANCH  30  44
BRANCH  33  46
HETATM   46  O   UNK     0     145.756 155.404 149.018  0.00  0.00    -0.361 OA
HETATM   47  H   UNK     0     145.710 155.394 148.047  0.00  0.00     0.217 HD
ENDBRANCH  33  46
ENDBRANCH  22  23
ENDBRANCH   6  22
BRANCH   3  48
HETATM   48  O   UNK     0     151.847 165.065 148.642  0.00  0.00    -0.390 OA
HETATM   49  H   UNK     0     152.595 165.677 148.742  0.00  0.00     0.210 HD
ENDBRANCH   3  48
BRANCH   5  50
HETATM   50  O   UNK     0     150.222 162.829 152.561  0.00  0.00    -0.388 OA
HETATM   51  H   UNK     0     150.623 163.155 153.384  0.00  0.00     0.210 HD
ENDBRANCH   5  50
BRANCH   4  52
HETATM   52  O   UNK     0     151.728 165.142 151.529  0.00  0.00    -0.390 OA
HETATM   53  H   UNK     0     152.667 165.248 151.298  0.00  0.00     0.210 HD
ENDBRANCH   4  52
TORSDOF 16
ENDMDL
