MODEL 1
REMARK VINA RESULT:      -9.0      0.000      0.000
REMARK  Name = 5280805
REMARK                            x       y       z     vdW  Elec       q    Type
REMARK                         _______ _______ _______ _____ _____    ______ ____
ROOT
ATOM      1  O   LIG    1       19.202  68.670  10.849  0.00  0.00    -0.331 OA
ATOM      2  C   LIG    1       17.873  68.939  11.291  0.00  0.00    +0.340 C 
ATOM      3  C   LIG    1       17.873  69.376  12.756  0.00  0.00    +0.214 C 
ATOM      4  C   LIG    1       18.822  70.552  12.986  0.00  0.00    +0.180 C 
ATOM      5  C   LIG    1       20.190  70.290  12.357  0.00  0.00    +0.177 C 
ATOM     38  C   LIG    1       20.042  69.825  10.907  0.00  0.00    +0.179 C 
ENDROOT
BRANCH   5   6
ATOM      6  O   LIG    1       20.961  71.489  12.390  0.00  0.00    -0.386 OA
ATOM      7  H   LIG    1       20.594  72.101  11.730  0.00  0.00    +0.210 HD
ENDBRANCH   5   6
BRANCH   4   8
ATOM      8  O   LIG    1       19.010  70.745  14.389  0.00  0.00    -0.386 OA
ATOM      9  H   LIG    1       18.492  71.526  14.648  0.00  0.00    +0.210 HD
ENDBRANCH   4   8
BRANCH   3  10
ATOM     10  O   LIG    1       16.545  69.762  13.108  0.00  0.00    -0.383 OA
ATOM     11  H   LIG    1       16.341  69.382  13.979  0.00  0.00    +0.210 HD
ENDBRANCH   3  10
BRANCH   2  12
ATOM     12  O   LIG    1       17.082  67.756  11.185  0.00  0.00    -0.453 OA
BRANCH  12  13
ATOM     13  C   LIG    1       16.419  67.696   9.979  0.00  0.00    +0.214 A 
ATOM     14  C   LIG    1       15.066  68.297   9.896  0.00  0.00    +0.238 A 
ATOM     15  C   LIG    1       14.402  68.231   8.585  0.00  0.00    +0.109 A 
ATOM     16  C   LIG    1       13.123  68.768   8.405  0.00  0.00    +0.135 A 
ATOM     17  C   LIG    1       12.517  68.693   7.150  0.00  0.00    +0.091 A 
ATOM     18  C   LIG    1       13.183  68.088   6.084  0.00  0.00    +0.124 A 
ATOM     19  C   LIG    1       14.459  67.555   6.268  0.00  0.00    +0.092 A 
ATOM     24  C   LIG    1       15.068  67.627   7.521  0.00  0.00    +0.147 A 
ATOM     25  O   LIG    1       16.322  67.087   7.641  0.00  0.00    -0.451 OA
ATOM     26  O   LIG    1       14.532  68.821  10.865  0.00  0.00    -0.283 OA
ATOM     27  C   LIG    1       16.948  67.134   8.876  0.00  0.00    +0.181 A 
BRANCH  27  28
ATOM     28  C   LIG    1       18.287  66.521   8.866  0.00  0.00    +0.025 A 
ATOM     29  C   LIG    1       18.562  65.429   9.690  0.00  0.00    +0.015 A 
ATOM     30  C   LIG    1       19.829  64.848   9.680  0.00  0.00    +0.050 A 
ATOM     31  C   LIG    1       20.824  65.359   8.847  0.00  0.00    +0.158 A 
ATOM     32  C   LIG    1       20.551  66.449   8.022  0.00  0.00    +0.159 A 
ATOM     37  C   LIG    1       19.283  67.030   8.032  0.00  0.00    +0.060 A 
BRANCH  32  33
ATOM     33  O   LIG    1       21.514  66.956   7.202  0.00  0.00    -0.503 OA
ATOM     34  H   LIG    1       22.321  66.420   7.276  0.00  0.00    +0.292 HD
ENDBRANCH  32  33
BRANCH  31  35
ATOM     35  O   LIG    1       22.059  64.784   8.847  0.00  0.00    -0.503 OA
ATOM     36  H   LIG    1       22.040  63.967   9.370  0.00  0.00    +0.292 HD
ENDBRANCH  31  35
ENDBRANCH  27  28
BRANCH  18  20
ATOM     20  O   LIG    1       12.588  68.019   4.862  0.00  0.00    -0.507 OA
ATOM     21  H   LIG    1       12.422  67.086   4.644  0.00  0.00    +0.292 HD
ENDBRANCH  18  20
BRANCH  16  22
ATOM     22  O   LIG    1       12.429  69.369   9.411  0.00  0.00    -0.506 OA
ATOM     23  H   LIG    1       12.768  69.059  10.269  0.00  0.00    +0.292 HD
ENDBRANCH  16  22
ENDBRANCH  12  13
ENDBRANCH   2  12
BRANCH  38  39
ATOM     39  C   LIG    1       21.386  69.446  10.294  0.00  0.00    +0.197 C 
BRANCH  39  40
ATOM     40  O   LIG    1       22.171  68.784  11.276  0.00  0.00    -0.346 OA
BRANCH  40  41
ATOM     41  C   LIG    1       22.762  67.597  10.757  0.00  0.00    +0.282 C 
ATOM     42  C   LIG    1       23.779  67.956   9.676  0.00  0.00    +0.201 C 
ATOM     43  C   LIG    1       25.013  68.622  10.287  0.00  0.00    +0.179 C 
ATOM     44  C   LIG    1       25.585  67.775  11.425  0.00  0.00    +0.174 C 
ATOM     45  C   LIG    1       24.479  67.426  12.430  0.00  0.00    +0.149 C 
ATOM     46  C   LIG    1       24.968  66.460  13.506  0.00  0.00    +0.041 C 
ATOM     53  O   LIG    1       23.370  66.799  11.778  0.00  0.00    -0.343 OA
BRANCH  44  47
ATOM     47  O   LIG    1       26.614  68.526  12.064  0.00  0.00    -0.387 OA
ATOM     48  H   LIG    1       26.247  68.896  12.885  0.00  0.00    +0.210 HD
ENDBRANCH  44  47
BRANCH  43  49
ATOM     49  O   LIG    1       26.014  68.802   9.287  0.00  0.00    -0.386 OA
ATOM     50  H   LIG    1       26.754  69.285   9.693  0.00  0.00    +0.210 HD
ENDBRANCH  43  49
BRANCH  42  51
ATOM     51  O   LIG    1       24.155  66.748   9.013  0.00  0.00    -0.384 OA
ATOM     52  H   LIG    1       23.696  66.712   8.157  0.00  0.00    +0.210 HD
ENDBRANCH  42  51
ENDBRANCH  40  41
ENDBRANCH  39  40
ENDBRANCH  38  39
TORSDOF 16
ENDMDL
MODEL 2
REMARK VINA RESULT:      -8.2     30.151     32.194
REMARK  Name = 5280805
REMARK                            x       y       z     vdW  Elec       q    Type
REMARK                         _______ _______ _______ _____ _____    ______ ____
ROOT
ATOM      1  O   LIG    1        7.887  43.903  25.743  0.00  0.00    -0.331 OA
ATOM      2  C   LIG    1        7.657  44.533  24.485  0.00  0.00    +0.340 C 
ATOM      3  C   LIG    1        8.632  45.693  24.279  0.00  0.00    +0.214 C 
ATOM      4  C   LIG    1       10.081  45.239  24.457  0.00  0.00    +0.180 C 
ATOM      5  C   LIG    1       10.253  44.428  25.742  0.00  0.00    +0.177 C 
ATOM     38  C   LIG    1        9.192  43.329  25.838  0.00  0.00    +0.179 C 
ENDROOT
BRANCH   5   6
ATOM      6  O   LIG    1       11.549  43.835  25.753  0.00  0.00    -0.386 OA
ATOM      7  H   LIG    1       12.208  44.549  25.749  0.00  0.00    +0.210 HD
ENDBRANCH   5   6
BRANCH   4   8
ATOM      8  O   LIG    1       10.931  46.384  24.540  0.00  0.00    -0.386 OA
ATOM      9  H   LIG    1       11.785  46.088  24.899  0.00  0.00    +0.210 HD
ENDBRANCH   4   8
BRANCH   3  10
ATOM     10  O   LIG    1        8.452  46.199  22.957  0.00  0.00    -0.383 OA
ATOM     11  H   LIG    1        9.124  45.792  22.384  0.00  0.00    +0.210 HD
ENDBRANCH   3  10
BRANCH   2  12
ATOM     12  O   LIG    1        6.331  45.061  24.446  0.00  0.00    -0.453 OA
BRANCH  12  13
ATOM     13  C   LIG    1        5.421  44.115  24.028  0.00  0.00    +0.214 A 
ATOM     14  C   LIG    1        4.734  43.303  25.062  0.00  0.00    +0.238 A 
ATOM     15  C   LIG    1        3.755  42.320  24.575  0.00  0.00    +0.109 A 
ATOM     16  C   LIG    1        3.056  41.505  25.471  0.00  0.00    +0.135 A 
ATOM     17  C   LIG    1        2.130  40.582  24.981  0.00  0.00    +0.091 A 
ATOM     18  C   LIG    1        1.905  40.475  23.609  0.00  0.00    +0.124 A 
ATOM     19  C   LIG    1        2.603  41.290  22.719  0.00  0.00    +0.092 A 
ATOM     24  C   LIG    1        3.530  42.214  23.205  0.00  0.00    +0.147 A 
ATOM     25  O   LIG    1        4.185  42.988  22.282  0.00  0.00    -0.451 OA
ATOM     26  O   LIG    1        4.969  43.445  26.254  0.00  0.00    -0.283 OA
ATOM     27  C   LIG    1        5.119  43.907  22.733  0.00  0.00    +0.181 A 
BRANCH  27  28
ATOM     28  C   LIG    1        5.747  44.672  21.642  0.00  0.00    +0.025 A 
ATOM     29  C   LIG    1        6.725  44.076  20.845  0.00  0.00    +0.015 A 
ATOM     30  C   LIG    1        7.319  44.800  19.811  0.00  0.00    +0.050 A 
ATOM     31  C   LIG    1        6.937  46.120  19.575  0.00  0.00    +0.158 A 
ATOM     32  C   LIG    1        5.960  46.716  20.370  0.00  0.00    +0.159 A 
ATOM     37  C   LIG    1        5.365  45.992  21.404  0.00  0.00    +0.060 A 
BRANCH  32  33
ATOM     33  O   LIG    1        5.576  48.005  20.148  0.00  0.00    -0.503 OA
ATOM     34  H   LIG    1        5.081  48.059  19.315  0.00  0.00    +0.292 HD
ENDBRANCH  32  33
BRANCH  31  35
ATOM     35  O   LIG    1        7.526  46.817  18.563  0.00  0.00    -0.503 OA
ATOM     36  H   LIG    1        7.301  46.411  17.712  0.00  0.00    +0.292 HD
ENDBRANCH  31  35
ENDBRANCH  27  28
BRANCH  18  20
ATOM     20  O   LIG    1        1.000  39.573  23.137  0.00  0.00    -0.507 OA
ATOM     21  H   LIG    1        1.428  38.702  23.070  0.00  0.00    +0.292 HD
ENDBRANCH  18  20
BRANCH  16  22
ATOM     22  O   LIG    1        3.238  41.569  26.819  0.00  0.00    -0.506 OA
ATOM     23  H   LIG    1        3.302  42.500  27.093  0.00  0.00    +0.292 HD
ENDBRANCH  16  22
ENDBRANCH  12  13
ENDBRANCH   2  12
BRANCH  38  39
ATOM     39  C   LIG    1        9.271  42.582  27.165  0.00  0.00    +0.197 C 
BRANCH  39  40
ATOM     40  O   LIG    1        7.987  42.583  27.773  0.00  0.00    -0.346 OA
BRANCH  40  41
ATOM     41  C   LIG    1        8.051  42.150  29.127  0.00  0.00    +0.282 C 
ATOM     42  C   LIG    1        6.920  42.791  29.929  0.00  0.00    +0.201 C 
ATOM     43  C   LIG    1        5.566  42.203  29.526  0.00  0.00    +0.179 C 
ATOM     44  C   LIG    1        5.590  40.676  29.592  0.00  0.00    +0.174 C 
ATOM     45  C   LIG    1        6.786  40.133  28.800  0.00  0.00    +0.149 C 
ATOM     46  C   LIG    1        6.938  38.621  28.957  0.00  0.00    +0.041 C 
ATOM     53  O   LIG    1        8.011  40.724  29.247  0.00  0.00    -0.343 OA
BRANCH  44  47
ATOM     47  O   LIG    1        4.369  40.188  29.040  0.00  0.00    -0.387 OA
ATOM     48  H   LIG    1        3.750  40.036  29.774  0.00  0.00    +0.210 HD
ENDBRANCH  44  47
BRANCH  43  49
ATOM     49  O   LIG    1        4.546  42.695  30.393  0.00  0.00    -0.386 OA
ATOM     50  H   LIG    1        3.687  42.464  30.001  0.00  0.00    +0.210 HD
ENDBRANCH  43  49
BRANCH  42  51
ATOM     51  O   LIG    1        7.169  42.537  31.312  0.00  0.00    -0.384 OA
ATOM     52  H   LIG    1        7.889  41.887  31.380  0.00  0.00    +0.210 HD
ENDBRANCH  42  51
ENDBRANCH  40  41
ENDBRANCH  39  40
ENDBRANCH  38  39
TORSDOF 16
ENDMDL
MODEL 3
REMARK VINA RESULT:      -8.2     29.839     31.698
REMARK  Name = 5280805
REMARK                            x       y       z     vdW  Elec       q    Type
REMARK                         _______ _______ _______ _____ _____    ______ ____
ROOT
ATOM      1  O   LIG    1        7.755  43.798  25.723  0.00  0.00    -0.331 OA
ATOM      2  C   LIG    1        7.498  44.463  24.488  0.00  0.00    +0.340 C 
ATOM      3  C   LIG    1        8.454  45.642  24.304  0.00  0.00    +0.214 C 
ATOM      4  C   LIG    1        9.911  45.203  24.447  0.00  0.00    +0.180 C 
ATOM      5  C   LIG    1       10.114  44.356  25.704  0.00  0.00    +0.177 C 
ATOM     38  C   LIG    1        9.069  43.240  25.780  0.00  0.00    +0.179 C 
ENDROOT
BRANCH   5   6
ATOM      6  O   LIG    1       11.417  43.780  25.678  0.00  0.00    -0.386 OA
ATOM      7  H   LIG    1       11.321  42.824  25.530  0.00  0.00    +0.210 HD
ENDBRANCH   5   6
BRANCH   4   8
ATOM      8  O   LIG    1       10.747  46.357  24.554  0.00  0.00    -0.386 OA
ATOM      9  H   LIG    1       10.268  47.016  25.085  0.00  0.00    +0.210 HD
ENDBRANCH   4   8
BRANCH   3  10
ATOM     10  O   LIG    1        8.248  46.187  23.001  0.00  0.00    -0.383 OA
ATOM     11  H   LIG    1        8.941  45.837  22.416  0.00  0.00    +0.210 HD
ENDBRANCH   3  10
BRANCH   2  12
ATOM     12  O   LIG    1        6.165  44.973  24.485  0.00  0.00    -0.453 OA
BRANCH  12  13
ATOM     13  C   LIG    1        5.258  44.020  24.076  0.00  0.00    +0.214 A 
ATOM     14  C   LIG    1        4.603  43.190  25.116  0.00  0.00    +0.238 A 
ATOM     15  C   LIG    1        3.625  42.199  24.640  0.00  0.00    +0.109 A 
ATOM     16  C   LIG    1        2.955  41.367  25.541  0.00  0.00    +0.135 A 
ATOM     17  C   LIG    1        2.031  40.437  25.062  0.00  0.00    +0.091 A 
ATOM     18  C   LIG    1        1.779  40.340  23.694  0.00  0.00    +0.124 A 
ATOM     19  C   LIG    1        2.449  41.173  22.797  0.00  0.00    +0.092 A 
ATOM     24  C   LIG    1        3.374  42.103  23.273  0.00  0.00    +0.147 A 
ATOM     25  O   LIG    1        4.000  42.894  22.345  0.00  0.00    -0.451 OA
ATOM     26  O   LIG    1        4.860  43.324  26.305  0.00  0.00    -0.283 OA
ATOM     27  C   LIG    1        4.932  43.821  22.786  0.00  0.00    +0.181 A 
BRANCH  27  28
ATOM     28  C   LIG    1        5.528  44.603  21.689  0.00  0.00    +0.025 A 
ATOM     29  C   LIG    1        6.514  44.035  20.882  0.00  0.00    +0.015 A 
ATOM     30  C   LIG    1        7.078  44.776  19.844  0.00  0.00    +0.050 A 
ATOM     31  C   LIG    1        6.657  46.085  19.612  0.00  0.00    +0.158 A 
ATOM     32  C   LIG    1        5.672  46.654  20.418  0.00  0.00    +0.159 A 
ATOM     37  C   LIG    1        5.107  45.913  21.456  0.00  0.00    +0.060 A 
BRANCH  32  33
ATOM     33  O   LIG    1        5.251  47.931  20.200  0.00  0.00    -0.503 OA
ATOM     34  H   LIG    1        5.905  48.403  19.660  0.00  0.00    +0.292 HD
ENDBRANCH  32  33
BRANCH  31  35
ATOM     35  O   LIG    1        7.217  46.800  18.596  0.00  0.00    -0.503 OA
ATOM     36  H   LIG    1        7.358  46.222  17.829  0.00  0.00    +0.292 HD
ENDBRANCH  31  35
ENDBRANCH  27  28
BRANCH  18  20
ATOM     20  O   LIG    1        0.877  39.432  23.232  0.00  0.00    -0.507 OA
ATOM     21  H   LIG    1        0.341  39.111  23.977  0.00  0.00    +0.292 HD
ENDBRANCH  18  20
BRANCH  16  22
ATOM     22  O   LIG    1        3.163  41.422  26.886  0.00  0.00    -0.506 OA
ATOM     23  H   LIG    1        3.511  40.567  27.195  0.00  0.00    +0.292 HD
ENDBRANCH  16  22
ENDBRANCH  12  13
ENDBRANCH   2  12
BRANCH  38  39
ATOM     39  C   LIG    1        9.177  42.453  27.083  0.00  0.00    +0.197 C 
BRANCH  39  40
ATOM     40  O   LIG    1        9.647  43.318  28.107  0.00  0.00    -0.346 OA
BRANCH  40  41
ATOM     41  C   LIG    1       10.391  42.605  29.090  0.00  0.00    +0.282 C 
ATOM     42  C   LIG    1       11.070  43.591  30.039  0.00  0.00    +0.201 C 
ATOM     43  C   LIG    1       10.040  44.282  30.935  0.00  0.00    +0.179 C 
ATOM     44  C   LIG    1        9.147  43.257  31.634  0.00  0.00    +0.174 C 
ATOM     45  C   LIG    1        8.553  42.286  30.606  0.00  0.00    +0.149 C 
ATOM     46  C   LIG    1        7.771  41.155  31.270  0.00  0.00    +0.041 C 
ATOM     53  O   LIG    1        9.582  41.676  29.819  0.00  0.00    -0.343 OA
BRANCH  44  47
ATOM     47  O   LIG    1        8.106  43.961  32.307  0.00  0.00    -0.387 OA
ATOM     48  H   LIG    1        7.845  44.712  31.748  0.00  0.00    +0.210 HD
ENDBRANCH  44  47
BRANCH  43  49
ATOM     49  O   LIG    1       10.705  45.073  31.918  0.00  0.00    -0.386 OA
ATOM     50  H   LIG    1       11.653  44.863  31.876  0.00  0.00    +0.210 HD
ENDBRANCH  43  49
BRANCH  42  51
ATOM     51  O   LIG    1       11.997  42.856  30.840  0.00  0.00    -0.384 OA
ATOM     52  H   LIG    1       12.259  42.057  30.351  0.00  0.00    +0.210 HD
ENDBRANCH  42  51
ENDBRANCH  40  41
ENDBRANCH  39  40
ENDBRANCH  38  39
TORSDOF 16
ENDMDL
MODEL 4
REMARK VINA RESULT:      -8.1     29.701     31.705
REMARK  Name = 5280805
REMARK                            x       y       z     vdW  Elec       q    Type
REMARK                         _______ _______ _______ _____ _____    ______ ____
ROOT
ATOM      1  O   LIG    1        8.274  44.153  25.537  0.00  0.00    -0.331 OA
ATOM      2  C   LIG    1        8.373  44.623  24.194  0.00  0.00    +0.340 C 
ATOM      3  C   LIG    1        9.448  45.705  24.083  0.00  0.00    +0.214 C 
ATOM      4  C   LIG    1       10.786  45.218  24.639  0.00  0.00    +0.180 C 
ATOM      5  C   LIG    1       10.612  44.575  26.016  0.00  0.00    +0.177 C 
ATOM     38  C   LIG    1        9.482  43.543  25.994  0.00  0.00    +0.179 C 
ENDROOT
BRANCH   5   6
ATOM      6  O   LIG    1       11.828  43.934  26.393  0.00  0.00    -0.386 OA
ATOM      7  H   LIG    1       12.159  44.367  27.197  0.00  0.00    +0.210 HD
ENDBRANCH   5   6
BRANCH   4   8
ATOM      8  O   LIG    1       11.675  46.328  24.780  0.00  0.00    -0.386 OA
ATOM      9  H   LIG    1       12.581  45.990  24.675  0.00  0.00    +0.210 HD
ENDBRANCH   4   8
BRANCH   3  10
ATOM     10  O   LIG    1        9.603  46.042  22.704  0.00  0.00    -0.383 OA
ATOM     11  H   LIG    1        8.922  45.566  22.200  0.00  0.00    +0.210 HD
ENDBRANCH   3  10
BRANCH   2  12
ATOM     12  O   LIG    1        7.130  45.196  23.791  0.00  0.00    -0.453 OA
BRANCH  12  13
ATOM     13  C   LIG    1        6.237  44.232  23.379  0.00  0.00    +0.214 A 
ATOM     14  C   LIG    1        5.269  43.707  24.371  0.00  0.00    +0.238 A 
ATOM     15  C   LIG    1        4.319  42.695  23.885  0.00  0.00    +0.109 A 
ATOM     16  C   LIG    1        3.368  42.137  24.744  0.00  0.00    +0.135 A 
ATOM     17  C   LIG    1        2.477  41.180  24.255  0.00  0.00    +0.091 A 
ATOM     18  C   LIG    1        2.537  40.783  22.919  0.00  0.00    +0.124 A 
ATOM     19  C   LIG    1        3.488  41.343  22.064  0.00  0.00    +0.092 A 
ATOM     24  C   LIG    1        4.379  42.300  22.550  0.00  0.00    +0.147 A 
ATOM     25  O   LIG    1        5.290  42.814  21.664  0.00  0.00    -0.451 OA
ATOM     26  O   LIG    1        5.259  44.097  25.531  0.00  0.00    -0.283 OA
ATOM     27  C   LIG    1        6.196  43.760  22.119  0.00  0.00    +0.181 A 
BRANCH  27  28
ATOM     28  C   LIG    1        7.115  44.228  21.067  0.00  0.00    +0.025 A 
ATOM     29  C   LIG    1        8.205  43.443  20.691  0.00  0.00    +0.015 A 
ATOM     30  C   LIG    1        9.074  43.887  19.696  0.00  0.00    +0.050 A 
ATOM     31  C   LIG    1        8.855  45.117  19.076  0.00  0.00    +0.158 A 
ATOM     32  C   LIG    1        7.766  45.903  19.451  0.00  0.00    +0.159 A 
ATOM     37  C   LIG    1        6.896  45.458  20.446  0.00  0.00    +0.060 A 
BRANCH  32  33
ATOM     33  O   LIG    1        7.540  47.106  18.851  0.00  0.00    -0.503 OA
ATOM     34  H   LIG    1        8.309  47.684  18.982  0.00  0.00    +0.292 HD
ENDBRANCH  32  33
BRANCH  31  35
ATOM     35  O   LIG    1        9.713  45.541  18.106  0.00  0.00    -0.503 OA
ATOM     36  H   LIG    1       10.585  45.716  18.493  0.00  0.00    +0.292 HD
ENDBRANCH  31  35
ENDBRANCH  27  28
BRANCH  18  20
ATOM     20  O   LIG    1        1.666  39.850  22.446  0.00  0.00    -0.507 OA
ATOM     21  H   LIG    1        1.007  39.656  23.135  0.00  0.00    +0.292 HD
ENDBRANCH  18  20
BRANCH  16  22
ATOM     22  O   LIG    1        3.266  42.488  26.056  0.00  0.00    -0.506 OA
ATOM     23  H   LIG    1        2.328  42.530  26.308  0.00  0.00    +0.292 HD
ENDBRANCH  16  22
ENDBRANCH  12  13
ENDBRANCH   2  12
BRANCH  38  39
ATOM     39  C   LIG    1        9.212  42.972  27.383  0.00  0.00    +0.197 C 
BRANCH  39  40
ATOM     40  O   LIG    1        7.836  43.142  27.692  0.00  0.00    -0.346 OA
BRANCH  40  41
ATOM     41  C   LIG    1        7.150  41.895  27.724  0.00  0.00    +0.282 C 
ATOM     42  C   LIG    1        7.821  40.963  28.731  0.00  0.00    +0.201 C 
ATOM     43  C   LIG    1        7.573  41.439  30.164  0.00  0.00    +0.179 C 
ATOM     44  C   LIG    1        6.081  41.660  30.416  0.00  0.00    +0.174 C 
ATOM     45  C   LIG    1        5.491  42.567  29.327  0.00  0.00    +0.149 C 
ATOM     46  C   LIG    1        3.975  42.699  29.452  0.00  0.00    +0.041 C 
ATOM     53  O   LIG    1        5.759  42.044  28.022  0.00  0.00    -0.343 OA
BRANCH  44  47
ATOM     47  O   LIG    1        5.933  42.268  31.697  0.00  0.00    -0.387 OA
ATOM     48  H   LIG    1        6.696  42.853  31.839  0.00  0.00    +0.210 HD
ENDBRANCH  44  47
BRANCH  43  49
ATOM     49  O   LIG    1        8.067  40.473  31.089  0.00  0.00    -0.386 OA
ATOM     50  H   LIG    1        8.985  40.710  31.303  0.00  0.00    +0.210 HD
ENDBRANCH  43  49
BRANCH  42  51
ATOM     51  O   LIG    1        7.271  39.657  28.550  0.00  0.00    -0.384 OA
ATOM     52  H   LIG    1        6.869  39.374  29.389  0.00  0.00    +0.210 HD
ENDBRANCH  42  51
ENDBRANCH  40  41
ENDBRANCH  39  40
ENDBRANCH  38  39
TORSDOF 16
ENDMDL
MODEL 5
REMARK VINA RESULT:      -7.9     30.919     33.161
REMARK  Name = 5280805
REMARK                            x       y       z     vdW  Elec       q    Type
REMARK                         _______ _______ _______ _____ _____    ______ ____
ROOT
ATOM      1  O   LIG    1        5.827  43.131  24.629  0.00  0.00    -0.331 OA
ATOM      2  C   LIG    1        6.403  42.696  25.859  0.00  0.00    +0.340 C 
ATOM      3  C   LIG    1        7.928  42.658  25.754  0.00  0.00    +0.214 C 
ATOM      4  C   LIG    1        8.486  44.000  25.282  0.00  0.00    +0.180 C 
ATOM      5  C   LIG    1        7.735  44.510  24.052  0.00  0.00    +0.177 C 
ATOM     38  C   LIG    1        6.222  44.458  24.279  0.00  0.00    +0.179 C 
ENDROOT
BRANCH   5   6
ATOM      6  O   LIG    1        8.126  45.855  23.786  0.00  0.00    -0.386 OA
ATOM      7  H   LIG    1        7.338  46.345  23.496  0.00  0.00    +0.210 HD
ENDBRANCH   5   6
BRANCH   4   8
ATOM      8  O   LIG    1        9.861  43.844  24.926  0.00  0.00    -0.386 OA
ATOM      9  H   LIG    1       10.167  43.003  25.306  0.00  0.00    +0.210 HD
ENDBRANCH   4   8
BRANCH   3  10
ATOM     10  O   LIG    1        8.458  42.351  27.043  0.00  0.00    -0.383 OA
ATOM     11  H   LIG    1        8.622  41.394  27.082  0.00  0.00    +0.210 HD
ENDBRANCH   3  10
BRANCH   2  12
ATOM     12  O   LIG    1        5.950  41.377  26.163  0.00  0.00    -0.453 OA
BRANCH  12  13
ATOM     13  C   LIG    1        4.965  41.389  27.125  0.00  0.00    +0.214 A 
ATOM     14  C   LIG    1        5.370  41.603  28.536  0.00  0.00    +0.238 A 
ATOM     15  C   LIG    1        4.286  41.630  29.530  0.00  0.00    +0.109 A 
ATOM     16  C   LIG    1        4.565  41.824  30.886  0.00  0.00    +0.135 A 
ATOM     17  C   LIG    1        3.517  41.847  31.807  0.00  0.00    +0.091 A 
ATOM     18  C   LIG    1        2.201  41.679  31.376  0.00  0.00    +0.124 A 
ATOM     19  C   LIG    1        1.926  41.487  30.022  0.00  0.00    +0.092 A 
ATOM     24  C   LIG    1        2.972  41.463  29.099  0.00  0.00    +0.147 A 
ATOM     25  O   LIG    1        2.640  41.271  27.782  0.00  0.00    -0.451 OA
ATOM     26  O   LIG    1        6.542  41.750  28.854  0.00  0.00    -0.283 OA
ATOM     27  C   LIG    1        3.658  41.232  26.842  0.00  0.00    +0.181 A 
BRANCH  27  28
ATOM     28  C   LIG    1        3.166  41.021  25.470  0.00  0.00    +0.025 A 
ATOM     29  C   LIG    1        2.821  39.739  25.041  0.00  0.00    +0.015 A 
ATOM     30  C   LIG    1        2.355  39.540  23.742  0.00  0.00    +0.050 A 
ATOM     31  C   LIG    1        2.234  40.622  22.870  0.00  0.00    +0.158 A 
ATOM     32  C   LIG    1        2.577  41.904  23.298  0.00  0.00    +0.159 A 
ATOM     37  C   LIG    1        3.043  42.103  24.598  0.00  0.00    +0.060 A 
BRANCH  32  33
ATOM     33  O   LIG    1        2.461  42.969  22.457  0.00  0.00    -0.503 OA
ATOM     34  H   LIG    1        2.344  42.655  21.546  0.00  0.00    +0.292 HD
ENDBRANCH  32  33
BRANCH  31  35
ATOM     35  O   LIG    1        1.778  40.415  21.603  0.00  0.00    -0.503 OA
ATOM     36  H   LIG    1        2.207  39.631  21.226  0.00  0.00    +0.292 HD
ENDBRANCH  31  35
ENDBRANCH  27  28
BRANCH  18  20
ATOM     20  O   LIG    1        1.182  41.704  32.279  0.00  0.00    -0.507 OA
ATOM     21  H   LIG    1        0.790  40.816  32.337  0.00  0.00    +0.292 HD
ENDBRANCH  18  20
BRANCH  16  22
ATOM     22  O   LIG    1        5.831  41.993  31.359  0.00  0.00    -0.506 OA
ATOM     23  H   LIG    1        5.813  42.018  32.331  0.00  0.00    +0.292 HD
ENDBRANCH  16  22
ENDBRANCH  12  13
ENDBRANCH   2  12
BRANCH  38  39
ATOM     39  C   LIG    1        5.449  44.852  23.024  0.00  0.00    +0.197 C 
BRANCH  39  40
ATOM     40  O   LIG    1        6.358  44.970  21.939  0.00  0.00    -0.346 OA
BRANCH  40  41
ATOM     41  C   LIG    1        6.311  43.825  21.094  0.00  0.00    +0.282 C 
ATOM     42  C   LIG    1        5.288  44.045  19.981  0.00  0.00    +0.201 C 
ATOM     43  C   LIG    1        5.786  45.092  18.983  0.00  0.00    +0.179 C 
ATOM     44  C   LIG    1        7.188  44.747  18.482  0.00  0.00    +0.174 C 
ATOM     45  C   LIG    1        8.126  44.497  19.670  0.00  0.00    +0.149 C 
ATOM     46  C   LIG    1        9.501  44.006  19.221  0.00  0.00    +0.041 C 
ATOM     53  O   LIG    1        7.592  43.499  20.546  0.00  0.00    -0.343 OA
BRANCH  44  47
ATOM     47  O   LIG    1        7.662  45.841  17.700  0.00  0.00    -0.387 OA
ATOM     48  H   LIG    1        8.320  46.323  18.230  0.00  0.00    +0.210 HD
ENDBRANCH  44  47
BRANCH  43  49
ATOM     49  O   LIG    1        4.895  45.165  17.872  0.00  0.00    -0.386 OA
ATOM     50  H   LIG    1        4.096  44.658  18.098  0.00  0.00    +0.210 HD
ENDBRANCH  43  49
BRANCH  42  51
ATOM     51  O   LIG    1        5.090  42.795  19.319  0.00  0.00    -0.384 OA
ATOM     52  H   LIG    1        5.646  42.779  18.521  0.00  0.00    +0.210 HD
ENDBRANCH  42  51
ENDBRANCH  40  41
ENDBRANCH  39  40
ENDBRANCH  38  39
TORSDOF 16
ENDMDL
MODEL 6
REMARK VINA RESULT:      -7.8      1.881      8.460
REMARK  Name = 5280805
REMARK                            x       y       z     vdW  Elec       q    Type
REMARK                         _______ _______ _______ _____ _____    ______ ____
ROOT
ATOM      1  O   LIG    1       17.345  66.791   8.330  0.00  0.00    -0.331 OA
ATOM      2  C   LIG    1       18.760  66.687   8.470  0.00  0.00    +0.340 C 
ATOM      3  C   LIG    1       19.306  65.564   7.588  0.00  0.00    +0.214 C 
ATOM      4  C   LIG    1       18.867  65.738   6.133  0.00  0.00    +0.180 C 
ATOM      5  C   LIG    1       17.365  66.006   6.037  0.00  0.00    +0.177 C 
ATOM     38  C   LIG    1       16.950  67.123   6.998  0.00  0.00    +0.179 C 
ENDROOT
BRANCH   5   6
ATOM      6  O   LIG    1       17.040  66.388   4.703  0.00  0.00    -0.386 OA
ATOM      7  H   LIG    1       17.394  65.711   4.101  0.00  0.00    +0.210 HD
ENDBRANCH   5   6
BRANCH   4   8
ATOM      8  O   LIG    1       19.149  64.541   5.406  0.00  0.00    -0.386 OA
ATOM      9  H   LIG    1       20.099  64.544   5.196  0.00  0.00    +0.210 HD
ENDBRANCH   4   8
BRANCH   3  10
ATOM     10  O   LIG    1       20.731  65.591   7.659  0.00  0.00    -0.383 OA
ATOM     11  H   LIG    1       21.073  64.839   7.147  0.00  0.00    +0.210 HD
ENDBRANCH   3  10
BRANCH   2  12
ATOM     12  O   LIG    1       19.089  66.380   9.825  0.00  0.00    -0.453 OA
BRANCH  12  13
ATOM     13  C   LIG    1       19.112  67.512  10.610  0.00  0.00    +0.214 A 
ATOM     14  C   LIG    1       17.890  67.853  11.377  0.00  0.00    +0.238 A 
ATOM     15  C   LIG    1       17.963  69.057  12.219  0.00  0.00    +0.109 A 
ATOM     16  C   LIG    1       16.863  69.465  12.980  0.00  0.00    +0.135 A 
ATOM     17  C   LIG    1       16.961  70.610  13.772  0.00  0.00    +0.091 A 
ATOM     18  C   LIG    1       18.149  71.341  13.804  0.00  0.00    +0.124 A 
ATOM     19  C   LIG    1       19.245  70.931  13.044  0.00  0.00    +0.092 A 
ATOM     24  C   LIG    1       19.150  69.787  12.251  0.00  0.00    +0.147 A 
ATOM     25  O   LIG    1       20.259  69.433  11.527  0.00  0.00    -0.451 OA
ATOM     26  O   LIG    1       16.877  67.170  11.314  0.00  0.00    -0.283 OA
ATOM     27  C   LIG    1       20.192  68.307  10.722  0.00  0.00    +0.181 A 
BRANCH  27  28
ATOM     28  C   LIG    1       21.449  68.040  10.002  0.00  0.00    +0.025 A 
ATOM     29  C   LIG    1       21.748  68.741   8.834  0.00  0.00    +0.015 A 
ATOM     30  C   LIG    1       22.938  68.489   8.152  0.00  0.00    +0.050 A 
ATOM     31  C   LIG    1       23.830  67.533   8.638  0.00  0.00    +0.158 A 
ATOM     32  C   LIG    1       23.533  66.831   9.806  0.00  0.00    +0.159 A 
ATOM     37  C   LIG    1       22.343  67.085  10.488  0.00  0.00    +0.060 A 
BRANCH  32  33
ATOM     33  O   LIG    1       24.398  65.897  10.291  0.00  0.00    -0.503 OA
ATOM     34  H   LIG    1       24.770  66.203  11.134  0.00  0.00    +0.292 HD
ENDBRANCH  32  33
BRANCH  31  35
ATOM     35  O   LIG    1       24.989  67.294   7.963  0.00  0.00    -0.503 OA
ATOM     36  H   LIG    1       24.789  67.057   7.044  0.00  0.00    +0.292 HD
ENDBRANCH  31  35
ENDBRANCH  27  28
BRANCH  18  20
ATOM     20  O   LIG    1       18.240  72.457  14.578  0.00  0.00    -0.507 OA
ATOM     21  H   LIG    1       18.265  72.191  15.513  0.00  0.00    +0.292 HD
ENDBRANCH  18  20
BRANCH  16  22
ATOM     22  O   LIG    1       15.682  68.788  12.985  0.00  0.00    -0.506 OA
ATOM     23  H   LIG    1       15.050  69.232  12.394  0.00  0.00    +0.292 HD
ENDBRANCH  16  22
ENDBRANCH  12  13
ENDBRANCH   2  12
BRANCH  38  39
ATOM     39  C   LIG    1       15.439  67.330   7.005  0.00  0.00    +0.197 C 
BRANCH  39  40
ATOM     40  O   LIG    1       15.160  68.692   7.297  0.00  0.00    -0.346 OA
BRANCH  40  41
ATOM     41  C   LIG    1       13.976  68.826   8.076  0.00  0.00    +0.282 C 
ATOM     42  C   LIG    1       13.863  70.257   8.601  0.00  0.00    +0.201 C 
ATOM     43  C   LIG    1       13.545  71.231   7.465  0.00  0.00    +0.179 C 
ATOM     44  C   LIG    1       12.329  70.761   6.665  0.00  0.00    +0.174 C 
ATOM     45  C   LIG    1       12.518  69.303   6.226  0.00  0.00    +0.149 C 
ATOM     46  C   LIG    1       11.268  68.743   5.551  0.00  0.00    +0.041 C 
ATOM     53  O   LIG    1       12.800  68.460   7.349  0.00  0.00    -0.343 OA
BRANCH  44  47
ATOM     47  O   LIG    1       12.195  71.607   5.525  0.00  0.00    -0.387 OA
ATOM     48  H   LIG    1       11.319  71.445   5.136  0.00  0.00    +0.210 HD
ENDBRANCH  44  47
BRANCH  43  49
ATOM     49  O   LIG    1       13.285  72.528   7.996  0.00  0.00    -0.386 OA
ATOM     50  H   LIG    1       13.056  73.112   7.253  0.00  0.00    +0.210 HD
ENDBRANCH  43  49
BRANCH  42  51
ATOM     51  O   LIG    1       12.816  70.282   9.572  0.00  0.00    -0.384 OA
ATOM     52  H   LIG    1       11.967  70.175   9.110  0.00  0.00    +0.210 HD
ENDBRANCH  42  51
ENDBRANCH  40  41
ENDBRANCH  39  40
ENDBRANCH  38  39
TORSDOF 16
ENDMDL
MODEL 7
REMARK VINA RESULT:      -7.8     28.793     31.174
REMARK  Name = 5280805
REMARK                            x       y       z     vdW  Elec       q    Type
REMARK                         _______ _______ _______ _____ _____    ______ ____
ROOT
ATOM      1  O   LIG    1        6.241  43.534  25.561  0.00  0.00    -0.331 OA
ATOM      2  C   LIG    1        7.657  43.456  25.416  0.00  0.00    +0.340 C 
ATOM      3  C   LIG    1        8.309  43.031  26.732  0.00  0.00    +0.214 C 
ATOM      4  C   LIG    1        7.696  41.734  27.261  0.00  0.00    +0.180 C 
ATOM      5  C   LIG    1        6.169  41.799  27.251  0.00  0.00    +0.177 C 
ATOM     38  C   LIG    1        5.654  42.274  25.890  0.00  0.00    +0.179 C 
ENDROOT
BRANCH   5   6
ATOM      6  O   LIG    1        5.641  40.504  27.529  0.00  0.00    -0.386 OA
ATOM      7  H   LIG    1        4.707  40.496  27.258  0.00  0.00    +0.210 HD
ENDBRANCH   5   6
BRANCH   4   8
ATOM      8  O   LIG    1        8.120  41.524  28.610  0.00  0.00    -0.386 OA
ATOM      9  H   LIG    1        7.328  41.323  29.136  0.00  0.00    +0.210 HD
ENDBRANCH   4   8
BRANCH   3  10
ATOM     10  O   LIG    1        9.703  42.836  26.499  0.00  0.00    -0.383 OA
ATOM     11  H   LIG    1       10.156  43.682  26.651  0.00  0.00    +0.210 HD
ENDBRANCH   3  10
BRANCH   2  12
ATOM     12  O   LIG    1        8.177  44.738  25.062  0.00  0.00    -0.453 OA
BRANCH  12  13
ATOM     13  C   LIG    1        8.273  44.886  23.696  0.00  0.00    +0.214 A 
ATOM     14  C   LIG    1        7.034  45.185  22.938  0.00  0.00    +0.238 A 
ATOM     15  C   LIG    1        7.184  45.358  21.485  0.00  0.00    +0.109 A 
ATOM     16  C   LIG    1        6.075  45.640  20.682  0.00  0.00    +0.135 A 
ATOM     17  C   LIG    1        6.246  45.802  19.306  0.00  0.00    +0.091 A 
ATOM     18  C   LIG    1        7.514  45.682  18.738  0.00  0.00    +0.124 A 
ATOM     19  C   LIG    1        8.619  45.401  19.543  0.00  0.00    +0.092 A 
ATOM     24  C   LIG    1        8.451  45.239  20.919  0.00  0.00    +0.147 A 
ATOM     25  O   LIG    1        9.572  44.965  21.658  0.00  0.00    -0.451 OA
ATOM     26  O   LIG    1        5.947  45.284  23.492  0.00  0.00    -0.283 OA
ATOM     27  C   LIG    1        9.436  44.789  23.026  0.00  0.00    +0.181 A 
BRANCH  27  28
ATOM     28  C   LIG    1       10.715  44.501  23.699  0.00  0.00    +0.025 A 
ATOM     29  C   LIG    1       11.328  45.480  24.481  0.00  0.00    +0.015 A 
ATOM     30  C   LIG    1       12.538  45.208  25.118  0.00  0.00    +0.050 A 
ATOM     31  C   LIG    1       13.138  43.957  24.972  0.00  0.00    +0.158 A 
ATOM     32  C   LIG    1       12.526  42.978  24.190  0.00  0.00    +0.159 A 
ATOM     37  C   LIG    1       11.314  43.250  23.554  0.00  0.00    +0.060 A 
BRANCH  32  33
ATOM     33  O   LIG    1       13.100  41.751  24.042  0.00  0.00    -0.503 OA
ATOM     34  H   LIG    1       13.329  41.390  24.913  0.00  0.00    +0.292 HD
ENDBRANCH  32  33
BRANCH  31  35
ATOM     35  O   LIG    1       14.321  43.703  25.598  0.00  0.00    -0.503 OA
ATOM     36  H   LIG    1       14.963  43.361  24.956  0.00  0.00    +0.292 HD
ENDBRANCH  31  35
ENDBRANCH  27  28
BRANCH  18  20
ATOM     20  O   LIG    1        7.676  45.841  17.396  0.00  0.00    -0.507 OA
ATOM     21  H   LIG    1        6.858  45.572  16.945  0.00  0.00    +0.292 HD
ENDBRANCH  18  20
BRANCH  16  22
ATOM     22  O   LIG    1        4.816  45.767  21.185  0.00  0.00    -0.506 OA
ATOM     23  H   LIG    1        4.760  46.579  21.718  0.00  0.00    +0.292 HD
ENDBRANCH  16  22
ENDBRANCH  12  13
ENDBRANCH   2  12
BRANCH  38  39
ATOM     39  C   LIG    1        4.140  42.458  25.891  0.00  0.00    +0.197 C 
BRANCH  39  40
ATOM     40  O   LIG    1        3.707  42.733  24.566  0.00  0.00    -0.346 OA
BRANCH  40  41
ATOM     41  C   LIG    1        3.404  41.536  23.858  0.00  0.00    +0.282 C 
ATOM     42  C   LIG    1        2.099  41.710  23.084  0.00  0.00    +0.201 C 
ATOM     43  C   LIG    1        2.285  42.674  21.910  0.00  0.00    +0.179 C 
ATOM     44  C   LIG    1        3.474  42.257  21.044  0.00  0.00    +0.174 C 
ATOM     45  C   LIG    1        4.720  42.060  21.916  0.00  0.00    +0.149 C 
ATOM     46  C   LIG    1        5.896  41.502  21.118  0.00  0.00    +0.041 C 
ATOM     53  O   LIG    1        4.463  41.138  22.981  0.00  0.00    -0.343 OA
BRANCH  44  47
ATOM     47  O   LIG    1        3.702  43.283  20.080  0.00  0.00    -0.387 OA
ATOM     48  H   LIG    1        3.409  42.950  19.215  0.00  0.00    +0.210 HD
ENDBRANCH  44  47
BRANCH  43  49
ATOM     49  O   LIG    1        1.106  42.698  21.109  0.00  0.00    -0.386 OA
ATOM     50  H   LIG    1        0.403  42.244  21.604  0.00  0.00    +0.210 HD
ENDBRANCH  43  49
BRANCH  42  51
ATOM     51  O   LIG    1        1.704  40.425  22.601  0.00  0.00    -0.384 OA
ATOM     52  H   LIG    1        0.748  40.322  22.748  0.00  0.00    +0.210 HD
ENDBRANCH  42  51
ENDBRANCH  40  41
ENDBRANCH  39  40
ENDBRANCH  38  39
TORSDOF 16
ENDMDL
MODEL 8
REMARK VINA RESULT:      -7.8     27.603     30.549
REMARK  Name = 5280805
REMARK                            x       y       z     vdW  Elec       q    Type
REMARK                         _______ _______ _______ _____ _____    ______ ____
ROOT
ATOM      1  O   LIG    1        8.051  44.205  21.689  0.00  0.00    -0.331 OA
ATOM      2  C   LIG    1        9.046  44.209  20.668  0.00  0.00    +0.340 C 
ATOM      3  C   LIG    1        8.418  44.512  19.307  0.00  0.00    +0.214 C 
ATOM      4  C   LIG    1        7.604  45.806  19.347  0.00  0.00    +0.180 C 
ATOM      5  C   LIG    1        6.661  45.830  20.549  0.00  0.00    +0.177 C 
ATOM     38  C   LIG    1        7.410  45.474  21.835  0.00  0.00    +0.179 C 
ENDROOT
BRANCH   5   6
ATOM      6  O   LIG    1        6.097  47.133  20.679  0.00  0.00    -0.386 OA
ATOM      7  H   LIG    1        6.824  47.763  20.819  0.00  0.00    +0.210 HD
ENDBRANCH   5   6
BRANCH   4   8
ATOM      8  O   LIG    1        6.811  45.905  18.162  0.00  0.00    -0.386 OA
ATOM      9  H   LIG    1        7.216  46.585  17.597  0.00  0.00    +0.210 HD
ENDBRANCH   4   8
BRANCH   3  10
ATOM     10  O   LIG    1        9.466  44.640  18.348  0.00  0.00    -0.383 OA
ATOM     11  H   LIG    1       10.001  45.416  18.587  0.00  0.00    +0.210 HD
ENDBRANCH   3  10
BRANCH   2  12
ATOM     12  O   LIG    1        9.663  42.925  20.591  0.00  0.00    -0.453 OA
BRANCH  12  13
ATOM     13  C   LIG    1       10.883  42.910  21.231  0.00  0.00    +0.214 A 
ATOM     14  C   LIG    1       12.093  43.224  20.434  0.00  0.00    +0.238 A 
ATOM     15  C   LIG    1       13.373  43.218  21.159  0.00  0.00    +0.109 A 
ATOM     16  C   LIG    1       14.571  43.499  20.496  0.00  0.00    +0.135 A 
ATOM     17  C   LIG    1       15.770  43.489  21.210  0.00  0.00    +0.091 A 
ATOM     18  C   LIG    1       15.772  43.200  22.574  0.00  0.00    +0.124 A 
ATOM     19  C   LIG    1       14.575  42.920  23.233  0.00  0.00    +0.092 A 
ATOM     24  C   LIG    1       13.374  42.929  22.522  0.00  0.00    +0.147 A 
ATOM     25  O   LIG    1       12.230  42.648  23.223  0.00  0.00    -0.451 OA
ATOM     26  O   LIG    1       12.030  43.475  19.238  0.00  0.00    -0.283 OA
ATOM     27  C   LIG    1       11.022  42.639  22.543  0.00  0.00    +0.181 A 
BRANCH  27  28
ATOM     28  C   LIG    1        9.875  42.324  23.411  0.00  0.00    +0.025 A 
ATOM     29  C   LIG    1        9.091  41.200  23.152  0.00  0.00    +0.015 A 
ATOM     30  C   LIG    1        8.005  40.901  23.974  0.00  0.00    +0.050 A 
ATOM     31  C   LIG    1        7.702  41.727  25.057  0.00  0.00    +0.158 A 
ATOM     32  C   LIG    1        8.485  42.850  25.317  0.00  0.00    +0.159 A 
ATOM     37  C   LIG    1        9.572  43.149  24.495  0.00  0.00    +0.060 A 
BRANCH  32  33
ATOM     33  O   LIG    1        8.201  43.664  26.373  0.00  0.00    -0.503 OA
ATOM     34  H   LIG    1        8.961  43.694  26.976  0.00  0.00    +0.292 HD
ENDBRANCH  32  33
BRANCH  31  35
ATOM     35  O   LIG    1        6.638  41.426  25.852  0.00  0.00    -0.503 OA
ATOM     36  H   LIG    1        5.876  41.185  25.302  0.00  0.00    +0.292 HD
ENDBRANCH  31  35
ENDBRANCH  27  28
BRANCH  18  20
ATOM     20  O   LIG    1       16.945  43.192  23.266  0.00  0.00    -0.507 OA
ATOM     21  H   LIG    1       16.963  43.957  23.865  0.00  0.00    +0.292 HD
ENDBRANCH  18  20
BRANCH  16  22
ATOM     22  O   LIG    1       14.625  43.788  19.166  0.00  0.00    -0.506 OA
ATOM     23  H   LIG    1       15.499  44.155  18.949  0.00  0.00    +0.292 HD
ENDBRANCH  16  22
ENDBRANCH  12  13
ENDBRANCH   2  12
BRANCH  38  39
ATOM     39  C   LIG    1        6.468  45.378  23.031  0.00  0.00    +0.197 C 
BRANCH  39  40
ATOM     40  O   LIG    1        5.178  44.996  22.573  0.00  0.00    -0.346 OA
BRANCH  40  41
ATOM     41  C   LIG    1        4.838  43.684  23.011  0.00  0.00    +0.282 C 
ATOM     42  C   LIG    1        3.321  43.506  22.974  0.00  0.00    +0.201 C 
ATOM     43  C   LIG    1        2.813  43.445  21.532  0.00  0.00    +0.179 C 
ATOM     44  C   LIG    1        3.584  42.401  20.724  0.00  0.00    +0.174 C 
ATOM     45  C   LIG    1        5.094  42.636  20.863  0.00  0.00    +0.149 C 
ATOM     46  C   LIG    1        5.909  41.532  20.194  0.00  0.00    +0.041 C 
ATOM     53  O   LIG    1        5.485  42.667  22.240  0.00  0.00    -0.343 OA
BRANCH  44  47
ATOM     47  O   LIG    1        3.190  42.518  19.359  0.00  0.00    -0.387 OA
ATOM     48  H   LIG    1        2.232  42.363  19.311  0.00  0.00    +0.210 HD
ENDBRANCH  44  47
BRANCH  43  49
ATOM     49  O   LIG    1        1.426  43.118  21.520  0.00  0.00    -0.386 OA
ATOM     50  H   LIG    1        0.968  43.789  20.985  0.00  0.00    +0.210 HD
ENDBRANCH  43  49
BRANCH  42  51
ATOM     51  O   LIG    1        3.010  42.287  23.652  0.00  0.00    -0.384 OA
ATOM     52  H   LIG    1        2.886  42.484  24.596  0.00  0.00    +0.210 HD
ENDBRANCH  42  51
ENDBRANCH  40  41
ENDBRANCH  39  40
ENDBRANCH  38  39
TORSDOF 16
ENDMDL
MODEL 9
REMARK VINA RESULT:      -7.7     30.437     32.420
REMARK  Name = 5280805
REMARK                            x       y       z     vdW  Elec       q    Type
REMARK                         _______ _______ _______ _____ _____    ______ ____
ROOT
ATOM      1  O   LIG    1        5.361  41.711  24.809  0.00  0.00    -0.331 OA
ATOM      2  C   LIG    1        4.336  42.278  25.622  0.00  0.00    +0.340 C 
ATOM      3  C   LIG    1        4.054  41.385  26.831  0.00  0.00    +0.214 C 
ATOM      4  C   LIG    1        5.333  41.089  27.614  0.00  0.00    +0.180 C 
ATOM      5  C   LIG    1        6.459  40.635  26.684  0.00  0.00    +0.177 C 
ATOM     38  C   LIG    1        6.606  41.594  25.501  0.00  0.00    +0.179 C 
ENDROOT
BRANCH   5   6
ATOM      6  O   LIG    1        7.683  40.593  27.412  0.00  0.00    -0.386 OA
ATOM      7  H   LIG    1        8.219  39.864  27.058  0.00  0.00    +0.210 HD
ENDBRANCH   5   6
BRANCH   4   8
ATOM      8  O   LIG    1        5.085  40.039  28.551  0.00  0.00    -0.386 OA
ATOM      9  H   LIG    1        5.273  40.391  29.438  0.00  0.00    +0.210 HD
ENDBRANCH   4   8
BRANCH   3  10
ATOM     10  O   LIG    1        3.125  42.059  27.679  0.00  0.00    -0.383 OA
ATOM     11  H   LIG    1        3.485  42.059  28.581  0.00  0.00    +0.210 HD
ENDBRANCH   3  10
BRANCH   2  12
ATOM     12  O   LIG    1        3.130  42.390  24.867  0.00  0.00    -0.453 OA
BRANCH  12  13
ATOM     13  C   LIG    1        3.386  42.595  23.530  0.00  0.00    +0.214 A 
ATOM     14  C   LIG    1        4.078  43.847  23.136  0.00  0.00    +0.238 A 
ATOM     15  C   LIG    1        4.352  44.018  21.701  0.00  0.00    +0.109 A 
ATOM     16  C   LIG    1        4.997  45.164  21.229  0.00  0.00    +0.135 A 
ATOM     17  C   LIG    1        5.247  45.299  19.862  0.00  0.00    +0.091 A 
ATOM     18  C   LIG    1        4.855  44.297  18.975  0.00  0.00    +0.124 A 
ATOM     19  C   LIG    1        4.212  43.153  19.450  0.00  0.00    +0.092 A 
ATOM     24  C   LIG    1        3.960  43.016  20.816  0.00  0.00    +0.147 A 
ATOM     25  O   LIG    1        3.326  41.871  21.223  0.00  0.00    -0.451 OA
ATOM     26  O   LIG    1        4.403  44.690  23.961  0.00  0.00    -0.283 OA
ATOM     27  C   LIG    1        3.053  41.709  22.573  0.00  0.00    +0.181 A 
BRANCH  27  28
ATOM     28  C   LIG    1        2.371  40.439  22.874  0.00  0.00    +0.025 A 
ATOM     29  C   LIG    1        1.712  40.271  24.091  0.00  0.00    +0.015 A 
ATOM     30  C   LIG    1        1.066  39.069  24.376  0.00  0.00    +0.050 A 
ATOM     31  C   LIG    1        1.080  38.031  23.443  0.00  0.00    +0.158 A 
ATOM     32  C   LIG    1        1.739  38.198  22.226  0.00  0.00    +0.159 A 
ATOM     37  C   LIG    1        2.385  39.401  21.941  0.00  0.00    +0.060 A 
BRANCH  32  33
ATOM     33  O   LIG    1        1.759  37.193  21.306  0.00  0.00    -0.503 OA
ATOM     34  H   LIG    1        1.775  36.335  21.760  0.00  0.00    +0.292 HD
ENDBRANCH  32  33
BRANCH  31  35
ATOM     35  O   LIG    1        0.447  36.861  23.733  0.00  0.00    -0.503 OA
ATOM     36  H   LIG    1        0.878  36.130  23.261  0.00  0.00    +0.292 HD
ENDBRANCH  31  35
ENDBRANCH  27  28
BRANCH  18  20
ATOM     20  O   LIG    1        5.101  44.433  17.643  0.00  0.00    -0.507 OA
ATOM     21  H   LIG    1        4.519  43.829  17.151  0.00  0.00    +0.292 HD
ENDBRANCH  18  20
BRANCH  16  22
ATOM     22  O   LIG    1        5.401  46.172  22.052  0.00  0.00    -0.506 OA
ATOM     23  H   LIG    1        6.139  45.863  22.604  0.00  0.00    +0.292 HD
ENDBRANCH  16  22
ENDBRANCH  12  13
ENDBRANCH   2  12
BRANCH  38  39
ATOM     39  C   LIG    1        7.644  41.100  24.498  0.00  0.00    +0.197 C 
BRANCH  39  40
ATOM     40  O   LIG    1        8.468  42.190  24.111  0.00  0.00    -0.346 OA
BRANCH  40  41
ATOM     41  C   LIG    1        7.691  43.317  23.719  0.00  0.00    +0.282 C 
ATOM     42  C   LIG    1        8.233  44.577  24.391  0.00  0.00    +0.201 C 
ATOM     43  C   LIG    1        9.588  44.971  23.800  0.00  0.00    +0.179 C 
ATOM     44  C   LIG    1        9.516  45.059  22.276  0.00  0.00    +0.174 C 
ATOM     45  C   LIG    1        8.915  43.769  21.701  0.00  0.00    +0.149 C 
ATOM     46  C   LIG    1        8.687  43.866  20.194  0.00  0.00    +0.041 C 
ATOM     53  O   LIG    1        7.646  43.481  22.298  0.00  0.00    -0.343 OA
BRANCH  44  47
ATOM     47  O   LIG    1       10.838  45.252  21.779  0.00  0.00    -0.387 OA
ATOM     48  H   LIG    1       10.777  45.780  20.965  0.00  0.00    +0.210 HD
ENDBRANCH  44  47
BRANCH  43  49
ATOM     49  O   LIG    1        9.999  46.232  24.325  0.00  0.00    -0.386 OA
ATOM     50  H   LIG    1        9.335  46.892  24.063  0.00  0.00    +0.210 HD
ENDBRANCH  43  49
BRANCH  42  51
ATOM     51  O   LIG    1        7.286  45.625  24.179  0.00  0.00    -0.384 OA
ATOM     52  H   LIG    1        7.392  46.283  24.888  0.00  0.00    +0.210 HD
ENDBRANCH  42  51
ENDBRANCH  40  41
ENDBRANCH  39  40
ENDBRANCH  38  39
TORSDOF 16
ENDMDL
