MODEL 1
REMARK VINA RESULT:    -8.568      0.000      0.000
REMARK INTER + INTRA:         -20.949
REMARK INTER:                 -22.092
REMARK INTRA:                   1.142
REMARK UNBOUND:                 1.142
REMARK WARNING: 32 MAX_TORS EXCEEDED!!!
REMARK  38 active torsions:
REMARK  status: ('A' for Active; 'I' for Inactive)
REMARK    1  A    between atoms: O_2  and  C_27 
REMARK    2  A    between atoms: O_2  and  C_33 
REMARK    3  A    between atoms: O_3  and  C_28 
REMARK    4  A    between atoms: O_3  and  C_34 
REMARK    5  A    between atoms: O_4  and  C_29 
REMARK    6  A    between atoms: O_4  and  C_35 
REMARK    7  A    between atoms: O_5  and  C_31 
REMARK    8  A    between atoms: O_5  and  C_36 
REMARK    9  A    between atoms: O_6  and  C_32 
REMARK   10  A    between atoms: O_6  and  C_39 
REMARK   11  A    between atoms: O_12  and  C_51 
REMARK   12  A    between atoms: O_13  and  C_52 
REMARK   13  A    between atoms: O_14  and  C_53 
REMARK   14  A    between atoms: O_15  and  C_54 
REMARK   15  A    between atoms: O_16  and  C_55 
REMARK   16  A    between atoms: O_17  and  C_56 
REMARK   17  A    between atoms: O_18  and  C_59 
REMARK   18  A    between atoms: O_19  and  C_60 
REMARK   19  A    between atoms: O_20  and  C_61 
REMARK   20  A    between atoms: O_21  and  C_62 
REMARK   21  A    between atoms: O_22  and  C_63 
REMARK   22  A    between atoms: O_23  and  C_64 
REMARK   23  A    between atoms: O_24  and  C_65 
REMARK   24  A    between atoms: O_24  and  C_86 
REMARK   25  A    between atoms: O_25  and  C_66 
REMARK   26  A    between atoms: O_26  and  C_67 
REMARK   27  A    between atoms: C_28  and  C_30 
REMARK   28  A    between atoms: C_29  and  C_31 
REMARK   29  A    between atoms: C_30  and  C_32 
REMARK   30  A    between atoms: C_33  and  C_37 
REMARK   31  A    between atoms: C_34  and  C_38 
REMARK   32  A    between atoms: C_35  and  C_40 
REMARK   33  A    between atoms: C_36  and  C_41 
REMARK   34  A    between atoms: C_39  and  C_42 
REMARK   35  A    between atoms: O_83  and  C_90 
REMARK   36  A    between atoms: O_84  and  C_91 
REMARK   37  A    between atoms: O_85  and  C_92 
REMARK   38  A    between atoms: C_86  and  C_87 
ROOT
HETATM    1  O   UNL     1     -37.905  13.462  54.785  1.00  0.00    -0.348 OA
HETATM    2  C   UNL     1     -39.188  13.831  54.518  1.00  0.00     0.201 A 
HETATM    3  C   UNL     1     -38.670  12.577  54.068  1.00  0.00     0.282 A 
ENDROOT
BRANCH   2   4
HETATM    4  C   UNL     1     -39.418  14.012  53.748  1.00  0.00     0.199 A 
HETATM    5  C   UNL     1     -40.145  15.410  53.628  1.00  0.00     0.198 A 
HETATM    6  C   UNL     1     -38.698  15.245  53.824  1.00  0.00     0.215 A 
BRANCH   4   7
HETATM    7  O   UNL     1     -41.030  13.396  54.011  1.00  0.00    -0.306 OA
BRANCH   7   8
HETATM    8  C   UNL     1     -42.184  12.917  53.582  1.00  0.00     0.294 C 
HETATM    9  O   UNL     1     -43.255  13.470  53.811  1.00  0.00    -0.259 OA
BRANCH   8  10
HETATM   10  C   UNL     1     -42.219  11.729  52.748  1.00  0.00     0.045 A 
HETATM   11  C   UNL     1     -43.387  10.957  52.754  1.00  0.00     0.057 A 
HETATM   12  C   UNL     1     -43.643  10.133  51.667  1.00  0.00     0.102 A 
HETATM   13  C   UNL     1     -42.738  10.068  50.610  1.00  0.00     0.132 A 
HETATM   14  C   UNL     1     -41.565  10.815  50.633  1.00  0.00     0.102 A 
HETATM   15  C   UNL     1     -41.309  11.672  51.689  1.00  0.00     0.057 A 
BRANCH  12  16
HETATM   16  O   UNL     1     -44.811   9.431  51.562  1.00  0.00    -0.358 OA
HETATM   17  H   UNL     1     -45.419   9.949  51.001  1.00  0.00     0.217 HD
ENDBRANCH  12  16
BRANCH  13  18
HETATM   18  O   UNL     1     -43.024   9.325  49.497  1.00  0.00    -0.356 OA
HETATM   19  H   UNL     1     -43.971   9.098  49.599  1.00  0.00     0.218 HD
ENDBRANCH  13  18
BRANCH  14  20
HETATM   20  O   UNL     1     -40.699  10.772  49.579  1.00  0.00    -0.358 OA
HETATM   21  H   UNL     1     -39.823  10.642  50.001  1.00  0.00     0.217 HD
ENDBRANCH  14  20
ENDBRANCH   8  10
ENDBRANCH   7   8
ENDBRANCH   4   7
BRANCH   5  22
HETATM   22  O   UNL     1     -40.530  15.665  52.158  1.00  0.00    -0.306 OA
BRANCH  22  23
HETATM   23  C   UNL     1     -41.267  16.768  51.768  1.00  0.00     0.294 C 
HETATM   24  O   UNL     1     -42.375  17.111  52.161  1.00  0.00    -0.259 OA
BRANCH  23  25
HETATM   25  C   UNL     1     -40.624  17.583  50.742  1.00  0.00     0.045 A 
HETATM   26  C   UNL     1     -41.043  17.456  49.407  1.00  0.00     0.057 A 
HETATM   27  C   UNL     1     -40.415  18.216  48.431  1.00  0.00     0.102 A 
HETATM   28  C   UNL     1     -39.370  19.060  48.781  1.00  0.00     0.132 A 
HETATM   29  C   UNL     1     -38.893  19.088  50.086  1.00  0.00     0.102 A 
HETATM   30  C   UNL     1     -39.504  18.339  51.076  1.00  0.00     0.057 A 
BRANCH  27  31
HETATM   31  O   UNL     1     -40.790  18.159  47.119  1.00  0.00    -0.358 OA
HETATM   32  H   UNL     1     -41.198  19.012  46.877  1.00  0.00     0.217 HD
ENDBRANCH  27  31
BRANCH  28  33
HETATM   33  O   UNL     1     -38.789  19.872  47.846  1.00  0.00    -0.356 OA
HETATM   34  H   UNL     1     -39.543  20.355  47.450  1.00  0.00     0.218 HD
ENDBRANCH  28  33
BRANCH  29  35
HETATM   35  O   UNL     1     -37.816  19.855  50.411  1.00  0.00    -0.358 OA
HETATM   36  H   UNL     1     -38.185  20.742  50.590  1.00  0.00     0.217 HD
ENDBRANCH  29  35
ENDBRANCH  23  25
ENDBRANCH  22  23
ENDBRANCH   5  22
BRANCH   6  37
HETATM   37  O   UNL     1     -37.876  16.612  53.424  1.00  0.00    -0.304 OA
BRANCH  37  38
HETATM   38  C   UNL     1     -36.954  17.246  54.198  1.00  0.00     0.294 C 
HETATM   39  O   UNL     1     -36.857  18.436  54.412  1.00  0.00    -0.259 OA
BRANCH  38  40
HETATM   40  C   UNL     1     -36.038  16.225  54.712  1.00  0.00     0.045 A 
HETATM   41  C   UNL     1     -35.092  15.715  53.820  1.00  0.00     0.057 A 
HETATM   42  C   UNL     1     -34.187  14.773  54.265  1.00  0.00     0.102 A 
HETATM   43  C   UNL     1     -34.206  14.356  55.587  1.00  0.00     0.132 A 
HETATM   44  C   UNL     1     -35.133  14.890  56.481  1.00  0.00     0.102 A 
HETATM   45  C   UNL     1     -36.063  15.830  56.053  1.00  0.00     0.057 A 
BRANCH  42  46
HETATM   46  O   UNL     1     -33.268  14.287  53.387  1.00  0.00    -0.358 OA
HETATM   47  H   UNL     1     -33.603  13.409  53.122  1.00  0.00     0.217 HD
ENDBRANCH  42  46
BRANCH  43  48
HETATM   48  O   UNL     1     -33.286  13.433  56.002  1.00  0.00    -0.356 OA
HETATM   49  H   UNL     1     -32.781  13.896  56.701  1.00  0.00     0.218 HD
ENDBRANCH  43  48
BRANCH  44  50
HETATM   50  O   UNL     1     -35.069  14.472  57.781  1.00  0.00    -0.358 OA
HETATM   51  H   UNL     1     -35.318  15.221  58.354  1.00  0.00     0.217 HD
ENDBRANCH  44  50
ENDBRANCH  38  40
ENDBRANCH  37  38
ENDBRANCH   6  37
ENDBRANCH   2   4
BRANCH   2  52
HETATM   52  C   UNL     1     -40.477  14.274  55.459  1.00  0.00     0.216 C 
BRANCH  52  53
HETATM   53  O   UNL     1     -40.062  14.065  56.806  1.00  0.00    -0.315 OA
BRANCH  53  54
HETATM   54  C   UNL     1     -39.626  15.176  57.417  1.00  0.00     0.293 C 
HETATM   55  O   UNL     1     -39.784  16.320  57.039  1.00  0.00    -0.259 OA
BRANCH  54  56
HETATM   56  C   UNL     1     -38.850  14.732  58.589  1.00  0.00     0.045 C 
HETATM   57  C   UNL     1     -38.848  13.390  59.016  1.00  0.00     0.057 C 
HETATM   58  C   UNL     1     -38.042  13.007  60.072  1.00  0.00     0.102 C 
HETATM   59  C   UNL     1     -37.134  13.906  60.604  1.00  0.00     0.133 C 
HETATM   60  C   UNL     1     -37.065  15.198  60.076  1.00  0.00     0.116 C 
HETATM   61  C   UNL     1     -38.015  15.670  59.179  1.00  0.00     0.058 C 
BRANCH  58  62
HETATM   62  O   UNL     1     -38.071  11.717  60.518  1.00  0.00    -0.358 OA
HETATM   63  H   UNL     1     -37.340  11.672  61.170  1.00  0.00     0.217 HD
ENDBRANCH  58  62
BRANCH  59  64
HETATM   64  O   UNL     1     -36.269  13.441  61.553  1.00  0.00    -0.356 OA
HETATM   65  H   UNL     1     -35.425  13.923  61.449  1.00  0.00     0.218 HD
ENDBRANCH  59  64
BRANCH  60  66
HETATM   66  O   UNL     1     -35.906  15.960  60.220  1.00  0.00    -0.272 OA
BRANCH  66  67
HETATM   67  C   UNL     1     -36.325  17.194  60.702  1.00  0.00     0.298 C 
HETATM   68  O   UNL     1     -36.615  17.387  61.873  1.00  0.00    -0.259 OA
BRANCH  67  69
HETATM   69  C   UNL     1     -36.423  18.253  59.658  1.00  0.00     0.045 A 
HETATM   70  C   UNL     1     -37.372  19.277  59.810  1.00  0.00     0.057 A 
HETATM   71  C   UNL     1     -37.426  20.302  58.872  1.00  0.00     0.102 A 
HETATM   72  C   UNL     1     -36.583  20.289  57.770  1.00  0.00     0.132 A 
HETATM   73  C   UNL     1     -35.665  19.252  57.608  1.00  0.00     0.102 A 
HETATM   74  C   UNL     1     -35.557  18.238  58.558  1.00  0.00     0.057 A 
BRANCH  71  75
HETATM   75  O   UNL     1     -38.334  21.295  59.074  1.00  0.00    -0.358 OA
HETATM   76  H   UNL     1     -38.365  21.517  60.029  1.00  0.00     0.217 HD
ENDBRANCH  71  75
BRANCH  72  77
HETATM   77  O   UNL     1     -36.663  21.286  56.839  1.00  0.00    -0.356 OA
HETATM   78  H   UNL     1     -35.924  21.893  57.047  1.00  0.00     0.218 HD
ENDBRANCH  72  77
BRANCH  73  79
HETATM   79  O   UNL     1     -34.890  19.269  56.481  1.00  0.00    -0.358 OA
HETATM   80  H   UNL     1     -34.548  18.368  56.329  1.00  0.00     0.217 HD
ENDBRANCH  73  79
ENDBRANCH  67  69
ENDBRANCH  66  67
ENDBRANCH  60  66
ENDBRANCH  54  56
ENDBRANCH  53  54
ENDBRANCH  52  53
ENDBRANCH   2  52
BRANCH   3  81
HETATM   81  O   UNL     1     -39.568  11.534  54.808  1.00  0.00    -0.285 OA
BRANCH  81  82
HETATM   82  C   UNL     1     -39.310  10.201  54.723  1.00  0.00     0.295 C 
HETATM   83  O   UNL     1     -38.958   9.696  53.666  1.00  0.00    -0.259 OA
BRANCH  82  84
HETATM   84  C   UNL     1     -39.323   9.407  55.981  1.00  0.00     0.045 A 
HETATM   85  C   UNL     1     -39.166   8.015  55.985  1.00  0.00     0.057 A 
HETATM   86  C   UNL     1     -39.292   7.321  57.187  1.00  0.00     0.102 A 
HETATM   87  C   UNL     1     -39.592   7.989  58.369  1.00  0.00     0.132 A 
HETATM   88  C   UNL     1     -39.766   9.365  58.367  1.00  0.00     0.102 A 
HETATM   89  C   UNL     1     -39.637  10.079  57.179  1.00  0.00     0.057 A 
BRANCH  86  90
HETATM   90  O   UNL     1     -39.142   5.962  57.213  1.00  0.00    -0.358 OA
HETATM   91  H   UNL     1     -38.220   5.822  56.905  1.00  0.00     0.217 HD
ENDBRANCH  86  90
BRANCH  87  92
HETATM   92  O   UNL     1     -39.734   7.264  59.523  1.00  0.00    -0.356 OA
HETATM   93  H   UNL     1     -40.422   6.599  59.308  1.00  0.00     0.218 HD
ENDBRANCH  87  92
BRANCH  88  94
HETATM   94  O   UNL     1     -40.083   9.970  59.552  1.00  0.00    -0.358 OA
HETATM   95  H   UNL     1     -40.194   9.273  60.225  1.00  0.00     0.217 HD
ENDBRANCH  88  94
ENDBRANCH  82  84
ENDBRANCH  81  82
ENDBRANCH   3  81
TORSDOF 38
ENDMDL
MODEL 2
REMARK VINA RESULT:    -8.498      0.506      1.440
REMARK INTER + INTRA:         -20.770
REMARK INTER:                 -21.583
REMARK INTRA:                   0.814
REMARK UNBOUND:                 1.142
REMARK WARNING: 32 MAX_TORS EXCEEDED!!!
REMARK  38 active torsions:
REMARK  status: ('A' for Active; 'I' for Inactive)
REMARK    1  A    between atoms: O_2  and  C_27 
REMARK    2  A    between atoms: O_2  and  C_33 
REMARK    3  A    between atoms: O_3  and  C_28 
REMARK    4  A    between atoms: O_3  and  C_34 
REMARK    5  A    between atoms: O_4  and  C_29 
REMARK    6  A    between atoms: O_4  and  C_35 
REMARK    7  A    between atoms: O_5  and  C_31 
REMARK    8  A    between atoms: O_5  and  C_36 
REMARK    9  A    between atoms: O_6  and  C_32 
REMARK   10  A    between atoms: O_6  and  C_39 
REMARK   11  A    between atoms: O_12  and  C_51 
REMARK   12  A    between atoms: O_13  and  C_52 
REMARK   13  A    between atoms: O_14  and  C_53 
REMARK   14  A    between atoms: O_15  and  C_54 
REMARK   15  A    between atoms: O_16  and  C_55 
REMARK   16  A    between atoms: O_17  and  C_56 
REMARK   17  A    between atoms: O_18  and  C_59 
REMARK   18  A    between atoms: O_19  and  C_60 
REMARK   19  A    between atoms: O_20  and  C_61 
REMARK   20  A    between atoms: O_21  and  C_62 
REMARK   21  A    between atoms: O_22  and  C_63 
REMARK   22  A    between atoms: O_23  and  C_64 
REMARK   23  A    between atoms: O_24  and  C_65 
REMARK   24  A    between atoms: O_24  and  C_86 
REMARK   25  A    between atoms: O_25  and  C_66 
REMARK   26  A    between atoms: O_26  and  C_67 
REMARK   27  A    between atoms: C_28  and  C_30 
REMARK   28  A    between atoms: C_29  and  C_31 
REMARK   29  A    between atoms: C_30  and  C_32 
REMARK   30  A    between atoms: C_33  and  C_37 
REMARK   31  A    between atoms: C_34  and  C_38 
REMARK   32  A    between atoms: C_35  and  C_40 
REMARK   33  A    between atoms: C_36  and  C_41 
REMARK   34  A    between atoms: C_39  and  C_42 
REMARK   35  A    between atoms: O_83  and  C_90 
REMARK   36  A    between atoms: O_84  and  C_91 
REMARK   37  A    between atoms: O_85  and  C_92 
REMARK   38  A    between atoms: C_86  and  C_87 
ROOT
HETATM    1  O   UNL     1     -37.905  13.215  54.932  1.00  0.00    -0.348 OA
HETATM    2  C   UNL     1     -39.158  13.649  54.622  1.00  0.00     0.201 A 
HETATM    3  C   UNL     1     -38.724  12.333  54.272  1.00  0.00     0.282 A 
ENDROOT
BRANCH   2   4
HETATM    4  C   UNL     1     -39.368  13.788  53.837  1.00  0.00     0.199 A 
HETATM    5  C   UNL     1     -39.996  15.219  53.605  1.00  0.00     0.198 A 
HETATM    6  C   UNL     1     -38.565  14.970  53.831  1.00  0.00     0.215 A 
BRANCH   4   7
HETATM    7  O   UNL     1     -41.021  13.305  54.123  1.00  0.00    -0.306 OA
BRANCH   7   8
HETATM    8  C   UNL     1     -42.188  12.830  53.723  1.00  0.00     0.294 C 
HETATM    9  O   UNL     1     -43.251  13.378  53.993  1.00  0.00    -0.259 OA
BRANCH   8  10
HETATM   10  C   UNL     1     -42.247  11.654  52.873  1.00  0.00     0.045 A 
HETATM   11  C   UNL     1     -43.432  10.908  52.868  1.00  0.00     0.057 A 
HETATM   12  C   UNL     1     -43.704  10.105  51.769  1.00  0.00     0.102 A 
HETATM   13  C   UNL     1     -42.798  10.033  50.713  1.00  0.00     0.132 A 
HETATM   14  C   UNL     1     -41.609  10.754  50.749  1.00  0.00     0.102 A 
HETATM   15  C   UNL     1     -41.336  11.591  51.816  1.00  0.00     0.057 A 
BRANCH  12  16
HETATM   16  O   UNL     1     -44.887   9.430  51.653  1.00  0.00    -0.358 OA
HETATM   17  H   UNL     1     -44.996   9.182  50.716  1.00  0.00     0.217 HD
ENDBRANCH  12  16
BRANCH  13  18
HETATM   18  O   UNL     1     -43.098   9.311  49.590  1.00  0.00    -0.356 OA
HETATM   19  H   UNL     1     -42.233   9.188  49.149  1.00  0.00     0.218 HD
ENDBRANCH  13  18
BRANCH  14  20
HETATM   20  O   UNL     1     -40.742  10.705  49.696  1.00  0.00    -0.358 OA
HETATM   21  H   UNL     1     -41.076   9.962  49.150  1.00  0.00     0.217 HD
ENDBRANCH  14  20
ENDBRANCH   8  10
ENDBRANCH   7   8
ENDBRANCH   4   7
BRANCH   5  22
HETATM   22  O   UNL     1     -40.350  15.390  52.114  1.00  0.00    -0.306 OA
BRANCH  22  23
HETATM   23  C   UNL     1     -41.223  16.365  51.669  1.00  0.00     0.294 C 
HETATM   24  O   UNL     1     -42.364  16.588  52.055  1.00  0.00    -0.259 OA
BRANCH  23  25
HETATM   25  C   UNL     1     -40.693  17.193  50.590  1.00  0.00     0.045 A 
HETATM   26  C   UNL     1     -39.909  18.314  50.912  1.00  0.00     0.057 A 
HETATM   27  C   UNL     1     -39.426  19.112  49.886  1.00  0.00     0.102 A 
HETATM   28  C   UNL     1     -39.746  18.811  48.568  1.00  0.00     0.132 A 
HETATM   29  C   UNL     1     -40.614  17.766  48.276  1.00  0.00     0.102 A 
HETATM   30  C   UNL     1     -41.109  16.957  49.283  1.00  0.00     0.057 A 
BRANCH  27  31
HETATM   31  O   UNL     1     -38.638  20.201  50.127  1.00  0.00    -0.358 OA
HETATM   32  H   UNL     1     -39.112  20.999  49.822  1.00  0.00     0.217 HD
ENDBRANCH  27  31
BRANCH  28  33
HETATM   33  O   UNL     1     -39.217  19.541  47.540  1.00  0.00    -0.356 OA
HETATM   34  H   UNL     1     -38.900  20.361  47.970  1.00  0.00     0.218 HD
ENDBRANCH  28  33
BRANCH  29  35
HETATM   35  O   UNL     1     -40.992  17.522  46.990  1.00  0.00    -0.358 OA
HETATM   36  H   UNL     1     -40.160  17.537  46.478  1.00  0.00     0.217 HD
ENDBRANCH  29  35
ENDBRANCH  23  25
ENDBRANCH  22  23
ENDBRANCH   5  22
BRANCH   6  37
HETATM   37  O   UNL     1     -37.647  16.244  53.342  1.00  0.00    -0.304 OA
BRANCH  37  38
HETATM   38  C   UNL     1     -36.810  16.974  54.127  1.00  0.00     0.294 C 
HETATM   39  O   UNL     1     -36.737  18.183  54.212  1.00  0.00    -0.259 OA
BRANCH  38  40
HETATM   40  C   UNL     1     -35.949  16.031  54.846  1.00  0.00     0.045 A 
HETATM   41  C   UNL     1     -34.889  15.469  54.131  1.00  0.00     0.057 A 
HETATM   42  C   UNL     1     -34.032  14.598  54.772  1.00  0.00     0.102 A 
HETATM   43  C   UNL     1     -34.213  14.302  56.115  1.00  0.00     0.132 A 
HETATM   44  C   UNL     1     -35.254  14.890  56.832  1.00  0.00     0.102 A 
HETATM   45  C   UNL     1     -36.139  15.760  56.205  1.00  0.00     0.057 A 
BRANCH  42  46
HETATM   46  O   UNL     1     -33.002  14.061  54.066  1.00  0.00    -0.358 OA
HETATM   47  H   UNL     1     -33.101  13.093  54.160  1.00  0.00     0.217 HD
ENDBRANCH  42  46
BRANCH  43  48
HETATM   48  O   UNL     1     -33.338  13.449  56.727  1.00  0.00    -0.356 OA
HETATM   49  H   UNL     1     -33.328  13.743  57.660  1.00  0.00     0.218 HD
ENDBRANCH  43  48
BRANCH  44  50
HETATM   50  O   UNL     1     -35.349  14.595  58.164  1.00  0.00    -0.358 OA
HETATM   51  H   UNL     1     -35.764  13.717  58.252  1.00  0.00     0.217 HD
ENDBRANCH  44  50
ENDBRANCH  38  40
ENDBRANCH  37  38
ENDBRANCH   6  37
ENDBRANCH   2   4
BRANCH   2  52
HETATM   52  C   UNL     1     -40.422  14.247  55.510  1.00  0.00     0.216 C 
BRANCH  52  53
HETATM   53  O   UNL     1     -40.026  14.127  56.873  1.00  0.00    -0.315 OA
BRANCH  53  54
HETATM   54  C   UNL     1     -39.592  15.274  57.415  1.00  0.00     0.293 C 
HETATM   55  O   UNL     1     -39.594  16.370  56.888  1.00  0.00    -0.259 OA
BRANCH  54  56
HETATM   56  C   UNL     1     -39.041  14.931  58.737  1.00  0.00     0.045 C 
HETATM   57  C   UNL     1     -38.577  13.636  59.037  1.00  0.00     0.057 C 
HETATM   58  C   UNL     1     -37.994  13.382  60.266  1.00  0.00     0.102 C 
HETATM   59  C   UNL     1     -37.734  14.431  61.131  1.00  0.00     0.133 C 
HETATM   60  C   UNL     1     -38.089  15.729  60.755  1.00  0.00     0.116 C 
HETATM   61  C   UNL     1     -38.875  15.974  59.637  1.00  0.00     0.058 C 
BRANCH  58  62
HETATM   62  O   UNL     1     -37.585  12.118  60.578  1.00  0.00    -0.358 OA
HETATM   63  H   UNL     1     -37.493  11.673  59.709  1.00  0.00     0.217 HD
ENDBRANCH  58  62
BRANCH  59  64
HETATM   64  O   UNL     1     -37.038  14.148  62.271  1.00  0.00    -0.356 OA
HETATM   65  H   UNL     1     -36.429  13.410  62.074  1.00  0.00     0.218 HD
ENDBRANCH  59  64
BRANCH  60  66
HETATM   66  O   UNL     1     -37.451  16.830  61.327  1.00  0.00    -0.272 OA
BRANCH  66  67
HETATM   67  C   UNL     1     -36.298  17.027  60.577  1.00  0.00     0.298 C 
HETATM   68  O   UNL     1     -35.294  16.344  60.710  1.00  0.00    -0.259 OA
BRANCH  67  69
HETATM   69  C   UNL     1     -36.382  18.166  59.621  1.00  0.00     0.045 A 
HETATM   70  C   UNL     1     -35.573  18.157  58.473  1.00  0.00     0.057 A 
HETATM   71  C   UNL     1     -35.692  19.187  57.546  1.00  0.00     0.102 A 
HETATM   72  C   UNL     1     -36.567  20.239  57.775  1.00  0.00     0.132 A 
HETATM   73  C   UNL     1     -37.343  20.259  58.932  1.00  0.00     0.102 A 
HETATM   74  C   UNL     1     -37.279  19.216  59.855  1.00  0.00     0.057 A 
BRANCH  71  75
HETATM   75  O   UNL     1     -34.918  19.121  56.429  1.00  0.00    -0.358 OA
HETATM   76  H   UNL     1     -34.913  18.201  56.090  1.00  0.00     0.217 HD
ENDBRANCH  71  75
BRANCH  72  77
HETATM   77  O   UNL     1     -36.655  21.260  56.872  1.00  0.00    -0.356 OA
HETATM   78  H   UNL     1     -37.356  21.850  57.218  1.00  0.00     0.218 HD
ENDBRANCH  72  77
BRANCH  73  79
HETATM   79  O   UNL     1     -38.155  21.343  59.126  1.00  0.00    -0.358 OA
HETATM   80  H   UNL     1     -38.697  21.468  58.325  1.00  0.00     0.217 HD
ENDBRANCH  73  79
ENDBRANCH  67  69
ENDBRANCH  66  67
ENDBRANCH  60  66
ENDBRANCH  54  56
ENDBRANCH  53  54
ENDBRANCH  52  53
ENDBRANCH   2  52
BRANCH   3  81
HETATM   81  O   UNL     1     -39.697  11.411  55.075  1.00  0.00    -0.285 OA
BRANCH  81  82
HETATM   82  C   UNL     1     -39.521  10.063  55.103  1.00  0.00     0.295 C 
HETATM   83  O   UNL     1     -39.327   9.432  54.073  1.00  0.00    -0.259 OA
BRANCH  82  84
HETATM   84  C   UNL     1     -39.424   9.401  56.433  1.00  0.00     0.045 A 
HETATM   85  C   UNL     1     -39.258   8.016  56.565  1.00  0.00     0.057 A 
HETATM   86  C   UNL     1     -39.278   7.448  57.837  1.00  0.00     0.102 A 
HETATM   87  C   UNL     1     -39.482   8.234  58.966  1.00  0.00     0.132 A 
HETATM   88  C   UNL     1     -39.665   9.602  58.839  1.00  0.00     0.102 A 
HETATM   89  C   UNL     1     -39.640  10.192  57.578  1.00  0.00     0.057 A 
BRANCH  86  90
HETATM   90  O   UNL     1     -39.118   6.099  57.988  1.00  0.00    -0.358 OA
HETATM   91  H   UNL     1     -38.166   5.953  57.799  1.00  0.00     0.217 HD
ENDBRANCH  86  90
BRANCH  87  92
HETATM   92  O   UNL     1     -39.522   7.630  60.195  1.00  0.00    -0.356 OA
HETATM   93  H   UNL     1     -39.068   8.263  60.791  1.00  0.00     0.218 HD
ENDBRANCH  87  92
BRANCH  88  94
HETATM   94  O   UNL     1     -39.885  10.325  59.978  1.00  0.00    -0.358 OA
HETATM   95  H   UNL     1     -39.332   9.947  60.687  1.00  0.00     0.217 HD
ENDBRANCH  88  94
ENDBRANCH  82  84
ENDBRANCH  81  82
ENDBRANCH   3  81
TORSDOF 38
ENDMDL
MODEL 3
REMARK VINA RESULT:    -8.498      1.615      2.774
REMARK INTER + INTRA:         -20.769
REMARK INTER:                 -20.350
REMARK INTRA:                  -0.420
REMARK UNBOUND:                 1.142
REMARK WARNING: 32 MAX_TORS EXCEEDED!!!
REMARK  38 active torsions:
REMARK  status: ('A' for Active; 'I' for Inactive)
REMARK    1  A    between atoms: O_2  and  C_27 
REMARK    2  A    between atoms: O_2  and  C_33 
REMARK    3  A    between atoms: O_3  and  C_28 
REMARK    4  A    between atoms: O_3  and  C_34 
REMARK    5  A    between atoms: O_4  and  C_29 
REMARK    6  A    between atoms: O_4  and  C_35 
REMARK    7  A    between atoms: O_5  and  C_31 
REMARK    8  A    between atoms: O_5  and  C_36 
REMARK    9  A    between atoms: O_6  and  C_32 
REMARK   10  A    between atoms: O_6  and  C_39 
REMARK   11  A    between atoms: O_12  and  C_51 
REMARK   12  A    between atoms: O_13  and  C_52 
REMARK   13  A    between atoms: O_14  and  C_53 
REMARK   14  A    between atoms: O_15  and  C_54 
REMARK   15  A    between atoms: O_16  and  C_55 
REMARK   16  A    between atoms: O_17  and  C_56 
REMARK   17  A    between atoms: O_18  and  C_59 
REMARK   18  A    between atoms: O_19  and  C_60 
REMARK   19  A    between atoms: O_20  and  C_61 
REMARK   20  A    between atoms: O_21  and  C_62 
REMARK   21  A    between atoms: O_22  and  C_63 
REMARK   22  A    between atoms: O_23  and  C_64 
REMARK   23  A    between atoms: O_24  and  C_65 
REMARK   24  A    between atoms: O_24  and  C_86 
REMARK   25  A    between atoms: O_25  and  C_66 
REMARK   26  A    between atoms: O_26  and  C_67 
REMARK   27  A    between atoms: C_28  and  C_30 
REMARK   28  A    between atoms: C_29  and  C_31 
REMARK   29  A    between atoms: C_30  and  C_32 
REMARK   30  A    between atoms: C_33  and  C_37 
REMARK   31  A    between atoms: C_34  and  C_38 
REMARK   32  A    between atoms: C_35  and  C_40 
REMARK   33  A    between atoms: C_36  and  C_41 
REMARK   34  A    between atoms: C_39  and  C_42 
REMARK   35  A    between atoms: O_83  and  C_90 
REMARK   36  A    between atoms: O_84  and  C_91 
REMARK   37  A    between atoms: O_85  and  C_92 
REMARK   38  A    between atoms: C_86  and  C_87 
ROOT
HETATM    1  O   UNL     1     -37.999  13.108  55.040  1.00  0.00    -0.348 OA
HETATM    2  C   UNL     1     -39.258  13.526  54.733  1.00  0.00     0.201 A 
HETATM    3  C   UNL     1     -38.825  12.198  54.431  1.00  0.00     0.282 A 
ENDROOT
BRANCH   2   4
HETATM    4  C   UNL     1     -39.481  13.631  53.947  1.00  0.00     0.199 A 
HETATM    5  C   UNL     1     -40.104  15.056  53.662  1.00  0.00     0.198 A 
HETATM    6  C   UNL     1     -38.672  14.807  53.875  1.00  0.00     0.215 A 
BRANCH   4   7
HETATM    7  O   UNL     1     -41.132  13.173  54.283  1.00  0.00    -0.306 OA
BRANCH   7   8
HETATM    8  C   UNL     1     -42.301  12.666  53.931  1.00  0.00     0.294 C 
HETATM    9  O   UNL     1     -43.367  13.168  54.269  1.00  0.00    -0.259 OA
BRANCH   8  10
HETATM   10  C   UNL     1     -42.364  11.509  53.056  1.00  0.00     0.045 A 
HETATM   11  C   UNL     1     -43.585  10.832  52.949  1.00  0.00     0.057 A 
HETATM   12  C   UNL     1     -43.820  10.064  51.818  1.00  0.00     0.102 A 
HETATM   13  C   UNL     1     -42.845   9.957  50.829  1.00  0.00     0.132 A 
HETATM   14  C   UNL     1     -41.623  10.608  50.965  1.00  0.00     0.102 A 
HETATM   15  C   UNL     1     -41.382  11.411  52.066  1.00  0.00     0.057 A 
BRANCH  12  16
HETATM   16  O   UNL     1     -45.027   9.460  51.603  1.00  0.00    -0.358 OA
HETATM   17  H   UNL     1     -45.409   9.842  50.791  1.00  0.00     0.217 HD
ENDBRANCH  12  16
BRANCH  13  18
HETATM   18  O   UNL     1     -43.101   9.272  49.673  1.00  0.00    -0.356 OA
HETATM   19  H   UNL     1     -43.605   9.909  49.125  1.00  0.00     0.218 HD
ENDBRANCH  13  18
BRANCH  14  20
HETATM   20  O   UNL     1     -40.684  10.527  49.976  1.00  0.00    -0.358 OA
HETATM   21  H   UNL     1     -40.368   9.600  50.029  1.00  0.00     0.217 HD
ENDBRANCH  14  20
ENDBRANCH   8  10
ENDBRANCH   7   8
ENDBRANCH   4   7
BRANCH   5  22
HETATM   22  O   UNL     1     -40.484  15.163  52.172  1.00  0.00    -0.306 OA
BRANCH  22  23
HETATM   23  C   UNL     1     -41.692  15.688  51.754  1.00  0.00     0.294 C 
HETATM   24  O   UNL     1     -42.179  16.776  52.035  1.00  0.00    -0.259 OA
BRANCH  23  25
HETATM   25  C   UNL     1     -42.464  14.796  50.894  1.00  0.00     0.045 A 
HETATM   26  C   UNL     1     -43.790  14.488  51.245  1.00  0.00     0.057 A 
HETATM   27  C   UNL     1     -44.514  13.622  50.438  1.00  0.00     0.102 A 
HETATM   28  C   UNL     1     -43.913  13.054  49.322  1.00  0.00     0.132 A 
HETATM   29  C   UNL     1     -42.568  13.280  49.054  1.00  0.00     0.102 A 
HETATM   30  C   UNL     1     -41.827  14.139  49.845  1.00  0.00     0.057 A 
BRANCH  27  31
HETATM   31  O   UNL     1     -45.813  13.300  50.707  1.00  0.00    -0.358 OA
HETATM   32  H   UNL     1     -46.042  13.648  51.590  1.00  0.00     0.217 HD
ENDBRANCH  27  31
BRANCH  28  33
HETATM   33  O   UNL     1     -44.633  12.259  48.474  1.00  0.00    -0.356 OA
HETATM   34  H   UNL     1     -44.088  12.225  47.661  1.00  0.00     0.218 HD
ENDBRANCH  28  33
BRANCH  29  35
HETATM   35  O   UNL     1     -41.959  12.658  48.007  1.00  0.00    -0.358 OA
HETATM   36  H   UNL     1     -41.387  13.342  47.608  1.00  0.00     0.217 HD
ENDBRANCH  29  35
ENDBRANCH  23  25
ENDBRANCH  22  23
ENDBRANCH   5  22
BRANCH   6  37
HETATM   37  O   UNL     1     -37.754  16.052  53.314  1.00  0.00    -0.304 OA
BRANCH  37  38
HETATM   38  C   UNL     1     -36.928  16.835  54.059  1.00  0.00     0.294 C 
HETATM   39  O   UNL     1     -36.885  18.047  54.092  1.00  0.00    -0.259 OA
BRANCH  38  40
HETATM   40  C   UNL     1     -36.036  15.944  54.805  1.00  0.00     0.045 A 
HETATM   41  C   UNL     1     -34.952  15.404  54.110  1.00  0.00     0.057 A 
HETATM   42  C   UNL     1     -34.066  14.583  54.778  1.00  0.00     0.102 A 
HETATM   43  C   UNL     1     -34.243  14.315  56.127  1.00  0.00     0.132 A 
HETATM   44  C   UNL     1     -35.309  14.881  56.824  1.00  0.00     0.102 A 
HETATM   45  C   UNL     1     -36.223  15.701  56.170  1.00  0.00     0.057 A 
BRANCH  42  46
HETATM   46  O   UNL     1     -33.012  14.066  54.090  1.00  0.00    -0.358 OA
HETATM   47  H   UNL     1     -33.269  13.149  53.874  1.00  0.00     0.217 HD
ENDBRANCH  42  46
BRANCH  43  48
HETATM   48  O   UNL     1     -33.339  13.512  56.764  1.00  0.00    -0.356 OA
HETATM   49  H   UNL     1     -32.698  13.269  56.066  1.00  0.00     0.218 HD
ENDBRANCH  43  48
BRANCH  44  50
HETATM   50  O   UNL     1     -35.400  14.618  58.162  1.00  0.00    -0.358 OA
HETATM   51  H   UNL     1     -34.614  14.992  58.600  1.00  0.00     0.217 HD
ENDBRANCH  44  50
ENDBRANCH  38  40
ENDBRANCH  37  38
ENDBRANCH   6  37
ENDBRANCH   2   4
BRANCH   2  52
HETATM   52  C   UNL     1     -40.509  14.157  55.616  1.00  0.00     0.216 C 
BRANCH  52  53
HETATM   53  O   UNL     1     -40.105  14.065  56.978  1.00  0.00    -0.315 OA
BRANCH  53  54
HETATM   54  C   UNL     1     -39.642  15.217  57.486  1.00  0.00     0.293 C 
HETATM   55  O   UNL     1     -39.643  16.302  56.937  1.00  0.00    -0.259 OA
BRANCH  54  56
HETATM   56  C   UNL     1     -39.063  14.893  58.801  1.00  0.00     0.045 C 
HETATM   57  C   UNL     1     -38.580  13.606  59.105  1.00  0.00     0.057 C 
HETATM   58  C   UNL     1     -37.971  13.370  60.324  1.00  0.00     0.102 C 
HETATM   59  C   UNL     1     -37.706  14.430  61.174  1.00  0.00     0.133 C 
HETATM   60  C   UNL     1     -38.081  15.720  60.793  1.00  0.00     0.116 C 
HETATM   61  C   UNL     1     -38.891  15.946  59.687  1.00  0.00     0.058 C 
BRANCH  58  62
HETATM   62  O   UNL     1     -37.543  12.114  60.641  1.00  0.00    -0.358 OA
HETATM   63  H   UNL     1     -38.030  11.893  61.462  1.00  0.00     0.217 HD
ENDBRANCH  58  62
BRANCH  59  64
HETATM   64  O   UNL     1     -36.985  14.166  62.304  1.00  0.00    -0.356 OA
HETATM   65  H   UNL     1     -36.968  14.980  62.844  1.00  0.00     0.218 HD
ENDBRANCH  59  64
BRANCH  60  66
HETATM   66  O   UNL     1     -37.444  16.834  61.341  1.00  0.00    -0.272 OA
BRANCH  66  67
HETATM   67  C   UNL     1     -36.299  17.025  60.578  1.00  0.00     0.298 C 
HETATM   68  O   UNL     1     -35.296  16.337  60.699  1.00  0.00    -0.259 OA
BRANCH  67  69
HETATM   69  C   UNL     1     -36.388  18.164  59.622  1.00  0.00     0.045 A 
HETATM   70  C   UNL     1     -35.600  18.146  58.460  1.00  0.00     0.057 A 
HETATM   71  C   UNL     1     -35.724  19.176  57.534  1.00  0.00     0.102 A 
HETATM   72  C   UNL     1     -36.584  20.237  57.777  1.00  0.00     0.132 A 
HETATM   73  C   UNL     1     -37.340  20.266  58.948  1.00  0.00     0.102 A 
HETATM   74  C   UNL     1     -37.270  19.223  59.871  1.00  0.00     0.057 A 
BRANCH  71  75
HETATM   75  O   UNL     1     -34.970  19.102  56.404  1.00  0.00    -0.358 OA
HETATM   76  H   UNL     1     -34.140  18.616  56.598  1.00  0.00     0.217 HD
ENDBRANCH  71  75
BRANCH  72  77
HETATM   77  O   UNL     1     -36.678  21.258  56.875  1.00  0.00    -0.356 OA
HETATM   78  H   UNL     1     -36.209  20.940  56.076  1.00  0.00     0.218 HD
ENDBRANCH  72  77
BRANCH  73  79
HETATM   79  O   UNL     1     -38.138  21.358  59.155  1.00  0.00    -0.358 OA
HETATM   80  H   UNL     1     -38.430  21.694  58.288  1.00  0.00     0.217 HD
ENDBRANCH  73  79
ENDBRANCH  67  69
ENDBRANCH  66  67
ENDBRANCH  60  66
ENDBRANCH  54  56
ENDBRANCH  53  54
ENDBRANCH  52  53
ENDBRANCH   2  52
BRANCH   3  81
HETATM   81  O   UNL     1     -39.783  11.307  55.287  1.00  0.00    -0.285 OA
BRANCH  81  82
HETATM   82  C   UNL     1     -39.599   9.963  55.372  1.00  0.00     0.295 C 
HETATM   83  O   UNL     1     -39.325   9.302  54.380  1.00  0.00    -0.259 OA
BRANCH  82  84
HETATM   84  C   UNL     1     -39.595   9.345  56.726  1.00  0.00     0.045 A 
HETATM   85  C   UNL     1     -39.716  10.109  57.894  1.00  0.00     0.057 A 
HETATM   86  C   UNL     1     -39.601   9.481  59.133  1.00  0.00     0.102 A 
HETATM   87  C   UNL     1     -39.345   8.116  59.219  1.00  0.00     0.132 A 
HETATM   88  C   UNL     1     -39.206   7.359  58.066  1.00  0.00     0.102 A 
HETATM   89  C   UNL     1     -39.326   7.965  56.818  1.00  0.00     0.057 A 
BRANCH  86  90
HETATM   90  O   UNL     1     -39.716  10.209  60.284  1.00  0.00    -0.358 OA
HETATM   91  H   UNL     1     -39.347  11.086  60.044  1.00  0.00     0.217 HD
ENDBRANCH  86  90
BRANCH  87  92
HETATM   92  O   UNL     1     -39.211   7.545  60.457  1.00  0.00    -0.356 OA
HETATM   93  H   UNL     1     -38.446   6.939  60.362  1.00  0.00     0.218 HD
ENDBRANCH  87  92
BRANCH  88  94
HETATM   94  O   UNL     1     -38.932   6.027  58.207  1.00  0.00    -0.358 OA
HETATM   95  H   UNL     1     -38.953   5.619  57.321  1.00  0.00     0.217 HD
ENDBRANCH  88  94
ENDBRANCH  82  84
ENDBRANCH  81  82
ENDBRANCH   3  81
TORSDOF 38
ENDMDL
MODEL 4
REMARK VINA RESULT:    -8.469      1.394      2.037
REMARK INTER + INTRA:         -20.693
REMARK INTER:                 -20.704
REMARK INTRA:                   0.011
REMARK UNBOUND:                 1.142
REMARK WARNING: 32 MAX_TORS EXCEEDED!!!
REMARK  38 active torsions:
REMARK  status: ('A' for Active; 'I' for Inactive)
REMARK    1  A    between atoms: O_2  and  C_27 
REMARK    2  A    between atoms: O_2  and  C_33 
REMARK    3  A    between atoms: O_3  and  C_28 
REMARK    4  A    between atoms: O_3  and  C_34 
REMARK    5  A    between atoms: O_4  and  C_29 
REMARK    6  A    between atoms: O_4  and  C_35 
REMARK    7  A    between atoms: O_5  and  C_31 
REMARK    8  A    between atoms: O_5  and  C_36 
REMARK    9  A    between atoms: O_6  and  C_32 
REMARK   10  A    between atoms: O_6  and  C_39 
REMARK   11  A    between atoms: O_12  and  C_51 
REMARK   12  A    between atoms: O_13  and  C_52 
REMARK   13  A    between atoms: O_14  and  C_53 
REMARK   14  A    between atoms: O_15  and  C_54 
REMARK   15  A    between atoms: O_16  and  C_55 
REMARK   16  A    between atoms: O_17  and  C_56 
REMARK   17  A    between atoms: O_18  and  C_59 
REMARK   18  A    between atoms: O_19  and  C_60 
REMARK   19  A    between atoms: O_20  and  C_61 
REMARK   20  A    between atoms: O_21  and  C_62 
REMARK   21  A    between atoms: O_22  and  C_63 
REMARK   22  A    between atoms: O_23  and  C_64 
REMARK   23  A    between atoms: O_24  and  C_65 
REMARK   24  A    between atoms: O_24  and  C_86 
REMARK   25  A    between atoms: O_25  and  C_66 
REMARK   26  A    between atoms: O_26  and  C_67 
REMARK   27  A    between atoms: C_28  and  C_30 
REMARK   28  A    between atoms: C_29  and  C_31 
REMARK   29  A    between atoms: C_30  and  C_32 
REMARK   30  A    between atoms: C_33  and  C_37 
REMARK   31  A    between atoms: C_34  and  C_38 
REMARK   32  A    between atoms: C_35  and  C_40 
REMARK   33  A    between atoms: C_36  and  C_41 
REMARK   34  A    between atoms: C_39  and  C_42 
REMARK   35  A    between atoms: O_83  and  C_90 
REMARK   36  A    between atoms: O_84  and  C_91 
REMARK   37  A    between atoms: O_85  and  C_92 
REMARK   38  A    between atoms: C_86  and  C_87 
ROOT
HETATM    1  O   UNL     1     -37.900  13.464  54.762  1.00  0.00    -0.348 OA
HETATM    2  C   UNL     1     -39.184  13.836  54.505  1.00  0.00     0.201 A 
HETATM    3  C   UNL     1     -38.671  12.584  54.045  1.00  0.00     0.282 A 
ENDROOT
BRANCH   2   4
HETATM    4  C   UNL     1     -39.417  14.023  53.737  1.00  0.00     0.199 A 
HETATM    5  C   UNL     1     -40.164  15.412  53.632  1.00  0.00     0.198 A 
HETATM    6  C   UNL     1     -38.715  15.264  53.825  1.00  0.00     0.215 A 
BRANCH   4   7
HETATM    7  O   UNL     1     -41.020  13.382  53.995  1.00  0.00    -0.306 OA
BRANCH   7   8
HETATM    8  C   UNL     1     -42.147  12.839  53.567  1.00  0.00     0.294 C 
HETATM    9  O   UNL     1     -43.250  13.262  53.898  1.00  0.00    -0.259 OA
BRANCH   8  10
HETATM   10  C   UNL     1     -42.117  11.744  52.615  1.00  0.00     0.045 A 
HETATM   11  C   UNL     1     -43.246  10.920  52.528  1.00  0.00     0.057 A 
HETATM   12  C   UNL     1     -43.453  10.201  51.359  1.00  0.00     0.102 A 
HETATM   13  C   UNL     1     -42.538  10.289  50.312  1.00  0.00     0.132 A 
HETATM   14  C   UNL     1     -41.404  11.086  50.426  1.00  0.00     0.102 A 
HETATM   15  C   UNL     1     -41.197  11.840  51.568  1.00  0.00     0.057 A 
BRANCH  12  16
HETATM   16  O   UNL     1     -44.584   9.458  51.167  1.00  0.00    -0.358 OA
HETATM   17  H   UNL     1     -45.307  10.072  50.939  1.00  0.00     0.217 HD
ENDBRANCH  12  16
BRANCH  13  18
HETATM   18  O   UNL     1     -42.779   9.652  49.125  1.00  0.00    -0.356 OA
HETATM   19  H   UNL     1     -43.715   9.370  49.192  1.00  0.00     0.218 HD
ENDBRANCH  13  18
BRANCH  14  20
HETATM   20  O   UNL     1     -40.528  11.193  49.384  1.00  0.00    -0.358 OA
HETATM   21  H   UNL     1     -39.650  11.063  49.801  1.00  0.00     0.217 HD
ENDBRANCH  14  20
ENDBRANCH   8  10
ENDBRANCH   7   8
ENDBRANCH   4   7
BRANCH   5  22
HETATM   22  O   UNL     1     -40.554  15.677  52.165  1.00  0.00    -0.306 OA
BRANCH  22  23
HETATM   23  C   UNL     1     -41.859  15.928  51.782  1.00  0.00     0.294 C 
HETATM   24  O   UNL     1     -42.675  16.663  52.322  1.00  0.00    -0.259 OA
BRANCH  23  25
HETATM   25  C   UNL     1     -42.286  15.187  50.599  1.00  0.00     0.045 A 
HETATM   26  C   UNL     1     -43.493  14.469  50.641  1.00  0.00     0.057 A 
HETATM   27  C   UNL     1     -43.886  13.748  49.523  1.00  0.00     0.102 A 
HETATM   28  C   UNL     1     -43.070  13.721  48.399  1.00  0.00     0.132 A 
HETATM   29  C   UNL     1     -41.828  14.342  48.415  1.00  0.00     0.102 A 
HETATM   30  C   UNL     1     -41.416  15.067  49.519  1.00  0.00     0.057 A 
BRANCH  27  31
HETATM   31  O   UNL     1     -45.058  13.050  49.489  1.00  0.00    -0.358 OA
HETATM   32  H   UNL     1     -45.717  13.575  48.995  1.00  0.00     0.217 HD
ENDBRANCH  27  31
BRANCH  28  33
HETATM   33  O   UNL     1     -43.475  13.078  47.262  1.00  0.00    -0.356 OA
HETATM   34  H   UNL     1     -43.869  13.788  46.715  1.00  0.00     0.218 HD
ENDBRANCH  28  33
BRANCH  29  35
HETATM   35  O   UNL     1     -40.995  14.247  47.342  1.00  0.00    -0.358 OA
HETATM   36  H   UNL     1     -41.541  13.850  46.635  1.00  0.00     0.217 HD
ENDBRANCH  29  35
ENDBRANCH  23  25
ENDBRANCH  22  23
ENDBRANCH   5  22
BRANCH   6  37
HETATM   37  O   UNL     1     -37.912  16.647  53.438  1.00  0.00    -0.304 OA
BRANCH  37  38
HETATM   38  C   UNL     1     -36.987  17.278  54.211  1.00  0.00     0.294 C 
HETATM   39  O   UNL     1     -36.890  18.467  54.430  1.00  0.00    -0.259 OA
BRANCH  38  40
HETATM   40  C   UNL     1     -36.069  16.255  54.717  1.00  0.00     0.045 A 
HETATM   41  C   UNL     1     -35.125  15.750  53.821  1.00  0.00     0.057 A 
HETATM   42  C   UNL     1     -34.218  14.807  54.258  1.00  0.00     0.102 A 
HETATM   43  C   UNL     1     -34.235  14.382  55.578  1.00  0.00     0.132 A 
HETATM   44  C   UNL     1     -35.159  14.910  56.477  1.00  0.00     0.102 A 
HETATM   45  C   UNL     1     -36.092  15.852  56.057  1.00  0.00     0.057 A 
BRANCH  42  46
HETATM   46  O   UNL     1     -33.301  14.326  53.376  1.00  0.00    -0.358 OA
HETATM   47  H   UNL     1     -33.392  13.354  53.412  1.00  0.00     0.217 HD
ENDBRANCH  42  46
BRANCH  43  48
HETATM   48  O   UNL     1     -33.313  13.458  55.986  1.00  0.00    -0.356 OA
HETATM   49  H   UNL     1     -33.226  12.851  55.222  1.00  0.00     0.218 HD
ENDBRANCH  43  48
BRANCH  44  50
HETATM   50  O   UNL     1     -35.092  14.486  57.775  1.00  0.00    -0.358 OA
HETATM   51  H   UNL     1     -35.340  15.231  58.352  1.00  0.00     0.217 HD
ENDBRANCH  44  50
ENDBRANCH  38  40
ENDBRANCH  37  38
ENDBRANCH   6  37
ENDBRANCH   2   4
BRANCH   2  52
HETATM   52  C   UNL     1     -40.467  14.277  55.454  1.00  0.00     0.216 C 
BRANCH  52  53
HETATM   53  O   UNL     1     -40.048  14.052  56.797  1.00  0.00    -0.315 OA
BRANCH  53  54
HETATM   54  C   UNL     1     -39.665  15.164  57.440  1.00  0.00     0.293 C 
HETATM   55  O   UNL     1     -39.871  16.310  57.089  1.00  0.00    -0.259 OA
BRANCH  54  56
HETATM   56  C   UNL     1     -38.881  14.726  58.607  1.00  0.00     0.045 C 
HETATM   57  C   UNL     1     -38.869  13.384  59.034  1.00  0.00     0.057 C 
HETATM   58  C   UNL     1     -38.054  13.005  60.086  1.00  0.00     0.102 C 
HETATM   59  C   UNL     1     -37.147  13.909  60.611  1.00  0.00     0.133 C 
HETATM   60  C   UNL     1     -37.089  15.201  60.083  1.00  0.00     0.116 C 
HETATM   61  C   UNL     1     -38.047  15.667  59.192  1.00  0.00     0.058 C 
BRANCH  58  62
HETATM   62  O   UNL     1     -38.073  11.715  60.532  1.00  0.00    -0.358 OA
HETATM   63  H   UNL     1     -37.339  11.674  61.180  1.00  0.00     0.217 HD
ENDBRANCH  58  62
BRANCH  59  64
HETATM   64  O   UNL     1     -36.275  13.449  61.555  1.00  0.00    -0.356 OA
HETATM   65  H   UNL     1     -36.327  14.047  62.326  1.00  0.00     0.218 HD
ENDBRANCH  59  64
BRANCH  60  66
HETATM   66  O   UNL     1     -35.933  15.969  60.220  1.00  0.00    -0.272 OA
BRANCH  66  67
HETATM   67  C   UNL     1     -36.354  17.197  60.716  1.00  0.00     0.298 C 
HETATM   68  O   UNL     1     -36.636  17.378  61.891  1.00  0.00    -0.259 OA
BRANCH  67  69
HETATM   69  C   UNL     1     -36.465  18.265  59.684  1.00  0.00     0.045 A 
HETATM   70  C   UNL     1     -37.413  19.287  59.855  1.00  0.00     0.057 A 
HETATM   71  C   UNL     1     -37.478  20.320  58.926  1.00  0.00     0.102 A 
HETATM   72  C   UNL     1     -36.647  20.318  57.816  1.00  0.00     0.132 A 
HETATM   73  C   UNL     1     -35.730  19.284  57.635  1.00  0.00     0.102 A 
HETATM   74  C   UNL     1     -35.610  18.261  58.574  1.00  0.00     0.057 A 
BRANCH  71  75
HETATM   75  O   UNL     1     -38.385  21.309  59.148  1.00  0.00    -0.358 OA
HETATM   76  H   UNL     1     -38.514  21.422  60.113  1.00  0.00     0.217 HD
ENDBRANCH  71  75
BRANCH  72  77
HETATM   77  O   UNL     1     -36.738  21.323  56.895  1.00  0.00    -0.356 OA
HETATM   78  H   UNL     1     -35.997  21.930  57.101  1.00  0.00     0.218 HD
ENDBRANCH  72  77
BRANCH  73  79
HETATM   79  O   UNL     1     -34.967  19.312  56.500  1.00  0.00    -0.358 OA
HETATM   80  H   UNL     1     -34.580  20.203  56.410  1.00  0.00     0.217 HD
ENDBRANCH  73  79
ENDBRANCH  67  69
ENDBRANCH  66  67
ENDBRANCH  60  66
ENDBRANCH  54  56
ENDBRANCH  53  54
ENDBRANCH  52  53
ENDBRANCH   2  52
BRANCH   3  81
HETATM   81  O   UNL     1     -39.567  11.539  54.783  1.00  0.00    -0.285 OA
BRANCH  81  82
HETATM   82  C   UNL     1     -39.319  10.206  54.680  1.00  0.00     0.295 C 
HETATM   83  O   UNL     1     -38.986   9.709  53.612  1.00  0.00    -0.259 OA
BRANCH  82  84
HETATM   84  C   UNL     1     -39.318   9.399  55.930  1.00  0.00     0.045 A 
HETATM   85  C   UNL     1     -39.152   8.008  55.919  1.00  0.00     0.057 A 
HETATM   86  C   UNL     1     -39.265   7.300  57.114  1.00  0.00     0.102 A 
HETATM   87  C   UNL     1     -39.560   7.954  58.306  1.00  0.00     0.132 A 
HETATM   88  C   UNL     1     -39.742   9.329  58.318  1.00  0.00     0.102 A 
HETATM   89  C   UNL     1     -39.626  10.057  57.137  1.00  0.00     0.057 A 
BRANCH  86  90
HETATM   90  O   UNL     1     -39.107   5.942  57.125  1.00  0.00    -0.358 OA
HETATM   91  H   UNL     1     -38.187   5.811  56.808  1.00  0.00     0.217 HD
ENDBRANCH  86  90
BRANCH  87  92
HETATM   92  O   UNL     1     -39.689   7.217  59.452  1.00  0.00    -0.356 OA
HETATM   93  H   UNL     1     -39.360   6.326  59.205  1.00  0.00     0.218 HD
ENDBRANCH  87  92
BRANCH  88  94
HETATM   94  O   UNL     1     -40.054   9.920  59.512  1.00  0.00    -0.358 OA
HETATM   95  H   UNL     1     -40.065  10.886  59.376  1.00  0.00     0.217 HD
ENDBRANCH  88  94
ENDBRANCH  82  84
ENDBRANCH  81  82
ENDBRANCH   3  81
TORSDOF 38
ENDMDL
MODEL 5
REMARK VINA RESULT:    -8.405      1.755      3.189
REMARK INTER + INTRA:         -20.529
REMARK INTER:                 -21.065
REMARK INTRA:                   0.536
REMARK UNBOUND:                 1.142
REMARK WARNING: 32 MAX_TORS EXCEEDED!!!
REMARK  38 active torsions:
REMARK  status: ('A' for Active; 'I' for Inactive)
REMARK    1  A    between atoms: O_2  and  C_27 
REMARK    2  A    between atoms: O_2  and  C_33 
REMARK    3  A    between atoms: O_3  and  C_28 
REMARK    4  A    between atoms: O_3  and  C_34 
REMARK    5  A    between atoms: O_4  and  C_29 
REMARK    6  A    between atoms: O_4  and  C_35 
REMARK    7  A    between atoms: O_5  and  C_31 
REMARK    8  A    between atoms: O_5  and  C_36 
REMARK    9  A    between atoms: O_6  and  C_32 
REMARK   10  A    between atoms: O_6  and  C_39 
REMARK   11  A    between atoms: O_12  and  C_51 
REMARK   12  A    between atoms: O_13  and  C_52 
REMARK   13  A    between atoms: O_14  and  C_53 
REMARK   14  A    between atoms: O_15  and  C_54 
REMARK   15  A    between atoms: O_16  and  C_55 
REMARK   16  A    between atoms: O_17  and  C_56 
REMARK   17  A    between atoms: O_18  and  C_59 
REMARK   18  A    between atoms: O_19  and  C_60 
REMARK   19  A    between atoms: O_20  and  C_61 
REMARK   20  A    between atoms: O_21  and  C_62 
REMARK   21  A    between atoms: O_22  and  C_63 
REMARK   22  A    between atoms: O_23  and  C_64 
REMARK   23  A    between atoms: O_24  and  C_65 
REMARK   24  A    between atoms: O_24  and  C_86 
REMARK   25  A    between atoms: O_25  and  C_66 
REMARK   26  A    between atoms: O_26  and  C_67 
REMARK   27  A    between atoms: C_28  and  C_30 
REMARK   28  A    between atoms: C_29  and  C_31 
REMARK   29  A    between atoms: C_30  and  C_32 
REMARK   30  A    between atoms: C_33  and  C_37 
REMARK   31  A    between atoms: C_34  and  C_38 
REMARK   32  A    between atoms: C_35  and  C_40 
REMARK   33  A    between atoms: C_36  and  C_41 
REMARK   34  A    between atoms: C_39  and  C_42 
REMARK   35  A    between atoms: O_83  and  C_90 
REMARK   36  A    between atoms: O_84  and  C_91 
REMARK   37  A    between atoms: O_85  and  C_92 
REMARK   38  A    between atoms: C_86  and  C_87 
ROOT
HETATM    1  O   UNL     1     -37.711  14.142  54.476  1.00  0.00    -0.348 OA
HETATM    2  C   UNL     1     -38.818  14.914  54.304  1.00  0.00     0.201 A 
HETATM    3  C   UNL     1     -38.805  13.542  53.906  1.00  0.00     0.282 A 
ENDROOT
BRANCH   2   4
HETATM    4  C   UNL     1     -39.061  15.131  53.547  1.00  0.00     0.199 A 
HETATM    5  C   UNL     1     -39.353  16.678  53.406  1.00  0.00     0.198 A 
HETATM    6  C   UNL     1     -38.007  16.094  53.485  1.00  0.00     0.215 A 
BRANCH   4   7
HETATM    7  O   UNL     1     -40.748  15.034  53.986  1.00  0.00    -0.306 OA
BRANCH   7   8
HETATM    8  C   UNL     1     -42.028  14.891  53.689  1.00  0.00     0.294 C 
HETATM    9  O   UNL     1     -42.918  15.027  54.523  1.00  0.00    -0.259 OA
BRANCH   8  10
HETATM   10  C   UNL     1     -42.439  14.630  52.321  1.00  0.00     0.045 A 
HETATM   11  C   UNL     1     -41.451  14.272  51.397  1.00  0.00     0.057 A 
HETATM   12  C   UNL     1     -41.830  13.573  50.259  1.00  0.00     0.102 A 
HETATM   13  C   UNL     1     -43.171  13.263  50.043  1.00  0.00     0.132 A 
HETATM   14  C   UNL     1     -44.146  13.656  50.954  1.00  0.00     0.102 A 
HETATM   15  C   UNL     1     -43.785  14.319  52.114  1.00  0.00     0.057 A 
BRANCH  12  16
HETATM   16  O   UNL     1     -40.906  13.104  49.367  1.00  0.00    -0.358 OA
HETATM   17  H   UNL     1     -41.345  12.432  48.812  1.00  0.00     0.217 HD
ENDBRANCH  12  16
BRANCH  13  18
HETATM   18  O   UNL     1     -43.542  12.501  48.968  1.00  0.00    -0.356 OA
HETATM   19  H   UNL     1     -44.503  12.361  49.097  1.00  0.00     0.218 HD
ENDBRANCH  13  18
BRANCH  14  20
HETATM   20  O   UNL     1     -45.454  13.319  50.753  1.00  0.00    -0.358 OA
HETATM   21  H   UNL     1     -45.658  13.692  49.869  1.00  0.00     0.217 HD
ENDBRANCH  14  20
ENDBRANCH   8  10
ENDBRANCH   7   8
ENDBRANCH   4   7
BRANCH   5  22
HETATM   22  O   UNL     1     -39.792  16.989  51.961  1.00  0.00    -0.306 OA
BRANCH  22  23
HETATM   23  C   UNL     1     -40.212  18.247  51.572  1.00  0.00     0.294 C 
HETATM   24  O   UNL     1     -40.733  19.115  52.261  1.00  0.00    -0.259 OA
BRANCH  23  25
HETATM   25  C   UNL     1     -40.019  18.527  50.153  1.00  0.00     0.045 A 
HETATM   26  C   UNL     1     -40.744  17.785  49.205  1.00  0.00     0.057 A 
HETATM   27  C   UNL     1     -40.542  18.038  47.856  1.00  0.00     0.102 A 
HETATM   28  C   UNL     1     -39.611  18.992  47.465  1.00  0.00     0.132 A 
HETATM   29  C   UNL     1     -38.822  19.635  48.411  1.00  0.00     0.102 A 
HETATM   30  C   UNL     1     -39.006  19.398  49.761  1.00  0.00     0.057 A 
BRANCH  27  31
HETATM   31  O   UNL     1     -41.231  17.371  46.884  1.00  0.00    -0.358 OA
HETATM   32  H   UNL     1     -41.622  18.027  46.276  1.00  0.00     0.217 HD
ENDBRANCH  27  31
BRANCH  28  33
HETATM   33  O   UNL     1     -39.453  19.308  46.144  1.00  0.00    -0.356 OA
HETATM   34  H   UNL     1     -40.340  19.160  45.757  1.00  0.00     0.218 HD
ENDBRANCH  28  33
BRANCH  29  35
HETATM   35  O   UNL     1     -37.854  20.510  48.022  1.00  0.00    -0.358 OA
HETATM   36  H   UNL     1     -37.154  19.952  47.632  1.00  0.00     0.217 HD
ENDBRANCH  29  35
ENDBRANCH  23  25
ENDBRANCH  22  23
ENDBRANCH   5  22
BRANCH   6  37
HETATM   37  O   UNL     1     -36.863  17.139  52.932  1.00  0.00    -0.304 OA
BRANCH  37  38
HETATM   38  C   UNL     1     -35.724  17.496  53.585  1.00  0.00     0.294 C 
HETATM   39  O   UNL     1     -35.232  18.602  53.669  1.00  0.00    -0.259 OA
BRANCH  38  40
HETATM   40  C   UNL     1     -35.144  16.276  54.152  1.00  0.00     0.045 A 
HETATM   41  C   UNL     1     -34.418  15.457  53.284  1.00  0.00     0.057 A 
HETATM   42  C   UNL     1     -33.827  14.312  53.777  1.00  0.00     0.102 A 
HETATM   43  C   UNL     1     -33.937  13.992  55.122  1.00  0.00     0.132 A 
HETATM   44  C   UNL     1     -34.636  14.829  55.990  1.00  0.00     0.102 A 
HETATM   45  C   UNL     1     -35.252  15.981  55.514  1.00  0.00     0.057 A 
BRANCH  42  46
HETATM   46  O   UNL     1     -33.120  13.525  52.922  1.00  0.00    -0.358 OA
HETATM   47  H   UNL     1     -33.115  14.005  52.072  1.00  0.00     0.217 HD
ENDBRANCH  42  46
BRANCH  43  48
HETATM   48  O   UNL     1     -33.326  12.860  55.583  1.00  0.00    -0.356 OA
HETATM   49  H   UNL     1     -33.571  12.172  54.932  1.00  0.00     0.218 HD
ENDBRANCH  43  48
BRANCH  44  50
HETATM   50  O   UNL     1     -34.668  14.483  57.312  1.00  0.00    -0.358 OA
HETATM   51  H   UNL     1     -34.561  13.516  57.376  1.00  0.00     0.217 HD
ENDBRANCH  44  50
ENDBRANCH  38  40
ENDBRANCH  37  38
ENDBRANCH   6  37
ENDBRANCH   2   4
BRANCH   2  52
HETATM   52  C   UNL     1     -39.768  15.809  55.324  1.00  0.00     0.216 C 
BRANCH  52  53
HETATM   53  O   UNL     1     -39.177  15.680  56.614  1.00  0.00    -0.315 OA
BRANCH  53  54
HETATM   54  C   UNL     1     -39.898  14.942  57.470  1.00  0.00     0.293 C 
HETATM   55  O   UNL     1     -41.083  14.686  57.385  1.00  0.00    -0.259 OA
BRANCH  54  56
HETATM   56  C   UNL     1     -38.992  14.573  58.571  1.00  0.00     0.045 C 
HETATM   57  C   UNL     1     -39.058  13.314  59.200  1.00  0.00     0.057 C 
HETATM   58  C   UNL     1     -38.135  12.984  60.175  1.00  0.00     0.102 C 
HETATM   59  C   UNL     1     -37.065  13.827  60.420  1.00  0.00     0.133 C 
HETATM   60  C   UNL     1     -36.951  15.013  59.691  1.00  0.00     0.116 C 
HETATM   61  C   UNL     1     -37.980  15.471  58.879  1.00  0.00     0.058 C 
BRANCH  58  62
HETATM   62  O   UNL     1     -38.223  11.783  60.818  1.00  0.00    -0.358 OA
HETATM   63  H   UNL     1     -38.606  11.179  60.149  1.00  0.00     0.217 HD
ENDBRANCH  58  62
BRANCH  59  64
HETATM   64  O   UNL     1     -36.109  13.394  61.295  1.00  0.00    -0.356 OA
HETATM   65  H   UNL     1     -35.242  13.471  60.851  1.00  0.00     0.218 HD
ENDBRANCH  59  64
BRANCH  60  66
HETATM   66  O   UNL     1     -35.711  15.636  59.543  1.00  0.00    -0.272 OA
BRANCH  66  67
HETATM   67  C   UNL     1     -35.792  16.813  60.277  1.00  0.00     0.298 C 
HETATM   68  O   UNL     1     -35.687  16.846  61.494  1.00  0.00    -0.259 OA
BRANCH  67  69
HETATM   69  C   UNL     1     -36.052  18.027  59.454  1.00  0.00     0.045 A 
HETATM   70  C   UNL     1     -35.329  18.215  58.265  1.00  0.00     0.057 A 
HETATM   71  C   UNL     1     -35.611  19.315  57.462  1.00  0.00     0.102 A 
HETATM   72  C   UNL     1     -36.565  20.243  57.853  1.00  0.00     0.132 A 
HETATM   73  C   UNL     1     -37.255  20.068  59.051  1.00  0.00     0.102 A 
HETATM   74  C   UNL     1     -37.027  18.950  59.852  1.00  0.00     0.057 A 
BRANCH  71  75
HETATM   75  O   UNL     1     -34.915  19.441  56.300  1.00  0.00    -0.358 OA
HETATM   76  H   UNL     1     -34.243  18.729  56.244  1.00  0.00     0.217 HD
ENDBRANCH  71  75
BRANCH  72  77
HETATM   77  O   UNL     1     -36.814  21.335  57.071  1.00  0.00    -0.356 OA
HETATM   78  H   UNL     1     -36.211  21.246  56.304  1.00  0.00     0.218 HD
ENDBRANCH  72  77
BRANCH  73  79
HETATM   79  O   UNL     1     -38.152  21.037  59.407  1.00  0.00    -0.358 OA
HETATM   80  H   UNL     1     -37.674  21.883  59.493  1.00  0.00     0.217 HD
ENDBRANCH  73  79
ENDBRANCH  67  69
ENDBRANCH  66  67
ENDBRANCH  60  66
ENDBRANCH  54  56
ENDBRANCH  53  54
ENDBRANCH  52  53
ENDBRANCH   2  52
BRANCH   3  81
HETATM   81  O   UNL     1     -39.909  12.899  54.806  1.00  0.00    -0.285 OA
BRANCH  81  82
HETATM   82  C   UNL     1     -40.224  11.580  54.694  1.00  0.00     0.295 C 
HETATM   83  O   UNL     1     -39.843  10.770  55.528  1.00  0.00    -0.259 OA
BRANCH  82  84
HETATM   84  C   UNL     1     -41.166  11.179  53.614  1.00  0.00     0.045 A 
HETATM   85  C   UNL     1     -42.537  11.008  53.847  1.00  0.00     0.057 A 
HETATM   86  C   UNL     1     -43.347  10.531  52.818  1.00  0.00     0.102 A 
HETATM   87  C   UNL     1     -42.807  10.203  51.579  1.00  0.00     0.132 A 
HETATM   88  C   UNL     1     -41.448  10.354  51.349  1.00  0.00     0.102 A 
HETATM   89  C   UNL     1     -40.622  10.837  52.360  1.00  0.00     0.057 A 
BRANCH  86  90
HETATM   90  O   UNL     1     -44.687  10.357  53.025  1.00  0.00    -0.358 OA
HETATM   91  H   UNL     1     -45.085  11.190  52.691  1.00  0.00     0.217 HD
ENDBRANCH  86  90
BRANCH  87  92
HETATM   92  O   UNL     1     -43.635   9.712  50.604  1.00  0.00    -0.356 OA
HETATM   93  H   UNL     1     -43.971   8.869  50.976  1.00  0.00     0.218 HD
ENDBRANCH  87  92
BRANCH  88  94
HETATM   94  O   UNL     1     -40.965   9.996  50.121  1.00  0.00    -0.358 OA
HETATM   95  H   UNL     1     -40.558  10.784  49.715  1.00  0.00     0.217 HD
ENDBRANCH  88  94
ENDBRANCH  82  84
ENDBRANCH  81  82
ENDBRANCH   3  81
TORSDOF 38
ENDMDL
MODEL 6
REMARK VINA RESULT:    -8.354      1.933      3.283
REMARK INTER + INTRA:         -20.397
REMARK INTER:                 -19.547
REMARK INTRA:                  -0.850
REMARK UNBOUND:                 1.142
REMARK WARNING: 32 MAX_TORS EXCEEDED!!!
REMARK  38 active torsions:
REMARK  status: ('A' for Active; 'I' for Inactive)
REMARK    1  A    between atoms: O_2  and  C_27 
REMARK    2  A    between atoms: O_2  and  C_33 
REMARK    3  A    between atoms: O_3  and  C_28 
REMARK    4  A    between atoms: O_3  and  C_34 
REMARK    5  A    between atoms: O_4  and  C_29 
REMARK    6  A    between atoms: O_4  and  C_35 
REMARK    7  A    between atoms: O_5  and  C_31 
REMARK    8  A    between atoms: O_5  and  C_36 
REMARK    9  A    between atoms: O_6  and  C_32 
REMARK   10  A    between atoms: O_6  and  C_39 
REMARK   11  A    between atoms: O_12  and  C_51 
REMARK   12  A    between atoms: O_13  and  C_52 
REMARK   13  A    between atoms: O_14  and  C_53 
REMARK   14  A    between atoms: O_15  and  C_54 
REMARK   15  A    between atoms: O_16  and  C_55 
REMARK   16  A    between atoms: O_17  and  C_56 
REMARK   17  A    between atoms: O_18  and  C_59 
REMARK   18  A    between atoms: O_19  and  C_60 
REMARK   19  A    between atoms: O_20  and  C_61 
REMARK   20  A    between atoms: O_21  and  C_62 
REMARK   21  A    between atoms: O_22  and  C_63 
REMARK   22  A    between atoms: O_23  and  C_64 
REMARK   23  A    between atoms: O_24  and  C_65 
REMARK   24  A    between atoms: O_24  and  C_86 
REMARK   25  A    between atoms: O_25  and  C_66 
REMARK   26  A    between atoms: O_26  and  C_67 
REMARK   27  A    between atoms: C_28  and  C_30 
REMARK   28  A    between atoms: C_29  and  C_31 
REMARK   29  A    between atoms: C_30  and  C_32 
REMARK   30  A    between atoms: C_33  and  C_37 
REMARK   31  A    between atoms: C_34  and  C_38 
REMARK   32  A    between atoms: C_35  and  C_40 
REMARK   33  A    between atoms: C_36  and  C_41 
REMARK   34  A    between atoms: C_39  and  C_42 
REMARK   35  A    between atoms: O_83  and  C_90 
REMARK   36  A    between atoms: O_84  and  C_91 
REMARK   37  A    between atoms: O_85  and  C_92 
REMARK   38  A    between atoms: C_86  and  C_87 
ROOT
HETATM    1  O   UNL     1     -37.668  14.236  54.427  1.00  0.00    -0.348 OA
HETATM    2  C   UNL     1     -38.751  15.045  54.271  1.00  0.00     0.201 A 
HETATM    3  C   UNL     1     -38.776  13.686  53.831  1.00  0.00     0.282 A 
ENDROOT
BRANCH   2   4
HETATM    4  C   UNL     1     -38.982  15.293  53.520  1.00  0.00     0.199 A 
HETATM    5  C   UNL     1     -39.200  16.855  53.418  1.00  0.00     0.198 A 
HETATM    6  C   UNL     1     -37.883  16.206  53.484  1.00  0.00     0.215 A 
BRANCH   4   7
HETATM    7  O   UNL     1     -40.672  15.264  53.954  1.00  0.00    -0.306 OA
BRANCH   7   8
HETATM    8  C   UNL     1     -41.958  15.232  53.651  1.00  0.00     0.294 C 
HETATM    9  O   UNL     1     -42.776  15.988  54.165  1.00  0.00    -0.259 OA
BRANCH   8  10
HETATM   10  C   UNL     1     -42.448  14.328  52.625  1.00  0.00     0.045 A 
HETATM   11  C   UNL     1     -43.831  14.137  52.525  1.00  0.00     0.057 A 
HETATM   12  C   UNL     1     -44.352  13.693  51.318  1.00  0.00     0.102 A 
HETATM   13  C   UNL     1     -43.504  13.425  50.246  1.00  0.00     0.132 A 
HETATM   14  C   UNL     1     -42.129  13.587  50.371  1.00  0.00     0.102 A 
HETATM   15  C   UNL     1     -41.591  14.065  51.553  1.00  0.00     0.057 A 
BRANCH  12  16
HETATM   16  O   UNL     1     -45.700  13.583  51.119  1.00  0.00    -0.358 OA
HETATM   17  H   UNL     1     -45.865  13.650  50.160  1.00  0.00     0.217 HD
ENDBRANCH  12  16
BRANCH  13  18
HETATM   18  O   UNL     1     -44.018  13.069  49.028  1.00  0.00    -0.356 OA
HETATM   19  H   UNL     1     -44.487  12.227  49.204  1.00  0.00     0.218 HD
ENDBRANCH  13  18
BRANCH  14  20
HETATM   20  O   UNL     1     -41.307  13.354  49.306  1.00  0.00    -0.358 OA
HETATM   21  H   UNL     1     -40.981  12.441  49.457  1.00  0.00     0.217 HD
ENDBRANCH  14  20
ENDBRANCH   8  10
ENDBRANCH   7   8
ENDBRANCH   4   7
BRANCH   5  22
HETATM   22  O   UNL     1     -39.621  17.222  51.981  1.00  0.00    -0.306 OA
BRANCH  22  23
HETATM   23  C   UNL     1     -40.680  18.071  51.716  1.00  0.00     0.294 C 
HETATM   24  O   UNL     1     -40.975  19.111  52.292  1.00  0.00    -0.259 OA
BRANCH  23  25
HETATM   25  C   UNL     1     -41.543  17.625  50.627  1.00  0.00     0.045 A 
HETATM   26  C   UNL     1     -42.924  17.498  50.859  1.00  0.00     0.057 A 
HETATM   27  C   UNL     1     -43.739  17.052  49.829  1.00  0.00     0.102 A 
HETATM   28  C   UNL     1     -43.180  16.712  48.604  1.00  0.00     0.132 A 
HETATM   29  C   UNL     1     -41.802  16.735  48.429  1.00  0.00     0.102 A 
HETATM   30  C   UNL     1     -40.969  17.175  49.442  1.00  0.00     0.057 A 
BRANCH  27  31
HETATM   31  O   UNL     1     -45.091  16.930  49.979  1.00  0.00    -0.358 OA
HETATM   32  H   UNL     1     -45.468  17.819  50.121  1.00  0.00     0.217 HD
ENDBRANCH  27  31
BRANCH  28  33
HETATM   33  O   UNL     1     -43.975  16.343  47.555  1.00  0.00    -0.356 OA
HETATM   34  H   UNL     1     -44.486  15.582  47.901  1.00  0.00     0.218 HD
ENDBRANCH  28  33
BRANCH  29  35
HETATM   35  O   UNL     1     -41.249  16.323  47.254  1.00  0.00    -0.358 OA
HETATM   36  H   UNL     1     -41.990  15.933  46.751  1.00  0.00     0.217 HD
ENDBRANCH  29  35
ENDBRANCH  23  25
ENDBRANCH  22  23
ENDBRANCH   5  22
BRANCH   6  37
HETATM   37  O   UNL     1     -36.691  17.211  52.959  1.00  0.00    -0.304 OA
BRANCH  37  38
HETATM   38  C   UNL     1     -35.573  17.556  53.654  1.00  0.00     0.294 C 
HETATM   39  O   UNL     1     -35.133  18.670  53.845  1.00  0.00    -0.259 OA
BRANCH  38  40
HETATM   40  C   UNL     1     -34.941  16.316  54.110  1.00  0.00     0.045 A 
HETATM   41  C   UNL     1     -35.105  15.978  55.455  1.00  0.00     0.057 A 
HETATM   42  C   UNL     1     -34.554  14.804  55.926  1.00  0.00     0.102 A 
HETATM   43  C   UNL     1     -33.864  13.963  55.068  1.00  0.00     0.132 A 
HETATM   44  C   UNL     1     -33.728  14.289  53.719  1.00  0.00     0.102 A 
HETATM   45  C   UNL     1     -34.264  15.473  53.224  1.00  0.00     0.057 A 
BRANCH  42  46
HETATM   46  O   UNL     1     -34.725  14.485  57.238  1.00  0.00    -0.358 OA
HETATM   47  H   UNL     1     -35.692  14.482  57.380  1.00  0.00     0.217 HD
ENDBRANCH  42  46
BRANCH  43  48
HETATM   48  O   UNL     1     -33.344  12.798  55.560  1.00  0.00    -0.356 OA
HETATM   49  H   UNL     1     -33.831  12.096  55.083  1.00  0.00     0.218 HD
ENDBRANCH  43  48
BRANCH  44  50
HETATM   50  O   UNL     1     -33.078  13.395  52.915  1.00  0.00    -0.358 OA
HETATM   51  H   UNL     1     -33.723  12.725  52.621  1.00  0.00     0.217 HD
ENDBRANCH  44  50
ENDBRANCH  38  40
ENDBRANCH  37  38
ENDBRANCH   6  37
ENDBRANCH   2   4
BRANCH   2  52
HETATM   52  C   UNL     1     -39.682  15.936  55.313  1.00  0.00     0.216 C 
BRANCH  52  53
HETATM   53  O   UNL     1     -39.111  15.740  56.603  1.00  0.00    -0.315 OA
BRANCH  53  54
HETATM   54  C   UNL     1     -39.858  14.980  57.417  1.00  0.00     0.293 C 
HETATM   55  O   UNL     1     -41.040  14.728  57.289  1.00  0.00    -0.259 OA
BRANCH  54  56
HETATM   56  C   UNL     1     -38.985  14.580  58.534  1.00  0.00     0.045 C 
HETATM   57  C   UNL     1     -39.096  13.318  59.151  1.00  0.00     0.057 C 
HETATM   58  C   UNL     1     -38.203  12.957  60.142  1.00  0.00     0.102 C 
HETATM   59  C   UNL     1     -37.117  13.771  60.417  1.00  0.00     0.133 C 
HETATM   60  C   UNL     1     -36.958  14.959  59.701  1.00  0.00     0.116 C 
HETATM   61  C   UNL     1     -37.958  15.449  58.870  1.00  0.00     0.058 C 
BRANCH  58  62
HETATM   62  O   UNL     1     -38.335  11.754  60.774  1.00  0.00    -0.358 OA
HETATM   63  H   UNL     1     -37.969  11.911  61.669  1.00  0.00     0.217 HD
ENDBRANCH  58  62
BRANCH  59  64
HETATM   64  O   UNL     1     -36.192  13.307  61.308  1.00  0.00    -0.356 OA
HETATM   65  H   UNL     1     -36.003  14.026  61.942  1.00  0.00     0.218 HD
ENDBRANCH  59  64
BRANCH  60  66
HETATM   66  O   UNL     1     -35.700  15.552  59.584  1.00  0.00    -0.272 OA
BRANCH  66  67
HETATM   67  C   UNL     1     -35.779  16.744  60.293  1.00  0.00     0.298 C 
HETATM   68  O   UNL     1     -35.632  16.807  61.504  1.00  0.00    -0.259 OA
BRANCH  67  69
HETATM   69  C   UNL     1     -36.092  17.933  59.452  1.00  0.00     0.045 A 
HETATM   70  C   UNL     1     -37.123  18.799  59.849  1.00  0.00     0.057 A 
HETATM   71  C   UNL     1     -37.379  19.944  59.101  1.00  0.00     0.102 A 
HETATM   72  C   UNL     1     -36.653  20.205  57.948  1.00  0.00     0.132 A 
HETATM   73  C   UNL     1     -35.652  19.324  57.542  1.00  0.00     0.102 A 
HETATM   74  C   UNL     1     -35.343  18.194  58.298  1.00  0.00     0.057 A 
BRANCH  71  75
HETATM   75  O   UNL     1     -38.361  20.776  59.539  1.00  0.00    -0.358 OA
HETATM   76  H   UNL     1     -38.020  21.695  59.567  1.00  0.00     0.217 HD
ENDBRANCH  71  75
BRANCH  72  77
HETATM   77  O   UNL     1     -36.930  21.317  57.205  1.00  0.00    -0.356 OA
HETATM   78  H   UNL     1     -37.603  21.809  57.720  1.00  0.00     0.218 HD
ENDBRANCH  72  77
BRANCH  73  79
HETATM   79  O   UNL     1     -34.999  19.609  56.374  1.00  0.00    -0.358 OA
HETATM   80  H   UNL     1     -34.842  20.571  56.336  1.00  0.00     0.217 HD
ENDBRANCH  73  79
ENDBRANCH  67  69
ENDBRANCH  66  67
ENDBRANCH  60  66
ENDBRANCH  54  56
ENDBRANCH  53  54
ENDBRANCH  52  53
ENDBRANCH   2  52
BRANCH   3  81
HETATM   81  O   UNL     1     -39.904  13.049  54.703  1.00  0.00    -0.285 OA
BRANCH  81  82
HETATM   82  C   UNL     1     -40.099  11.703  54.723  1.00  0.00     0.295 C 
HETATM   83  O   UNL     1     -39.668  11.019  55.641  1.00  0.00    -0.259 OA
BRANCH  82  84
HETATM   84  C   UNL     1     -40.976  11.111  53.676  1.00  0.00     0.045 A 
HETATM   85  C   UNL     1     -40.515  10.848  52.380  1.00  0.00     0.057 A 
HETATM   86  C   UNL     1     -41.414  10.390  51.418  1.00  0.00     0.102 A 
HETATM   87  C   UNL     1     -42.759  10.215  51.726  1.00  0.00     0.132 A 
HETATM   88  C   UNL     1     -43.223  10.492  53.003  1.00  0.00     0.102 A 
HETATM   89  C   UNL     1     -42.341  10.942  53.981  1.00  0.00     0.057 A 
BRANCH  86  90
HETATM   90  O   UNL     1     -40.984  10.127  50.148  1.00  0.00    -0.358 OA
HETATM   91  H   UNL     1     -41.181  10.955  49.658  1.00  0.00     0.217 HD
ENDBRANCH  86  90
BRANCH  87  92
HETATM   92  O   UNL     1     -43.613   9.790  50.743  1.00  0.00    -0.356 OA
HETATM   93  H   UNL     1     -43.688  10.558  50.138  1.00  0.00     0.218 HD
ENDBRANCH  87  92
BRANCH  88  94
HETATM   94  O   UNL     1     -44.559  10.326  53.246  1.00  0.00    -0.358 OA
HETATM   95  H   UNL     1     -44.667  10.083  54.184  1.00  0.00     0.217 HD
ENDBRANCH  88  94
ENDBRANCH  82  84
ENDBRANCH  81  82
ENDBRANCH   3  81
TORSDOF 38
ENDMDL
MODEL 7
REMARK VINA RESULT:    -8.326      0.778      2.041
REMARK INTER + INTRA:         -20.327
REMARK INTER:                 -21.406
REMARK INTRA:                   1.080
REMARK UNBOUND:                 1.142
REMARK WARNING: 32 MAX_TORS EXCEEDED!!!
REMARK  38 active torsions:
REMARK  status: ('A' for Active; 'I' for Inactive)
REMARK    1  A    between atoms: O_2  and  C_27 
REMARK    2  A    between atoms: O_2  and  C_33 
REMARK    3  A    between atoms: O_3  and  C_28 
REMARK    4  A    between atoms: O_3  and  C_34 
REMARK    5  A    between atoms: O_4  and  C_29 
REMARK    6  A    between atoms: O_4  and  C_35 
REMARK    7  A    between atoms: O_5  and  C_31 
REMARK    8  A    between atoms: O_5  and  C_36 
REMARK    9  A    between atoms: O_6  and  C_32 
REMARK   10  A    between atoms: O_6  and  C_39 
REMARK   11  A    between atoms: O_12  and  C_51 
REMARK   12  A    between atoms: O_13  and  C_52 
REMARK   13  A    between atoms: O_14  and  C_53 
REMARK   14  A    between atoms: O_15  and  C_54 
REMARK   15  A    between atoms: O_16  and  C_55 
REMARK   16  A    between atoms: O_17  and  C_56 
REMARK   17  A    between atoms: O_18  and  C_59 
REMARK   18  A    between atoms: O_19  and  C_60 
REMARK   19  A    between atoms: O_20  and  C_61 
REMARK   20  A    between atoms: O_21  and  C_62 
REMARK   21  A    between atoms: O_22  and  C_63 
REMARK   22  A    between atoms: O_23  and  C_64 
REMARK   23  A    between atoms: O_24  and  C_65 
REMARK   24  A    between atoms: O_24  and  C_86 
REMARK   25  A    between atoms: O_25  and  C_66 
REMARK   26  A    between atoms: O_26  and  C_67 
REMARK   27  A    between atoms: C_28  and  C_30 
REMARK   28  A    between atoms: C_29  and  C_31 
REMARK   29  A    between atoms: C_30  and  C_32 
REMARK   30  A    between atoms: C_33  and  C_37 
REMARK   31  A    between atoms: C_34  and  C_38 
REMARK   32  A    between atoms: C_35  and  C_40 
REMARK   33  A    between atoms: C_36  and  C_41 
REMARK   34  A    between atoms: C_39  and  C_42 
REMARK   35  A    between atoms: O_83  and  C_90 
REMARK   36  A    between atoms: O_84  and  C_91 
REMARK   37  A    between atoms: O_85  and  C_92 
REMARK   38  A    between atoms: C_86  and  C_87 
ROOT
HETATM    1  O   UNL     1     -37.958  13.766  54.499  1.00  0.00    -0.348 OA
HETATM    2  C   UNL     1     -39.189  14.287  54.243  1.00  0.00     0.201 A 
HETATM    3  C   UNL     1     -38.801  13.015  53.720  1.00  0.00     0.282 A 
ENDROOT
BRANCH   2   4
HETATM    4  C   UNL     1     -39.384  14.540  53.483  1.00  0.00     0.199 A 
HETATM    5  C   UNL     1     -39.926  16.024  53.441  1.00  0.00     0.198 A 
HETATM    6  C   UNL     1     -38.514  15.663  53.633  1.00  0.00     0.215 A 
BRANCH   4   7
HETATM    7  O   UNL     1     -41.065  14.122  53.703  1.00  0.00    -0.306 OA
BRANCH   7   8
HETATM    8  C   UNL     1     -42.243  13.731  53.248  1.00  0.00     0.294 C 
HETATM    9  O   UNL     1     -43.300  14.091  53.757  1.00  0.00    -0.259 OA
BRANCH   8  10
HETATM   10  C   UNL     1     -42.331  12.899  52.062  1.00  0.00     0.045 A 
HETATM   11  C   UNL     1     -41.568  13.263  50.946  1.00  0.00     0.057 A 
HETATM   12  C   UNL     1     -41.254  12.287  50.011  1.00  0.00     0.102 A 
HETATM   13  C   UNL     1     -41.714  10.983  50.179  1.00  0.00     0.132 A 
HETATM   14  C   UNL     1     -42.500  10.644  51.275  1.00  0.00     0.102 A 
HETATM   15  C   UNL     1     -42.793  11.592  52.239  1.00  0.00     0.057 A 
BRANCH  12  16
HETATM   16  O   UNL     1     -40.428  12.549  48.954  1.00  0.00    -0.358 OA
HETATM   17  H   UNL     1     -40.973  12.546  48.144  1.00  0.00     0.217 HD
ENDBRANCH  12  16
BRANCH  13  18
HETATM   18  O   UNL     1     -41.337   9.997  49.308  1.00  0.00    -0.356 OA
HETATM   19  H   UNL     1     -40.630  10.411  48.771  1.00  0.00     0.218 HD
ENDBRANCH  13  18
BRANCH  14  20
HETATM   20  O   UNL     1     -42.920   9.356  51.451  1.00  0.00    -0.358 OA
HETATM   21  H   UNL     1     -43.899   9.422  51.419  1.00  0.00     0.217 HD
ENDBRANCH  14  20
ENDBRANCH   8  10
ENDBRANCH   7   8
ENDBRANCH   4   7
BRANCH   5  22
HETATM   22  O   UNL     1     -40.257  16.409  51.985  1.00  0.00    -0.306 OA
BRANCH  22  23
HETATM   23  C   UNL     1     -40.565  17.705  51.616  1.00  0.00     0.294 C 
HETATM   24  O   UNL     1     -41.074  18.584  52.302  1.00  0.00    -0.259 OA
BRANCH  23  25
HETATM   25  C   UNL     1     -40.254  18.019  50.225  1.00  0.00     0.045 A 
HETATM   26  C   UNL     1     -40.783  17.207  49.207  1.00  0.00     0.057 A 
HETATM   27  C   UNL     1     -40.468  17.494  47.887  1.00  0.00     0.102 A 
HETATM   28  C   UNL     1     -39.617  18.552  47.596  1.00  0.00     0.132 A 
HETATM   29  C   UNL     1     -39.013  19.273  48.619  1.00  0.00     0.102 A 
HETATM   30  C   UNL     1     -39.312  19.004  49.943  1.00  0.00     0.057 A 
BRANCH  27  31
HETATM   31  O   UNL     1     -40.967  16.761  46.850  1.00  0.00    -0.358 OA
HETATM   32  H   UNL     1     -40.220  16.440  46.309  1.00  0.00     0.217 HD
ENDBRANCH  27  31
BRANCH  28  33
HETATM   33  O   UNL     1     -39.355  18.896  46.299  1.00  0.00    -0.356 OA
HETATM   34  H   UNL     1     -40.020  18.398  45.782  1.00  0.00     0.218 HD
ENDBRANCH  28  33
BRANCH  29  35
HETATM   35  O   UNL     1     -38.116  20.257  48.333  1.00  0.00    -0.358 OA
HETATM   36  H   UNL     1     -37.868  20.107  47.400  1.00  0.00     0.217 HD
ENDBRANCH  29  35
ENDBRANCH  23  25
ENDBRANCH  22  23
ENDBRANCH   5  22
BRANCH   6  37
HETATM   37  O   UNL     1     -37.519  16.934  53.317  1.00  0.00    -0.304 OA
BRANCH  37  38
HETATM   38  C   UNL     1     -36.605  17.467  54.172  1.00  0.00     0.294 C 
HETATM   39  O   UNL     1     -36.495  18.626  54.513  1.00  0.00    -0.259 OA
BRANCH  38  40
HETATM   40  C   UNL     1     -35.716  16.381  54.595  1.00  0.00     0.045 A 
HETATM   41  C   UNL     1     -35.828  15.949  55.918  1.00  0.00     0.057 A 
HETATM   42  C   UNL     1     -35.034  14.908  56.355  1.00  0.00     0.102 A 
HETATM   43  C   UNL     1     -34.151  14.290  55.483  1.00  0.00     0.132 A 
HETATM   44  C   UNL     1     -34.064  14.705  54.155  1.00  0.00     0.102 A 
HETATM   45  C   UNL     1     -34.845  15.760  53.695  1.00  0.00     0.057 A 
BRANCH  42  46
HETATM   46  O   UNL     1     -35.156  14.494  57.645  1.00  0.00    -0.358 OA
HETATM   47  H   UNL     1     -34.256  14.225  57.916  1.00  0.00     0.217 HD
ENDBRANCH  42  46
BRANCH  43  48
HETATM   48  O   UNL     1     -33.389  13.251  55.941  1.00  0.00    -0.356 OA
HETATM   49  H   UNL     1     -33.512  12.549  55.271  1.00  0.00     0.218 HD
ENDBRANCH  43  48
BRANCH  44  50
HETATM   50  O   UNL     1     -33.210  14.023  53.334  1.00  0.00    -0.358 OA
HETATM   51  H   UNL     1     -33.652  13.202  53.050  1.00  0.00     0.217 HD
ENDBRANCH  44  50
ENDBRANCH  38  40
ENDBRANCH  37  38
ENDBRANCH   6  37
ENDBRANCH   2   4
BRANCH   2  52
HETATM   52  C   UNL     1     -40.440  14.808  55.196  1.00  0.00     0.216 C 
BRANCH  52  53
HETATM   53  O   UNL     1     -40.066  14.487  56.532  1.00  0.00    -0.315 OA
BRANCH  53  54
HETATM   54  C   UNL     1     -39.558  15.523  57.216  1.00  0.00     0.293 C 
HETATM   55  O   UNL     1     -39.616  16.696  56.902  1.00  0.00    -0.259 OA
BRANCH  54  56
HETATM   56  C   UNL     1     -38.848  14.954  58.375  1.00  0.00     0.045 C 
HETATM   57  C   UNL     1     -38.898  13.579  58.675  1.00  0.00     0.057 C 
HETATM   58  C   UNL     1     -38.151  13.078  59.726  1.00  0.00     0.102 C 
HETATM   59  C   UNL     1     -37.247  13.899  60.378  1.00  0.00     0.133 C 
HETATM   60  C   UNL     1     -37.124  15.231  59.976  1.00  0.00     0.116 C 
HETATM   61  C   UNL     1     -38.019  15.809  59.085  1.00  0.00     0.058 C 
BRANCH  58  62
HETATM   62  O   UNL     1     -38.231  11.754  60.049  1.00  0.00    -0.358 OA
HETATM   63  H   UNL     1     -37.297  11.460  60.093  1.00  0.00     0.217 HD
ENDBRANCH  58  62
BRANCH  59  64
HETATM   64  O   UNL     1     -36.439  13.326  61.317  1.00  0.00    -0.356 OA
HETATM   65  H   UNL     1     -35.546  13.239  60.929  1.00  0.00     0.218 HD
ENDBRANCH  59  64
BRANCH  60  66
HETATM   66  O   UNL     1     -35.955  15.945  60.240  1.00  0.00    -0.272 OA
BRANCH  66  67
HETATM   67  C   UNL     1     -36.368  17.155  60.782  1.00  0.00     0.298 C 
HETATM   68  O   UNL     1     -36.660  17.291  61.960  1.00  0.00    -0.259 OA
BRANCH  67  69
HETATM   69  C   UNL     1     -36.456  18.267  59.793  1.00  0.00     0.045 A 
HETATM   70  C   UNL     1     -35.566  18.288  58.708  1.00  0.00     0.057 A 
HETATM   71  C   UNL     1     -35.684  19.289  57.749  1.00  0.00     0.102 A 
HETATM   72  C   UNL     1     -36.641  20.283  57.886  1.00  0.00     0.132 A 
HETATM   73  C   UNL     1     -37.501  20.274  58.984  1.00  0.00     0.102 A 
HETATM   74  C   UNL     1     -37.436  19.257  59.935  1.00  0.00     0.057 A 
BRANCH  71  75
HETATM   75  O   UNL     1     -34.827  19.253  56.693  1.00  0.00    -0.358 OA
HETATM   76  H   UNL     1     -33.907  19.358  57.017  1.00  0.00     0.217 HD
ENDBRANCH  71  75
BRANCH  72  77
HETATM   77  O   UNL     1     -36.730  21.277  56.953  1.00  0.00    -0.356 OA
HETATM   78  H   UNL     1     -36.094  21.029  56.252  1.00  0.00     0.218 HD
ENDBRANCH  72  77
BRANCH  73  79
HETATM   79  O   UNL     1     -38.395  21.304  59.090  1.00  0.00    -0.358 OA
HETATM   80  H   UNL     1     -39.256  21.000  58.748  1.00  0.00     0.217 HD
ENDBRANCH  73  79
ENDBRANCH  67  69
ENDBRANCH  66  67
ENDBRANCH  60  66
ENDBRANCH  54  56
ENDBRANCH  53  54
ENDBRANCH  52  53
ENDBRANCH   2  52
BRANCH   3  81
HETATM   81  O   UNL     1     -39.819  12.031  54.382  1.00  0.00    -0.285 OA
BRANCH  81  82
HETATM   82  C   UNL     1     -39.715  10.688  54.198  1.00  0.00     0.295 C 
HETATM   83  O   UNL     1     -39.525  10.218  53.084  1.00  0.00    -0.259 OA
BRANCH  82  84
HETATM   84  C   UNL     1     -39.689   9.820  55.407  1.00  0.00     0.045 A 
HETATM   85  C   UNL     1     -40.043  10.298  56.675  1.00  0.00     0.057 A 
HETATM   86  C   UNL     1     -39.898   9.463  57.781  1.00  0.00     0.102 A 
HETATM   87  C   UNL     1     -39.388   8.177  57.642  1.00  0.00     0.132 A 
HETATM   88  C   UNL     1     -39.019   7.705  56.391  1.00  0.00     0.102 A 
HETATM   89  C   UNL     1     -39.163   8.520  55.271  1.00  0.00     0.057 A 
BRANCH  86  90
HETATM   90  O   UNL     1     -40.238   9.911  59.027  1.00  0.00    -0.358 OA
HETATM   91  H   UNL     1     -39.750   9.312  59.633  1.00  0.00     0.217 HD
ENDBRANCH  86  90
BRANCH  87  92
HETATM   92  O   UNL     1     -39.236   7.400  58.760  1.00  0.00    -0.356 OA
HETATM   93  H   UNL     1     -38.307   7.551  59.036  1.00  0.00     0.218 HD
ENDBRANCH  87  92
BRANCH  88  94
HETATM   94  O   UNL     1     -38.501   6.442  56.313  1.00  0.00    -0.358 OA
HETATM   95  H   UNL     1     -37.920   6.307  57.084  1.00  0.00     0.217 HD
ENDBRANCH  88  94
ENDBRANCH  82  84
ENDBRANCH  81  82
ENDBRANCH   3  81
TORSDOF 38
ENDMDL
MODEL 8
REMARK VINA RESULT:    -8.288      1.011      1.986
REMARK INTER + INTRA:         -20.229
REMARK INTER:                 -20.841
REMARK INTRA:                   0.613
REMARK UNBOUND:                 1.142
REMARK WARNING: 32 MAX_TORS EXCEEDED!!!
REMARK  38 active torsions:
REMARK  status: ('A' for Active; 'I' for Inactive)
REMARK    1  A    between atoms: O_2  and  C_27 
REMARK    2  A    between atoms: O_2  and  C_33 
REMARK    3  A    between atoms: O_3  and  C_28 
REMARK    4  A    between atoms: O_3  and  C_34 
REMARK    5  A    between atoms: O_4  and  C_29 
REMARK    6  A    between atoms: O_4  and  C_35 
REMARK    7  A    between atoms: O_5  and  C_31 
REMARK    8  A    between atoms: O_5  and  C_36 
REMARK    9  A    between atoms: O_6  and  C_32 
REMARK   10  A    between atoms: O_6  and  C_39 
REMARK   11  A    between atoms: O_12  and  C_51 
REMARK   12  A    between atoms: O_13  and  C_52 
REMARK   13  A    between atoms: O_14  and  C_53 
REMARK   14  A    between atoms: O_15  and  C_54 
REMARK   15  A    between atoms: O_16  and  C_55 
REMARK   16  A    between atoms: O_17  and  C_56 
REMARK   17  A    between atoms: O_18  and  C_59 
REMARK   18  A    between atoms: O_19  and  C_60 
REMARK   19  A    between atoms: O_20  and  C_61 
REMARK   20  A    between atoms: O_21  and  C_62 
REMARK   21  A    between atoms: O_22  and  C_63 
REMARK   22  A    between atoms: O_23  and  C_64 
REMARK   23  A    between atoms: O_24  and  C_65 
REMARK   24  A    between atoms: O_24  and  C_86 
REMARK   25  A    between atoms: O_25  and  C_66 
REMARK   26  A    between atoms: O_26  and  C_67 
REMARK   27  A    between atoms: C_28  and  C_30 
REMARK   28  A    between atoms: C_29  and  C_31 
REMARK   29  A    between atoms: C_30  and  C_32 
REMARK   30  A    between atoms: C_33  and  C_37 
REMARK   31  A    between atoms: C_34  and  C_38 
REMARK   32  A    between atoms: C_35  and  C_40 
REMARK   33  A    between atoms: C_36  and  C_41 
REMARK   34  A    between atoms: C_39  and  C_42 
REMARK   35  A    between atoms: O_83  and  C_90 
REMARK   36  A    between atoms: O_84  and  C_91 
REMARK   37  A    between atoms: O_85  and  C_92 
REMARK   38  A    between atoms: C_86  and  C_87 
ROOT
HETATM    1  O   UNL     1     -37.927  13.126  54.962  1.00  0.00    -0.348 OA
HETATM    2  C   UNL     1     -39.183  13.540  54.640  1.00  0.00     0.201 A 
HETATM    3  C   UNL     1     -38.740  12.215  54.337  1.00  0.00     0.282 A 
ENDROOT
BRANCH   2   4
HETATM    4  C   UNL     1     -39.396  13.649  53.851  1.00  0.00     0.199 A 
HETATM    5  C   UNL     1     -40.036  15.066  53.569  1.00  0.00     0.198 A 
HETATM    6  C   UNL     1     -38.603  14.837  53.801  1.00  0.00     0.215 A 
BRANCH   4   7
HETATM    7  O   UNL     1     -41.044  13.163  54.159  1.00  0.00    -0.306 OA
BRANCH   7   8
HETATM    8  C   UNL     1     -42.209  12.667  53.778  1.00  0.00     0.294 C 
HETATM    9  O   UNL     1     -43.279  13.163  54.114  1.00  0.00    -0.259 OA
BRANCH   8  10
HETATM   10  C   UNL     1     -42.261  11.533  52.872  1.00  0.00     0.045 A 
HETATM   11  C   UNL     1     -43.456  10.807  52.799  1.00  0.00     0.057 A 
HETATM   12  C   UNL     1     -43.709  10.060  51.657  1.00  0.00     0.102 A 
HETATM   13  C   UNL     1     -42.775  10.024  50.624  1.00  0.00     0.132 A 
HETATM   14  C   UNL     1     -41.577  10.723  50.725  1.00  0.00     0.102 A 
HETATM   15  C   UNL     1     -41.322  11.505  51.838  1.00  0.00     0.057 A 
BRANCH  12  16
HETATM   16  O   UNL     1     -44.898   9.410  51.477  1.00  0.00    -0.358 OA
HETATM   17  H   UNL     1     -45.440   9.556  52.274  1.00  0.00     0.217 HD
ENDBRANCH  12  16
BRANCH  13  18
HETATM   18  O   UNL     1     -43.054   9.360  49.460  1.00  0.00    -0.356 OA
HETATM   19  H   UNL     1     -42.535   9.840  48.782  1.00  0.00     0.218 HD
ENDBRANCH  13  18
BRANCH  14  20
HETATM   20  O   UNL     1     -40.681  10.710  49.695  1.00  0.00    -0.358 OA
HETATM   21  H   UNL     1     -40.833   9.843  49.263  1.00  0.00     0.217 HD
ENDBRANCH  14  20
ENDBRANCH   8  10
ENDBRANCH   7   8
ENDBRANCH   4   7
BRANCH   5  22
HETATM   22  O   UNL     1     -40.395  15.179  52.074  1.00  0.00    -0.306 OA
BRANCH  22  23
HETATM   23  C   UNL     1     -41.560  15.783  51.638  1.00  0.00     0.294 C 
HETATM   24  O   UNL     1     -42.553  15.248  51.161  1.00  0.00    -0.259 OA
BRANCH  23  25
HETATM   25  C   UNL     1     -41.557  17.238  51.752  1.00  0.00     0.045 A 
HETATM   26  C   UNL     1     -40.678  17.984  50.949  1.00  0.00     0.057 A 
HETATM   27  C   UNL     1     -40.661  19.365  51.075  1.00  0.00     0.102 A 
HETATM   28  C   UNL     1     -41.483  19.983  52.009  1.00  0.00     0.132 A 
HETATM   29  C   UNL     1     -42.262  19.223  52.873  1.00  0.00     0.102 A 
HETATM   30  C   UNL     1     -42.294  17.844  52.765  1.00  0.00     0.057 A 
BRANCH  27  31
HETATM   31  O   UNL     1     -39.850  20.151  50.308  1.00  0.00    -0.358 OA
HETATM   32  H   UNL     1     -40.152  20.096  49.381  1.00  0.00     0.217 HD
ENDBRANCH  27  31
BRANCH  28  33
HETATM   33  O   UNL     1     -41.535  21.346  52.095  1.00  0.00    -0.356 OA
HETATM   34  H   UNL     1     -41.568  21.522  53.058  1.00  0.00     0.218 HD
ENDBRANCH  28  33
BRANCH  29  35
HETATM   35  O   UNL     1     -43.006  19.825  53.842  1.00  0.00    -0.358 OA
HETATM   36  H   UNL     1     -43.159  19.129  54.510  1.00  0.00     0.217 HD
ENDBRANCH  29  35
ENDBRANCH  23  25
ENDBRANCH  22  23
ENDBRANCH   5  22
BRANCH   6  37
HETATM   37  O   UNL     1     -37.697  16.100  53.264  1.00  0.00    -0.304 OA
BRANCH  37  38
HETATM   38  C   UNL     1     -36.897  16.892  54.028  1.00  0.00     0.294 C 
HETATM   39  O   UNL     1     -36.933  18.099  54.137  1.00  0.00    -0.259 OA
BRANCH  38  40
HETATM   40  C   UNL     1     -35.919  16.021  54.685  1.00  0.00     0.045 A 
HETATM   41  C   UNL     1     -36.141  15.719  56.031  1.00  0.00     0.057 A 
HETATM   42  C   UNL     1     -35.265  14.878  56.685  1.00  0.00     0.102 A 
HETATM   43  C   UNL     1     -34.189  14.326  56.008  1.00  0.00     0.132 A 
HETATM   44  C   UNL     1     -33.988  14.605  54.657  1.00  0.00     0.102 A 
HETATM   45  C   UNL     1     -34.850  15.460  53.979  1.00  0.00     0.057 A 
BRANCH  42  46
HETATM   46  O   UNL     1     -35.496  14.590  57.995  1.00  0.00    -0.358 OA
HETATM   47  H   UNL     1     -36.185  13.897  57.990  1.00  0.00     0.217 HD
ENDBRANCH  42  46
BRANCH  43  48
HETATM   48  O   UNL     1     -33.348  13.483  56.680  1.00  0.00    -0.356 OA
HETATM   49  H   UNL     1     -32.569  14.038  56.889  1.00  0.00     0.218 HD
ENDBRANCH  43  48
BRANCH  44  50
HETATM   50  O   UNL     1     -32.937  13.991  54.034  1.00  0.00    -0.358 OA
HETATM   51  H   UNL     1     -32.718  14.502  53.234  1.00  0.00     0.217 HD
ENDBRANCH  44  50
ENDBRANCH  38  40
ENDBRANCH  37  38
ENDBRANCH   6  37
ENDBRANCH   2   4
BRANCH   2  52
HETATM   52  C   UNL     1     -40.449  14.161  55.509  1.00  0.00     0.216 C 
BRANCH  52  53
HETATM   53  O   UNL     1     -40.062  14.064  56.876  1.00  0.00    -0.315 OA
BRANCH  53  54
HETATM   54  C   UNL     1     -39.637  15.222  57.403  1.00  0.00     0.293 C 
HETATM   55  O   UNL     1     -39.651  16.311  56.864  1.00  0.00    -0.259 OA
BRANCH  54  56
HETATM   56  C   UNL     1     -39.078  14.899  58.727  1.00  0.00     0.045 C 
HETATM   57  C   UNL     1     -38.645  13.600  59.057  1.00  0.00     0.057 C 
HETATM   58  C   UNL     1     -38.053  13.363  60.284  1.00  0.00     0.102 C 
HETATM   59  C   UNL     1     -37.754  14.427  61.118  1.00  0.00     0.133 C 
HETATM   60  C   UNL     1     -38.078  15.724  60.711  1.00  0.00     0.116 C 
HETATM   61  C   UNL     1     -38.872  15.961  59.597  1.00  0.00     0.058 C 
BRANCH  58  62
HETATM   62  O   UNL     1     -37.673  12.097  60.625  1.00  0.00    -0.358 OA
HETATM   63  H   UNL     1     -38.235  11.878  61.397  1.00  0.00     0.217 HD
ENDBRANCH  58  62
BRANCH  59  64
HETATM   64  O   UNL     1     -37.050  14.156  62.256  1.00  0.00    -0.356 OA
HETATM   65  H   UNL     1     -36.549  13.331  62.108  1.00  0.00     0.218 HD
ENDBRANCH  59  64
BRANCH  60  66
HETATM   66  O   UNL     1     -37.404  16.822  61.245  1.00  0.00    -0.272 OA
BRANCH  66  67
HETATM   67  C   UNL     1     -36.271  16.986  60.457  1.00  0.00     0.298 C 
HETATM   68  O   UNL     1     -35.287  16.269  60.551  1.00  0.00    -0.259 OA
BRANCH  67  69
HETATM   69  C   UNL     1     -36.348  18.135  59.512  1.00  0.00     0.045 A 
HETATM   70  C   UNL     1     -35.575  18.111  58.341  1.00  0.00     0.057 A 
HETATM   71  C   UNL     1     -35.689  19.152  57.425  1.00  0.00     0.102 A 
HETATM   72  C   UNL     1     -36.526  20.227  57.687  1.00  0.00     0.132 A 
HETATM   73  C   UNL     1     -37.267  20.261  58.867  1.00  0.00     0.102 A 
HETATM   74  C   UNL     1     -37.207  19.209  59.780  1.00  0.00     0.057 A 
BRANCH  71  75
HETATM   75  O   UNL     1     -34.950  19.073  56.286  1.00  0.00    -0.358 OA
HETATM   76  H   UNL     1     -35.090  19.883  55.751  1.00  0.00     0.217 HD
ENDBRANCH  71  75
BRANCH  72  77
HETATM   77  O   UNL     1     -36.610  21.258  56.794  1.00  0.00    -0.356 OA
HETATM   78  H   UNL     1     -37.052  20.880  56.006  1.00  0.00     0.218 HD
ENDBRANCH  72  77
BRANCH  73  79
HETATM   79  O   UNL     1     -38.041  21.366  59.092  1.00  0.00    -0.358 OA
HETATM   80  H   UNL     1     -38.165  21.464  60.054  1.00  0.00     0.217 HD
ENDBRANCH  73  79
ENDBRANCH  67  69
ENDBRANCH  66  67
ENDBRANCH  60  66
ENDBRANCH  54  56
ENDBRANCH  53  54
ENDBRANCH  52  53
ENDBRANCH   2  52
BRANCH   3  81
HETATM   81  O   UNL     1     -39.705  11.316  55.175  1.00  0.00    -0.285 OA
BRANCH  81  82
HETATM   82  C   UNL     1     -39.542   9.967  55.221  1.00  0.00     0.295 C 
HETATM   83  O   UNL     1     -39.346   9.323  54.199  1.00  0.00    -0.259 OA
BRANCH  82  84
HETATM   84  C   UNL     1     -39.462   9.320  56.559  1.00  0.00     0.045 A 
HETATM   85  C   UNL     1     -39.302   7.937  56.709  1.00  0.00     0.057 A 
HETATM   86  C   UNL     1     -39.338   7.383  57.987  1.00  0.00     0.102 A 
HETATM   87  C   UNL     1     -39.552   8.182  59.105  1.00  0.00     0.132 A 
HETATM   88  C   UNL     1     -39.729   9.550  58.959  1.00  0.00     0.102 A 
HETATM   89  C   UNL     1     -39.689  10.125  57.692  1.00  0.00     0.057 A 
BRANCH  86  90
HETATM   90  O   UNL     1     -39.184   6.035  58.155  1.00  0.00    -0.358 OA
HETATM   91  H   UNL     1     -38.893   5.947  59.088  1.00  0.00     0.217 HD
ENDBRANCH  86  90
BRANCH  87  92
HETATM   92  O   UNL     1     -39.608   7.593  60.340  1.00  0.00    -0.356 OA
HETATM   93  H   UNL     1     -38.720   7.194  60.458  1.00  0.00     0.218 HD
ENDBRANCH  87  92
BRANCH  88  94
HETATM   94  O   UNL     1     -39.960  10.287  60.088  1.00  0.00    -0.358 OA
HETATM   95  H   UNL     1     -40.542  11.031  59.848  1.00  0.00     0.217 HD
ENDBRANCH  88  94
ENDBRANCH  82  84
ENDBRANCH  81  82
ENDBRANCH   3  81
TORSDOF 38
ENDMDL
MODEL 9
REMARK VINA RESULT:    -8.158      2.669      9.558
REMARK INTER + INTRA:         -19.892
REMARK INTER:                 -21.148
REMARK INTRA:                   1.256
REMARK UNBOUND:                 1.142
REMARK WARNING: 32 MAX_TORS EXCEEDED!!!
REMARK  38 active torsions:
REMARK  status: ('A' for Active; 'I' for Inactive)
REMARK    1  A    between atoms: O_2  and  C_27 
REMARK    2  A    between atoms: O_2  and  C_33 
REMARK    3  A    between atoms: O_3  and  C_28 
REMARK    4  A    between atoms: O_3  and  C_34 
REMARK    5  A    between atoms: O_4  and  C_29 
REMARK    6  A    between atoms: O_4  and  C_35 
REMARK    7  A    between atoms: O_5  and  C_31 
REMARK    8  A    between atoms: O_5  and  C_36 
REMARK    9  A    between atoms: O_6  and  C_32 
REMARK   10  A    between atoms: O_6  and  C_39 
REMARK   11  A    between atoms: O_12  and  C_51 
REMARK   12  A    between atoms: O_13  and  C_52 
REMARK   13  A    between atoms: O_14  and  C_53 
REMARK   14  A    between atoms: O_15  and  C_54 
REMARK   15  A    between atoms: O_16  and  C_55 
REMARK   16  A    between atoms: O_17  and  C_56 
REMARK   17  A    between atoms: O_18  and  C_59 
REMARK   18  A    between atoms: O_19  and  C_60 
REMARK   19  A    between atoms: O_20  and  C_61 
REMARK   20  A    between atoms: O_21  and  C_62 
REMARK   21  A    between atoms: O_22  and  C_63 
REMARK   22  A    between atoms: O_23  and  C_64 
REMARK   23  A    between atoms: O_24  and  C_65 
REMARK   24  A    between atoms: O_24  and  C_86 
REMARK   25  A    between atoms: O_25  and  C_66 
REMARK   26  A    between atoms: O_26  and  C_67 
REMARK   27  A    between atoms: C_28  and  C_30 
REMARK   28  A    between atoms: C_29  and  C_31 
REMARK   29  A    between atoms: C_30  and  C_32 
REMARK   30  A    between atoms: C_33  and  C_37 
REMARK   31  A    between atoms: C_34  and  C_38 
REMARK   32  A    between atoms: C_35  and  C_40 
REMARK   33  A    between atoms: C_36  and  C_41 
REMARK   34  A    between atoms: C_39  and  C_42 
REMARK   35  A    between atoms: O_83  and  C_90 
REMARK   36  A    between atoms: O_84  and  C_91 
REMARK   37  A    between atoms: O_85  and  C_92 
REMARK   38  A    between atoms: C_86  and  C_87 
ROOT
HETATM    1  O   UNL     1     -41.406  15.124  58.842  1.00  0.00    -0.348 OA
HETATM    2  C   UNL     1     -40.213  14.645  58.394  1.00  0.00     0.201 A 
HETATM    3  C   UNL     1     -40.391  16.034  58.681  1.00  0.00     0.282 A 
ENDROOT
BRANCH   2   4
HETATM    4  C   UNL     1     -39.945  14.835  57.639  1.00  0.00     0.199 A 
HETATM    5  C   UNL     1     -39.587  13.567  56.767  1.00  0.00     0.198 A 
HETATM    6  C   UNL     1     -40.957  14.003  57.070  1.00  0.00     0.215 A 
BRANCH   4   7
HETATM    7  O   UNL     1     -38.273  14.745  58.135  1.00  0.00    -0.306 OA
BRANCH   7   8
HETATM    8  C   UNL     1     -36.994  15.046  57.997  1.00  0.00     0.294 C 
HETATM    9  O   UNL     1     -36.113  14.193  57.981  1.00  0.00    -0.259 OA
BRANCH   8  10
HETATM   10  C   UNL     1     -36.583  16.423  57.787  1.00  0.00     0.045 A 
HETATM   11  C   UNL     1     -35.269  16.774  58.118  1.00  0.00     0.057 A 
HETATM   12  C   UNL     1     -34.709  17.891  57.514  1.00  0.00     0.102 A 
HETATM   13  C   UNL     1     -35.458  18.650  56.617  1.00  0.00     0.132 A 
HETATM   14  C   UNL     1     -36.774  18.309  56.324  1.00  0.00     0.102 A 
HETATM   15  C   UNL     1     -37.339  17.178  56.886  1.00  0.00     0.057 A 
BRANCH  12  16
HETATM   16  O   UNL     1     -33.400  18.231  57.713  1.00  0.00    -0.358 OA
HETATM   17  H   UNL     1     -32.871  17.791  57.022  1.00  0.00     0.217 HD
ENDBRANCH  12  16
BRANCH  13  18
HETATM   18  O   UNL     1     -34.886  19.702  55.953  1.00  0.00    -0.356 OA
HETATM   19  H   UNL     1     -35.321  19.693  55.076  1.00  0.00     0.218 HD
ENDBRANCH  13  18
BRANCH  14  20
HETATM   20  O   UNL     1     -37.491  19.039  55.420  1.00  0.00    -0.358 OA
HETATM   21  H   UNL     1     -37.779  19.826  55.929  1.00  0.00     0.217 HD
ENDBRANCH  14  20
ENDBRANCH   8  10
ENDBRANCH   7   8
ENDBRANCH   4   7
BRANCH   5  22
HETATM   22  O   UNL     1     -39.104  14.019  55.375  1.00  0.00    -0.306 OA
BRANCH  22  23
HETATM   23  C   UNL     1     -38.028  13.428  54.738  1.00  0.00     0.294 C 
HETATM   24  O   UNL     1     -37.848  12.238  54.511  1.00  0.00    -0.259 OA
BRANCH  23  25
HETATM   25  C   UNL     1     -36.991  14.367  54.324  1.00  0.00     0.045 A 
HETATM   26  C   UNL     1     -35.650  14.086  54.640  1.00  0.00     0.057 A 
HETATM   27  C   UNL     1     -34.668  14.991  54.265  1.00  0.00     0.102 A 
HETATM   28  C   UNL     1     -35.025  16.166  53.616  1.00  0.00     0.132 A 
HETATM   29  C   UNL     1     -36.363  16.481  53.413  1.00  0.00     0.102 A 
HETATM   30  C   UNL     1     -37.359  15.593  53.779  1.00  0.00     0.057 A 
BRANCH  27  31
HETATM   31  O   UNL     1     -33.346  14.768  54.518  1.00  0.00    -0.358 OA
HETATM   32  H   UNL     1     -33.226  14.675  55.483  1.00  0.00     0.217 HD
ENDBRANCH  27  31
BRANCH  28  33
HETATM   33  O   UNL     1     -34.066  17.034  53.172  1.00  0.00    -0.356 OA
HETATM   34  H   UNL     1     -33.685  16.586  52.388  1.00  0.00     0.218 HD
ENDBRANCH  28  33
BRANCH  29  35
HETATM   35  O   UNL     1     -36.715  17.670  52.850  1.00  0.00    -0.358 OA
HETATM   36  H   UNL     1     -37.008  18.225  53.598  1.00  0.00     0.217 HD
ENDBRANCH  29  35
ENDBRANCH  23  25
ENDBRANCH  22  23
ENDBRANCH   5  22
BRANCH   6  37
HETATM   37  O   UNL     1     -42.045  13.338  56.031  1.00  0.00    -0.304 OA
BRANCH  37  38
HETATM   38  C   UNL     1     -42.367  12.019  55.946  1.00  0.00     0.294 C 
HETATM   39  O   UNL     1     -42.824  11.308  56.816  1.00  0.00    -0.259 OA
BRANCH  38  40
HETATM   40  C   UNL     1     -42.015  11.569  54.596  1.00  0.00     0.045 A 
HETATM   41  C   UNL     1     -40.787  10.922  54.444  1.00  0.00     0.057 A 
HETATM   42  C   UNL     1     -40.424  10.453  53.198  1.00  0.00     0.102 A 
HETATM   43  C   UNL     1     -41.279  10.606  52.117  1.00  0.00     0.132 A 
HETATM   44  C   UNL     1     -42.518  11.225  52.281  1.00  0.00     0.102 A 
HETATM   45  C   UNL     1     -42.900  11.718  53.524  1.00  0.00     0.057 A 
BRANCH  42  46
HETATM   46  O   UNL     1     -39.227   9.821  53.063  1.00  0.00    -0.358 OA
HETATM   47  H   UNL     1     -38.740  10.331  52.387  1.00  0.00     0.217 HD
ENDBRANCH  42  46
BRANCH  43  48
HETATM   48  O   UNL     1     -40.899  10.116  50.899  1.00  0.00    -0.356 OA
HETATM   49  H   UNL     1     -41.657   9.567  50.613  1.00  0.00     0.218 HD
ENDBRANCH  43  48
BRANCH  44  50
HETATM   50  O   UNL     1     -43.335  11.302  51.188  1.00  0.00    -0.358 OA
HETATM   51  H   UNL     1     -44.189  10.894  51.418  1.00  0.00     0.217 HD
ENDBRANCH  44  50
ENDBRANCH  38  40
ENDBRANCH  37  38
ENDBRANCH   6  37
ENDBRANCH   2   4
BRANCH   2  52
HETATM   52  C   UNL     1     -39.163  13.483  58.935  1.00  0.00     0.216 C 
BRANCH  52  53
HETATM   53  O   UNL     1     -39.760  12.940  60.108  1.00  0.00    -0.315 OA
BRANCH  53  54
HETATM   54  C   UNL     1     -39.055  11.944  60.664  1.00  0.00     0.293 C 
HETATM   55  O   UNL     1     -37.844  11.862  60.727  1.00  0.00    -0.259 OA
BRANCH  54  56
HETATM   56  C   UNL     1     -40.032  10.936  61.109  1.00  0.00     0.045 C 
HETATM   57  C   UNL     1     -41.084  11.255  61.988  1.00  0.00     0.057 C 
HETATM   58  C   UNL     1     -42.024  10.294  62.314  1.00  0.00     0.102 C 
HETATM   59  C   UNL     1     -42.012   9.074  61.660  1.00  0.00     0.133 C 
HETATM   60  C   UNL     1     -41.032   8.827  60.696  1.00  0.00     0.116 C 
HETATM   61  C   UNL     1     -39.951   9.682  60.520  1.00  0.00     0.058 C 
BRANCH  58  62
HETATM   62  O   UNL     1     -43.019  10.587  63.201  1.00  0.00    -0.358 OA
HETATM   63  H   UNL     1     -43.346   9.710  63.494  1.00  0.00     0.217 HD
ENDBRANCH  58  62
BRANCH  59  64
HETATM   64  O   UNL     1     -43.038   8.211  61.919  1.00  0.00    -0.356 OA
HETATM   65  H   UNL     1     -43.065   8.061  62.884  1.00  0.00     0.218 HD
ENDBRANCH  59  64
BRANCH  60  66
HETATM   66  O   UNL     1     -41.241   7.869  59.704  1.00  0.00    -0.272 OA
BRANCH  66  67
HETATM   67  C   UNL     1     -40.508   6.756  60.095  1.00  0.00     0.298 C 
HETATM   68  O   UNL     1     -40.875   5.995  60.977  1.00  0.00    -0.259 OA
BRANCH  67  69
HETATM   69  C   UNL     1     -39.217   6.591  59.369  1.00  0.00     0.045 A 
HETATM   70  C   UNL     1     -38.136   5.982  60.026  1.00  0.00     0.057 A 
HETATM   71  C   UNL     1     -36.949   5.770  59.333  1.00  0.00     0.102 A 
HETATM   72  C   UNL     1     -36.817   6.196  58.019  1.00  0.00     0.132 A 
HETATM   73  C   UNL     1     -37.884   6.829  57.384  1.00  0.00     0.102 A 
HETATM   74  C   UNL     1     -39.101   7.012  58.039  1.00  0.00     0.057 A 
BRANCH  71  75
HETATM   75  O   UNL     1     -35.938   5.143  59.993  1.00  0.00    -0.358 OA
HETATM   76  H   UNL     1     -35.683   4.332  59.504  1.00  0.00     0.217 HD
ENDBRANCH  71  75
BRANCH  72  77
HETATM   77  O   UNL     1     -35.638   6.008  57.356  1.00  0.00    -0.356 OA
HETATM   78  H   UNL     1     -35.841   5.361  56.650  1.00  0.00     0.218 HD
ENDBRANCH  72  77
BRANCH  73  79
HETATM   79  O   UNL     1     -37.683   7.267  56.103  1.00  0.00    -0.358 OA
HETATM   80  H   UNL     1     -38.448   6.999  55.562  1.00  0.00     0.217 HD
ENDBRANCH  73  79
ENDBRANCH  67  69
ENDBRANCH  66  67
ENDBRANCH  60  66
ENDBRANCH  54  56
ENDBRANCH  53  54
ENDBRANCH  52  53
ENDBRANCH   2  52
BRANCH   3  81
HETATM   81  O   UNL     1     -39.374  16.293  59.838  1.00  0.00    -0.285 OA
BRANCH  81  82
HETATM   82  C   UNL     1     -39.404  17.452  60.550  1.00  0.00     0.295 C 
HETATM   83  O   UNL     1     -39.383  17.438  61.773  1.00  0.00    -0.259 OA
BRANCH  82  84
HETATM   84  C   UNL     1     -39.312  18.733  59.799  1.00  0.00     0.045 A 
HETATM   85  C   UNL     1     -40.421  19.302  59.159  1.00  0.00     0.057 A 
HETATM   86  C   UNL     1     -40.245  20.449  58.387  1.00  0.00     0.102 A 
HETATM   87  C   UNL     1     -38.985  21.016  58.228  1.00  0.00     0.132 A 
HETATM   88  C   UNL     1     -37.882  20.445  58.845  1.00  0.00     0.102 A 
HETATM   89  C   UNL     1     -38.036  19.305  59.628  1.00  0.00     0.057 A 
BRANCH  86  90
HETATM   90  O   UNL     1     -41.314  21.020  57.754  1.00  0.00    -0.358 OA
HETATM   91  H   UNL     1     -41.737  21.564  58.453  1.00  0.00     0.217 HD
ENDBRANCH  86  90
BRANCH  87  92
HETATM   92  O   UNL     1     -38.853  22.126  57.437  1.00  0.00    -0.356 OA
HETATM   93  H   UNL     1     -38.634  21.768  56.551  1.00  0.00     0.218 HD
ENDBRANCH  87  92
BRANCH  88  94
HETATM   94  O   UNL     1     -36.663  21.028  58.637  1.00  0.00    -0.358 OA
HETATM   95  H   UNL     1     -36.193  21.058  59.491  1.00  0.00     0.217 HD
ENDBRANCH  88  94
ENDBRANCH  82  84
ENDBRANCH  81  82
ENDBRANCH   3  81
TORSDOF 38
ENDMDL
MODEL 10
REMARK VINA RESULT:    -8.144      1.936      9.875
REMARK INTER + INTRA:         -19.858
REMARK INTER:                 -20.518
REMARK INTRA:                   0.661
REMARK UNBOUND:                 1.142
REMARK WARNING: 32 MAX_TORS EXCEEDED!!!
REMARK  38 active torsions:
REMARK  status: ('A' for Active; 'I' for Inactive)
REMARK    1  A    between atoms: O_2  and  C_27 
REMARK    2  A    between atoms: O_2  and  C_33 
REMARK    3  A    between atoms: O_3  and  C_28 
REMARK    4  A    between atoms: O_3  and  C_34 
REMARK    5  A    between atoms: O_4  and  C_29 
REMARK    6  A    between atoms: O_4  and  C_35 
REMARK    7  A    between atoms: O_5  and  C_31 
REMARK    8  A    between atoms: O_5  and  C_36 
REMARK    9  A    between atoms: O_6  and  C_32 
REMARK   10  A    between atoms: O_6  and  C_39 
REMARK   11  A    between atoms: O_12  and  C_51 
REMARK   12  A    between atoms: O_13  and  C_52 
REMARK   13  A    between atoms: O_14  and  C_53 
REMARK   14  A    between atoms: O_15  and  C_54 
REMARK   15  A    between atoms: O_16  and  C_55 
REMARK   16  A    between atoms: O_17  and  C_56 
REMARK   17  A    between atoms: O_18  and  C_59 
REMARK   18  A    between atoms: O_19  and  C_60 
REMARK   19  A    between atoms: O_20  and  C_61 
REMARK   20  A    between atoms: O_21  and  C_62 
REMARK   21  A    between atoms: O_22  and  C_63 
REMARK   22  A    between atoms: O_23  and  C_64 
REMARK   23  A    between atoms: O_24  and  C_65 
REMARK   24  A    between atoms: O_24  and  C_86 
REMARK   25  A    between atoms: O_25  and  C_66 
REMARK   26  A    between atoms: O_26  and  C_67 
REMARK   27  A    between atoms: C_28  and  C_30 
REMARK   28  A    between atoms: C_29  and  C_31 
REMARK   29  A    between atoms: C_30  and  C_32 
REMARK   30  A    between atoms: C_33  and  C_37 
REMARK   31  A    between atoms: C_34  and  C_38 
REMARK   32  A    between atoms: C_35  and  C_40 
REMARK   33  A    between atoms: C_36  and  C_41 
REMARK   34  A    between atoms: C_39  and  C_42 
REMARK   35  A    between atoms: O_83  and  C_90 
REMARK   36  A    between atoms: O_84  and  C_91 
REMARK   37  A    between atoms: O_85  and  C_92 
REMARK   38  A    between atoms: C_86  and  C_87 
ROOT
HETATM    1  O   UNL     1     -37.380  14.173  57.286  1.00  0.00    -0.348 OA
HETATM    2  C   UNL     1     -38.588  14.114  57.912  1.00  0.00     0.201 A 
HETATM    3  C   UNL     1     -37.372  14.207  58.657  1.00  0.00     0.282 A 
ENDROOT
BRANCH   2   4
HETATM    4  C   UNL     1     -38.801  13.445  58.343  1.00  0.00     0.199 A 
HETATM    5  C   UNL     1     -40.183  12.826  57.890  1.00  0.00     0.198 A 
HETATM    6  C   UNL     1     -38.932  12.704  57.128  1.00  0.00     0.215 A 
BRANCH   4   7
HETATM    7  O   UNL     1     -39.783  14.382  59.441  1.00  0.00    -0.306 OA
BRANCH   7   8
HETATM    8  C   UNL     1     -40.448  14.540  60.572  1.00  0.00     0.294 C 
HETATM    9  O   UNL     1     -41.603  14.152  60.718  1.00  0.00    -0.259 OA
BRANCH   8  10
HETATM   10  C   UNL     1     -39.799  15.130  61.728  1.00  0.00     0.045 A 
HETATM   11  C   UNL     1     -38.742  14.426  62.318  1.00  0.00     0.057 A 
HETATM   12  C   UNL     1     -37.818  15.131  63.077  1.00  0.00     0.102 A 
HETATM   13  C   UNL     1     -37.965  16.504  63.260  1.00  0.00     0.132 A 
HETATM   14  C   UNL     1     -39.039  17.184  62.696  1.00  0.00     0.102 A 
HETATM   15  C   UNL     1     -39.950  16.508  61.904  1.00  0.00     0.057 A 
BRANCH  12  16
HETATM   16  O   UNL     1     -36.708  14.525  63.595  1.00  0.00    -0.358 OA
HETATM   17  H   UNL     1     -36.485  14.977  64.431  1.00  0.00     0.217 HD
ENDBRANCH  12  16
BRANCH  13  18
HETATM   18  O   UNL     1     -37.013  17.220  63.935  1.00  0.00    -0.356 OA
HETATM   19  H   UNL     1     -37.096  18.126  63.573  1.00  0.00     0.218 HD
ENDBRANCH  13  18
BRANCH  14  20
HETATM   20  O   UNL     1     -39.159  18.535  62.852  1.00  0.00    -0.358 OA
HETATM   21  H   UNL     1     -38.242  18.832  63.035  1.00  0.00     0.217 HD
ENDBRANCH  14  20
ENDBRANCH   8  10
ENDBRANCH   7   8
ENDBRANCH   4   7
BRANCH   5  22
HETATM   22  O   UNL     1     -40.493  11.581  58.744  1.00  0.00    -0.306 OA
BRANCH  22  23
HETATM   23  C   UNL     1     -41.179  10.492  58.240  1.00  0.00     0.294 C 
HETATM   24  O   UNL     1     -42.254  10.485  57.651  1.00  0.00    -0.259 OA
BRANCH  23  25
HETATM   25  C   UNL     1     -40.524   9.211  58.481  1.00  0.00     0.045 A 
HETATM   26  C   UNL     1     -39.559   8.755  57.567  1.00  0.00     0.057 A 
HETATM   27  C   UNL     1     -38.954   7.526  57.787  1.00  0.00     0.102 A 
HETATM   28  C   UNL     1     -39.331   6.757  58.881  1.00  0.00     0.132 A 
HETATM   29  C   UNL     1     -40.367   7.171  59.709  1.00  0.00     0.102 A 
HETATM   30  C   UNL     1     -40.984   8.393  59.509  1.00  0.00     0.057 A 
BRANCH  27  31
HETATM   31  O   UNL     1     -37.991   7.035  56.953  1.00  0.00    -0.358 OA
HETATM   32  H   UNL     1     -37.651   6.201  57.329  1.00  0.00     0.217 HD
ENDBRANCH  27  31
BRANCH  28  33
HETATM   33  O   UNL     1     -38.693   5.579  59.155  1.00  0.00    -0.356 OA
HETATM   34  H   UNL     1     -38.972   5.366  60.069  1.00  0.00     0.218 HD
ENDBRANCH  28  33
BRANCH  29  35
HETATM   35  O   UNL     1     -40.790   6.379  60.733  1.00  0.00    -0.358 OA
HETATM   36  H   UNL     1     -39.983   5.933  61.055  1.00  0.00     0.217 HD
ENDBRANCH  29  35
ENDBRANCH  23  25
ENDBRANCH  22  23
ENDBRANCH   5  22
BRANCH   6  37
HETATM   37  O   UNL     1     -39.010  11.476  56.036  1.00  0.00    -0.304 OA
BRANCH  37  38
HETATM   38  C   UNL     1     -38.540  11.510  54.760  1.00  0.00     0.294 C 
HETATM   39  O   UNL     1     -37.384  11.486  54.394  1.00  0.00    -0.259 OA
BRANCH  38  40
HETATM   40  C   UNL     1     -39.698  11.631  53.871  1.00  0.00     0.045 A 
HETATM   41  C   UNL     1     -40.337  12.872  53.827  1.00  0.00     0.057 A 
HETATM   42  C   UNL     1     -41.414  13.044  52.981  1.00  0.00     0.102 A 
HETATM   43  C   UNL     1     -41.842  12.002  52.173  1.00  0.00     0.132 A 
HETATM   44  C   UNL     1     -41.182  10.774  52.198  1.00  0.00     0.102 A 
HETATM   45  C   UNL     1     -40.102  10.572  53.051  1.00  0.00     0.057 A 
BRANCH  42  46
HETATM   46  O   UNL     1     -42.025  14.259  52.945  1.00  0.00    -0.358 OA
HETATM   47  H   UNL     1     -42.734  14.172  52.279  1.00  0.00     0.217 HD
ENDBRANCH  42  46
BRANCH  43  48
HETATM   48  O   UNL     1     -42.901  12.208  51.334  1.00  0.00    -0.356 OA
HETATM   49  H   UNL     1     -42.601  11.849  50.475  1.00  0.00     0.218 HD
ENDBRANCH  43  48
BRANCH  44  50
HETATM   50  O   UNL     1     -41.622   9.802  51.343  1.00  0.00    -0.358 OA
HETATM   51  H   UNL     1     -41.151   9.907  50.496  1.00  0.00     0.217 HD
ENDBRANCH  44  50
ENDBRANCH  38  40
ENDBRANCH  37  38
ENDBRANCH   6  37
ENDBRANCH   2   4
BRANCH   2  52
HETATM   52  C   UNL     1     -39.968  15.027  57.840  1.00  0.00     0.216 C 
BRANCH  52  53
HETATM   53  O   UNL     1     -39.687  16.079  56.920  1.00  0.00    -0.315 OA
BRANCH  53  54
HETATM   54  C   UNL     1     -40.411  16.021  55.793  1.00  0.00     0.293 C 
HETATM   55  O   UNL     1     -41.498  15.496  55.657  1.00  0.00    -0.259 OA
BRANCH  54  56
HETATM   56  C   UNL     1     -39.594  16.645  54.738  1.00  0.00     0.045 C 
HETATM   57  C   UNL     1     -40.167  17.160  53.559  1.00  0.00     0.057 C 
HETATM   58  C   UNL     1     -39.370  17.808  52.633  1.00  0.00     0.102 C 
HETATM   59  C   UNL     1     -38.047  18.081  52.938  1.00  0.00     0.133 C 
HETATM   60  C   UNL     1     -37.534  17.672  54.172  1.00  0.00     0.116 C 
HETATM   61  C   UNL     1     -38.246  16.825  55.012  1.00  0.00     0.058 C 
BRANCH  58  62
HETATM   62  O   UNL     1     -39.914  18.268  51.469  1.00  0.00    -0.358 OA
HETATM   63  H   UNL     1     -39.620  17.621  50.794  1.00  0.00     0.217 HD
ENDBRANCH  58  62
BRANCH  59  64
HETATM   64  O   UNL     1     -37.340  18.839  52.051  1.00  0.00    -0.356 OA
HETATM   65  H   UNL     1     -37.795  18.790  51.187  1.00  0.00     0.218 HD
ENDBRANCH  59  64
BRANCH  60  66
HETATM   66  O   UNL     1     -36.419  18.305  54.719  1.00  0.00    -0.272 OA
BRANCH  66  67
HETATM   67  C   UNL     1     -35.330  17.847  53.988  1.00  0.00     0.298 C 
HETATM   68  O   UNL     1     -34.830  18.481  53.071  1.00  0.00    -0.259 OA
BRANCH  67  69
HETATM   69  C   UNL     1     -34.846  16.498  54.397  1.00  0.00     0.045 A 
HETATM   70  C   UNL     1     -34.350  15.623  53.418  1.00  0.00     0.057 A 
HETATM   71  C   UNL     1     -33.840  14.388  53.802  1.00  0.00     0.102 A 
HETATM   72  C   UNL     1     -33.863  14.003  55.135  1.00  0.00     0.132 A 
HETATM   73  C   UNL     1     -34.387  14.864  56.099  1.00  0.00     0.102 A 
HETATM   74  C   UNL     1     -34.861  16.127  55.748  1.00  0.00     0.057 A 
BRANCH  71  75
HETATM   75  O   UNL     1     -33.334  13.584  52.828  1.00  0.00    -0.358 OA
HETATM   76  H   UNL     1     -33.280  14.087  51.988  1.00  0.00     0.217 HD
ENDBRANCH  71  75
BRANCH  72  77
HETATM   77  O   UNL     1     -33.385  12.776  55.499  1.00  0.00    -0.356 OA
HETATM   78  H   UNL     1     -33.086  12.881  56.426  1.00  0.00     0.218 HD
ENDBRANCH  72  77
BRANCH  73  79
HETATM   79  O   UNL     1     -34.424  14.414  57.390  1.00  0.00    -0.358 OA
HETATM   80  H   UNL     1     -35.347  14.194  57.613  1.00  0.00     0.217 HD
ENDBRANCH  73  79
ENDBRANCH  67  69
ENDBRANCH  66  67
ENDBRANCH  60  66
ENDBRANCH  54  56
ENDBRANCH  53  54
ENDBRANCH  52  53
ENDBRANCH   2  52
BRANCH   3  81
HETATM   81  O   UNL     1     -37.520  15.567  59.412  1.00  0.00    -0.285 OA
BRANCH  81  82
HETATM   82  C   UNL     1     -36.627  16.575  59.221  1.00  0.00     0.295 C 
HETATM   83  O   UNL     1     -35.425  16.382  59.345  1.00  0.00    -0.259 OA
BRANCH  82  84
HETATM   84  C   UNL     1     -37.143  17.875  58.713  1.00  0.00     0.045 A 
HETATM   85  C   UNL     1     -36.417  18.664  57.811  1.00  0.00     0.057 A 
HETATM   86  C   UNL     1     -36.909  19.918  57.455  1.00  0.00     0.102 A 
HETATM   87  C   UNL     1     -38.094  20.400  58.001  1.00  0.00     0.132 A 
HETATM   88  C   UNL     1     -38.807  19.630  58.908  1.00  0.00     0.102 A 
HETATM   89  C   UNL     1     -38.338  18.371  59.271  1.00  0.00     0.057 A 
BRANCH  86  90
HETATM   90  O   UNL     1     -36.216  20.703  56.576  1.00  0.00    -0.358 OA
HETATM   91  H   UNL     1     -35.532  21.131  57.135  1.00  0.00     0.217 HD
ENDBRANCH  86  90
BRANCH  87  92
HETATM   92  O   UNL     1     -38.528  21.649  57.644  1.00  0.00    -0.356 OA
HETATM   93  H   UNL     1     -38.466  22.172  58.472  1.00  0.00     0.218 HD
ENDBRANCH  87  92
BRANCH  88  94
HETATM   94  O   UNL     1     -39.954  20.161  59.432  1.00  0.00    -0.358 OA
HETATM   95  H   UNL     1     -40.199  19.634  60.215  1.00  0.00     0.217 HD
ENDBRANCH  88  94
ENDBRANCH  82  84
ENDBRANCH  81  82
ENDBRANCH   3  81
TORSDOF 38
ENDMDL
