REMARK VINA RESULT:      -8.8      2.405      3.912
REMARK  13 active torsions:
REMARK  status: ('A' for Active; 'I' for Inactive)
REMARK    1  A    between atoms: C_2  and  O_3 
REMARK    2  A    between atoms: C_15  and  O_16 
REMARK    3  A    between atoms: C_28  and  O_29 
REMARK    4  A    between atoms: C_41  and  O_42 
REMARK    5  A    between atoms: C_54  and  C_55 
REMARK    6  A    between atoms: O_3  and  C_4 
REMARK    7  A    between atoms: C_4  and  C_6 
REMARK    8  A    between atoms: O_16  and  C_17 
REMARK    9  A    between atoms: C_17  and  C_19 
REMARK   10  A    between atoms: O_29  and  C_30 
REMARK   11  A    between atoms: C_30  and  C_32 
REMARK   12  A    between atoms: O_42  and  C_43 
REMARK   13  A    between atoms: C_43  and  C_45 
ROOT
ATOM      1  O   LIG     1     172.463 170.640 171.437  0.00  0.00    -0.314 OA
ATOM      2  C   LIG     1     173.812 170.597 171.950  0.00  0.00     0.335 C 
ATOM      3  C   LIG     1     174.745 171.565 171.170  0.00  0.00     0.282 C 
ATOM      4  C   LIG     1     174.122 172.994 171.140  0.00  0.00     0.257 C 
ATOM      5  C   LIG     1     172.648 172.956 170.639  0.00  0.00     0.242 C 
ATOM      6  C   LIG     1     171.823 171.929 171.472  0.00  0.00     0.195 C 
ENDROOT
BRANCH   2   7
ATOM      7  O   LIG     1     174.234 169.240 171.765  0.00  0.00    -0.417 OA
BRANCH   7   8
ATOM      8  C   LIG     1     174.212 168.329 172.779  0.00  0.00     0.343 C 
ATOM      9  O   LIG     1     173.387 167.389 172.687  0.00  0.00    -0.245 OA
BRANCH   8  10
ATOM     10  C   LIG     1     175.138 168.422 173.855  0.00  0.00     0.082 A 
ATOM     11  C   LIG     1     176.519 168.625 173.611  0.00  0.00     0.052 A 
ATOM     12  C   LIG     1     177.424 168.829 174.672  0.00  0.00     0.238 A 
ATOM     13  C   LIG     1     176.957 168.834 176.001  0.00  0.00     0.273 A 
ATOM     14  O   LIG     1     178.739 169.032 174.413  0.00  0.00    -0.283 OA
ATOM     15  C   LIG     1     175.594 168.604 176.264  0.00  0.00     0.238 A 
ATOM     16  O   LIG     1     177.799 169.064 177.040  0.00  0.00    -0.280 OA
ATOM     17  C   LIG     1     174.697 168.385 175.201  0.00  0.00     0.052 A 
ATOM     18  O   LIG     1     175.147 168.611 177.546  0.00  0.00    -0.283 OA
ENDBRANCH   8  10
ENDBRANCH   7   8
ENDBRANCH   2   7
BRANCH   3  19
ATOM     19  O   LIG     1     176.050 171.653 171.769  0.00  0.00    -0.439 OA
BRANCH  19  20
ATOM     20  C   LIG     1     176.364 172.314 172.921  0.00  0.00     0.342 C 
ATOM     21  O   LIG     1     175.766 171.917 173.950  0.00  0.00    -0.245 OA
BRANCH  20  22
ATOM     22  C   LIG     1     177.241 173.432 172.958  0.00  0.00     0.082 A 
ATOM     23  C   LIG     1     176.739 174.749 173.097  0.00  0.00     0.052 A 
ATOM     24  C   LIG     1     177.604 175.861 173.132  0.00  0.00     0.238 A 
ATOM     25  O   LIG     1     177.067 177.100 173.267  0.00  0.00    -0.283 OA
ATOM     26  C   LIG     1     178.996 175.675 173.024  0.00  0.00     0.273 A 
ATOM     27  O   LIG     1     179.820 176.755 173.057  0.00  0.00    -0.280 OA
ATOM     28  C   LIG     1     179.515 174.372 172.883  0.00  0.00     0.238 A 
ATOM     29  C   LIG     1     178.642 173.265 172.855  0.00  0.00     0.052 A 
ATOM     30  O   LIG     1     180.856 174.189 172.772  0.00  0.00    -0.283 OA
ENDBRANCH  20  22
ENDBRANCH  19  20
ENDBRANCH   3  19
BRANCH   4  31
ATOM     31  O   LIG     1     174.873 173.875 170.281  0.00  0.00    -0.441 OA
BRANCH  31  32
ATOM     32  C   LIG     1     175.878 173.533 169.416  0.00  0.00     0.342 C 
ATOM     33  O   LIG     1     175.583 172.678 168.550  0.00  0.00    -0.245 OA
BRANCH  32  34
ATOM     34  C   LIG     1     177.152 174.168 169.388  0.00  0.00     0.082 A 
ATOM     35  C   LIG     1     177.268 175.580 169.390  0.00  0.00     0.052 A 
ATOM     36  C   LIG     1     178.532 176.204 169.383  0.00  0.00     0.238 A 
ATOM     37  C   LIG     1     179.702 175.423 169.380  0.00  0.00     0.273 A 
ATOM     38  O   LIG     1     178.630 177.558 169.379  0.00  0.00    -0.283 OA
ATOM     39  O   LIG     1     180.914 176.033 169.384  0.00  0.00    -0.280 OA
ATOM     40  C   LIG     1     179.605 174.017 169.370  0.00  0.00     0.238 A 
ATOM     41  O   LIG     1     180.733 173.264 169.346  0.00  0.00    -0.283 OA
ATOM     42  C   LIG     1     178.340 173.400 169.385  0.00  0.00     0.052 A 
ENDBRANCH  32  34
ENDBRANCH  31  32
ENDBRANCH   4  31
BRANCH   6  43
ATOM     43  C   LIG     1     170.381 171.743 170.937  0.00  0.00     0.215 C 
ATOM     44  O   LIG     1     170.361 171.813 169.514  0.00  0.00    -0.218 OA
ENDBRANCH   6  43
BRANCH   5  45
ATOM     45  O   LIG     1     172.042 174.256 170.787  0.00  0.00    -0.443 OA
BRANCH  45  46
ATOM     46  C   LIG     1     171.893 175.245 169.852  0.00  0.00     0.341 C 
ATOM     47  O   LIG     1     170.838 175.191 169.180  0.00  0.00    -0.245 OA
BRANCH  46  48
ATOM     48  C   LIG     1     172.870 176.226 169.545  0.00  0.00     0.082 A 
ATOM     49  C   LIG     1     173.485 176.942 170.655  0.00  0.00     0.052 A 
ATOM     50  C   LIG     1     174.433 177.945 170.358  0.00  0.00     0.238 A 
ATOM     51  O   LIG     1     175.009 178.642 171.370  0.00  0.00    -0.283 OA
ATOM     52  C   LIG     1     174.810 178.257 169.031  0.00  0.00     0.273 A 
ATOM     53  O   LIG     1     175.739 179.226 168.809  0.00  0.00    -0.280 OA
ATOM     54  C   LIG     1     174.179 177.521 167.947  0.00  0.00     0.238 A 
ATOM     55  O   LIG     1     174.631 177.913 166.686  0.00  0.00    -0.283 OA
ATOM     56  C   LIG     1     173.166 176.471 168.146  0.00  0.00     0.052 A 
ENDBRANCH  46  48
ENDBRANCH  45  46
ENDBRANCH   5  45
TORSDOF 13
