REMARK VINA RESULT:      -8.5      8.522     13.018
REMARK  13 active torsions:
REMARK  status: ('A' for Active; 'I' for Inactive)
REMARK    1  A    between atoms: C_2  and  O_3 
REMARK    2  A    between atoms: C_15  and  O_16 
REMARK    3  A    between atoms: C_28  and  O_29 
REMARK    4  A    between atoms: C_41  and  O_42 
REMARK    5  A    between atoms: C_54  and  C_55 
REMARK    6  A    between atoms: O_3  and  C_4 
REMARK    7  A    between atoms: C_4  and  C_6 
REMARK    8  A    between atoms: O_16  and  C_17 
REMARK    9  A    between atoms: C_17  and  C_19 
REMARK   10  A    between atoms: O_29  and  C_30 
REMARK   11  A    between atoms: C_30  and  C_32 
REMARK   12  A    between atoms: O_42  and  C_43 
REMARK   13  A    between atoms: C_43  and  C_45 
ROOT
ATOM      1  O   LIG     1     182.705 180.894 171.527  0.00  0.00    -0.314 OA
ATOM      2  C   LIG     1     182.023 182.166 171.474  0.00  0.00     0.335 C 
ATOM      3  C   LIG     1     182.897 183.246 170.775  0.00  0.00     0.282 C 
ATOM      4  C   LIG     1     183.377 182.724 169.387  0.00  0.00     0.257 C 
ATOM      5  C   LIG     1     184.042 181.321 169.511  0.00  0.00     0.242 C 
ATOM      6  C   LIG     1     183.089 180.338 170.256  0.00  0.00     0.195 C 
ENDROOT
BRANCH   2   7
ATOM      7  O   LIG     1     181.795 182.520 172.843  0.00  0.00    -0.417 OA
BRANCH   7   8
ATOM      8  C   LIG     1     182.695 182.231 173.826  0.00  0.00     0.343 C 
ATOM      9  O   LIG     1     182.571 181.129 174.410  0.00  0.00    -0.245 OA
BRANCH   8  10
ATOM     10  C   LIG     1     183.760 183.128 174.117  0.00  0.00     0.082 A 
ATOM     11  C   LIG     1     183.534 184.308 174.869  0.00  0.00     0.052 A 
ATOM     12  C   LIG     1     184.602 185.142 175.253  0.00  0.00     0.238 A 
ATOM     13  C   LIG     1     185.922 184.805 174.890  0.00  0.00     0.273 A 
ATOM     14  O   LIG     1     184.363 186.260 175.982  0.00  0.00    -0.283 OA
ATOM     15  C   LIG     1     186.162 183.654 174.118  0.00  0.00     0.238 A 
ATOM     16  O   LIG     1     186.974 185.570 175.279  0.00  0.00    -0.280 OA
ATOM     17  C   LIG     1     185.089 182.833 173.722  0.00  0.00     0.052 A 
ATOM     18  O   LIG     1     187.434 183.332 173.771  0.00  0.00    -0.283 OA
ENDBRANCH   8  10
ENDBRANCH   7   8
ENDBRANCH   2   7
BRANCH   3  19
ATOM     19  O   LIG     1     182.173 184.473 170.570  0.00  0.00    -0.439 OA
BRANCH  19  20
ATOM     20  C   LIG     1     182.385 185.651 171.225  0.00  0.00     0.342 C 
ATOM     21  O   LIG     1     181.474 186.002 172.012  0.00  0.00    -0.245 OA
BRANCH  20  22
ATOM     22  C   LIG     1     183.515 186.480 170.981  0.00  0.00     0.082 A 
ATOM     23  C   LIG     1     183.495 187.457 169.956  0.00  0.00     0.052 A 
ATOM     24  C   LIG     1     184.612 188.279 169.709  0.00  0.00     0.238 A 
ATOM     25  O   LIG     1     184.536 189.199 168.714  0.00  0.00    -0.283 OA
ATOM     26  C   LIG     1     185.779 188.135 170.485  0.00  0.00     0.273 A 
ATOM     27  O   LIG     1     186.851 188.933 170.235  0.00  0.00    -0.280 OA
ATOM     28  C   LIG     1     185.819 187.166 171.508  0.00  0.00     0.238 A 
ATOM     29  C   LIG     1     184.694 186.352 171.752  0.00  0.00     0.052 A 
ATOM     30  O   LIG     1     186.944 187.020 172.253  0.00  0.00    -0.283 OA
ENDBRANCH  20  22
ENDBRANCH  19  20
ENDBRANCH   3  19
BRANCH   4  31
ATOM     31  O   LIG     1     184.327 183.627 168.786  0.00  0.00    -0.441 OA
BRANCH  31  32
ATOM     32  C   LIG     1     185.543 184.007 169.289  0.00  0.00     0.342 C 
ATOM     33  O   LIG     1     185.922 183.399 170.317  0.00  0.00    -0.245 OA
BRANCH  32  34
ATOM     34  C   LIG     1     186.408 184.941 168.652  0.00  0.00     0.082 A 
ATOM     35  C   LIG     1     187.768 185.059 169.031  0.00  0.00     0.052 A 
ATOM     36  C   LIG     1     188.626 185.971 168.385  0.00  0.00     0.238 A 
ATOM     37  C   LIG     1     188.136 186.779 167.341  0.00  0.00     0.273 A 
ATOM     38  O   LIG     1     189.926 186.078 168.761  0.00  0.00    -0.283 OA
ATOM     39  O   LIG     1     188.972 187.646 166.718  0.00  0.00    -0.280 OA
ATOM     40  C   LIG     1     186.783 186.681 166.957  0.00  0.00     0.238 A 
ATOM     41  O   LIG     1     186.306 187.474 165.966  0.00  0.00    -0.283 OA
ATOM     42  C   LIG     1     185.935 185.762 167.602  0.00  0.00     0.052 A 
ENDBRANCH  32  34
ENDBRANCH  31  32
ENDBRANCH   4  31
BRANCH   6  43
ATOM     43  C   LIG     1     183.744 178.962 170.534  0.00  0.00     0.215 C 
ATOM     44  O   LIG     1     183.670 178.642 171.920  0.00  0.00    -0.218 OA
ENDBRANCH   6  43
BRANCH   5  45
ATOM     45  O   LIG     1     184.317 180.786 168.200  0.00  0.00    -0.443 OA
BRANCH  45  46
ATOM     46  C   LIG     1     185.526 180.499 167.627  0.00  0.00     0.341 C 
ATOM     47  O   LIG     1     185.959 179.343 167.843  0.00  0.00    -0.245 OA
BRANCH  46  48
ATOM     48  C   LIG     1     186.329 181.426 166.917  0.00  0.00     0.082 A 
ATOM     49  C   LIG     1     187.715 181.586 167.337  0.00  0.00     0.052 A 
ATOM     50  C   LIG     1     188.513 182.532 166.658  0.00  0.00     0.238 A 
ATOM     51  O   LIG     1     189.802 182.717 167.041  0.00  0.00    -0.283 OA
ATOM     52  C   LIG     1     188.016 183.305 165.584  0.00  0.00     0.273 A 
ATOM     53  O   LIG     1     188.839 184.192 164.960  0.00  0.00    -0.280 OA
ATOM     54  C   LIG     1     186.630 183.117 165.186  0.00  0.00     0.238 A 
ATOM     55  O   LIG     1     186.255 183.930 164.115  0.00  0.00    -0.283 OA
ATOM     56  C   LIG     1     185.707 182.173 165.839  0.00  0.00     0.052 A 
ENDBRANCH  46  48
ENDBRANCH  45  46
ENDBRANCH   5  45
TORSDOF 13
