REMARK VINA RESULT:      -8.7      4.541      8.540
REMARK  13 active torsions:
REMARK  status: ('A' for Active; 'I' for Inactive)
REMARK    1  A    between atoms: C_2  and  O_3 
REMARK    2  A    between atoms: C_15  and  O_16 
REMARK    3  A    between atoms: C_28  and  O_29 
REMARK    4  A    between atoms: C_41  and  O_42 
REMARK    5  A    between atoms: C_54  and  C_55 
REMARK    6  A    between atoms: O_3  and  C_4 
REMARK    7  A    between atoms: C_4  and  C_6 
REMARK    8  A    between atoms: O_16  and  C_17 
REMARK    9  A    between atoms: C_17  and  C_19 
REMARK   10  A    between atoms: O_29  and  C_30 
REMARK   11  A    between atoms: C_30  and  C_32 
REMARK   12  A    between atoms: O_42  and  C_43 
REMARK   13  A    between atoms: C_43  and  C_45 
ROOT
ATOM      1  O   LIG     1     179.375 181.686 169.659  0.00  0.00    -0.314 OA
ATOM      2  C   LIG     1     179.450 180.574 170.576  0.00  0.00     0.335 C 
ATOM      3  C   LIG     1     180.832 180.520 171.288  0.00  0.00     0.282 C 
ATOM      4  C   LIG     1     181.148 181.902 171.937  0.00  0.00     0.257 C 
ATOM      5  C   LIG     1     180.984 183.059 170.908  0.00  0.00     0.242 C 
ATOM      6  C   LIG     1     179.578 182.988 170.238  0.00  0.00     0.195 C 
ENDROOT
BRANCH   2   7
ATOM      7  O   LIG     1     179.264 179.410 169.762  0.00  0.00    -0.417 OA
BRANCH   7   8
ATOM      8  C   LIG     1     178.308 178.477 170.039  0.00  0.00     0.343 C 
ATOM      9  O   LIG     1     177.242 178.885 170.557  0.00  0.00    -0.245 OA
BRANCH   8  10
ATOM     10  C   LIG     1     178.506 177.113 169.687  0.00  0.00     0.082 A 
ATOM     11  C   LIG     1     179.667 176.703 168.986  0.00  0.00     0.052 A 
ATOM     12  C   LIG     1     179.922 175.341 168.731  0.00  0.00     0.238 A 
ATOM     13  C   LIG     1     179.013 174.362 169.178  0.00  0.00     0.273 A 
ATOM     14  O   LIG     1     181.046 174.973 168.068  0.00  0.00    -0.283 OA
ATOM     15  C   LIG     1     177.840 174.752 169.849  0.00  0.00     0.238 A 
ATOM     16  O   LIG     1     179.251 173.040 168.980  0.00  0.00    -0.280 OA
ATOM     17  C   LIG     1     177.582 176.116 170.086  0.00  0.00     0.052 A 
ATOM     18  O   LIG     1     176.967 173.806 170.280  0.00  0.00    -0.283 OA
ENDBRANCH   8  10
ENDBRANCH   7   8
ENDBRANCH   2   7
BRANCH   3  19
ATOM     19  O   LIG     1     180.866 179.518 172.320  0.00  0.00    -0.439 OA
BRANCH  19  20
ATOM     20  C   LIG     1     181.737 178.471 172.396  0.00  0.00     0.342 C 
ATOM     21  O   LIG     1     182.953 178.779 172.396  0.00  0.00    -0.245 OA
BRANCH  20  22
ATOM     22  C   LIG     1     181.317 177.112 172.390  0.00  0.00     0.082 A 
ATOM     23  C   LIG     1     180.107 176.721 173.013  0.00  0.00     0.052 A 
ATOM     24  C   LIG     1     179.687 175.376 173.012  0.00  0.00     0.238 A 
ATOM     25  O   LIG     1     178.518 175.058 173.625  0.00  0.00    -0.283 OA
ATOM     26  C   LIG     1     180.477 174.391 172.388  0.00  0.00     0.273 A 
ATOM     27  O   LIG     1     180.062 173.096 172.396  0.00  0.00    -0.280 OA
ATOM     28  C   LIG     1     181.686 174.760 171.764  0.00  0.00     0.238 A 
ATOM     29  C   LIG     1     182.095 176.110 171.765  0.00  0.00     0.052 A 
ATOM     30  O   LIG     1     182.453 173.813 171.167  0.00  0.00    -0.283 OA
ENDBRANCH  20  22
ENDBRANCH  19  20
ENDBRANCH   3  19
BRANCH   4  31
ATOM     31  O   LIG     1     182.492 181.942 172.457  0.00  0.00    -0.441 OA
BRANCH  31  32
ATOM     32  C   LIG     1     182.871 182.073 173.766  0.00  0.00     0.342 C 
ATOM     33  O   LIG     1     182.284 181.326 174.581  0.00  0.00    -0.245 OA
BRANCH  32  34
ATOM     34  C   LIG     1     183.941 182.905 174.203  0.00  0.00     0.082 A 
ATOM     35  C   LIG     1     185.286 182.603 173.878  0.00  0.00     0.052 A 
ATOM     36  C   LIG     1     186.340 183.441 174.295  0.00  0.00     0.238 A 
ATOM     37  C   LIG     1     186.063 184.601 175.042  0.00  0.00     0.273 A 
ATOM     38  O   LIG     1     187.625 183.137 173.982  0.00  0.00    -0.283 OA
ATOM     39  O   LIG     1     187.083 185.407 175.429  0.00  0.00    -0.280 OA
ATOM     40  C   LIG     1     184.731 184.913 175.381  0.00  0.00     0.238 A 
ATOM     41  O   LIG     1     184.465 186.020 176.119  0.00  0.00    -0.283 OA
ATOM     42  C   LIG     1     183.683 184.076 174.954  0.00  0.00     0.052 A 
ENDBRANCH  32  34
ENDBRANCH  31  32
ENDBRANCH   4  31
BRANCH   6  43
ATOM     43  C   LIG     1     179.400 184.030 169.105  0.00  0.00     0.215 C 
ATOM     44  O   LIG     1     178.528 185.078 169.520  0.00  0.00    -0.218 OA
ENDBRANCH   6  43
BRANCH   5  45
ATOM     45  O   LIG     1     181.109 184.334 171.572  0.00  0.00    -0.443 OA
BRANCH  45  46
ATOM     46  C   LIG     1     181.938 185.380 171.271  0.00  0.00     0.341 C 
ATOM     47  O   LIG     1     181.361 186.445 170.953  0.00  0.00    -0.245 OA
BRANCH  46  48
ATOM     48  C   LIG     1     183.352 185.303 171.203  0.00  0.00     0.082 A 
ATOM     49  C   LIG     1     184.123 186.249 172.000  0.00  0.00     0.052 A 
ATOM     50  C   LIG     1     185.532 186.202 171.912  0.00  0.00     0.238 A 
ATOM     51  O   LIG     1     186.275 187.083 172.628  0.00  0.00    -0.283 OA
ATOM     52  C   LIG     1     186.206 185.263 171.097  0.00  0.00     0.273 A 
ATOM     53  O   LIG     1     187.566 185.260 171.066  0.00  0.00    -0.280 OA
ATOM     54  C   LIG     1     185.406 184.331 170.319  0.00  0.00     0.238 A 
ATOM     55  O   LIG     1     186.180 183.453 169.558  0.00  0.00    -0.283 OA
ATOM     56  C   LIG     1     183.933 184.307 170.322  0.00  0.00     0.052 A 
ENDBRANCH  46  48
ENDBRANCH  45  46
ENDBRANCH   5  45
TORSDOF 13
