REMARK VINA RESULT:      -8.5      0.861      2.150
REMARK  13 active torsions:
REMARK  status: ('A' for Active; 'I' for Inactive)
REMARK    1  A    between atoms: C_2  and  O_3 
REMARK    2  A    between atoms: C_15  and  O_16 
REMARK    3  A    between atoms: C_28  and  O_29 
REMARK    4  A    between atoms: C_41  and  O_42 
REMARK    5  A    between atoms: C_54  and  C_55 
REMARK    6  A    between atoms: O_3  and  C_4 
REMARK    7  A    between atoms: C_4  and  C_6 
REMARK    8  A    between atoms: O_16  and  C_17 
REMARK    9  A    between atoms: C_17  and  C_19 
REMARK   10  A    between atoms: O_29  and  C_30 
REMARK   11  A    between atoms: C_30  and  C_32 
REMARK   12  A    between atoms: O_42  and  C_43 
REMARK   13  A    between atoms: C_43  and  C_45 
ROOT
ATOM      1  O   LIG     1     174.664 173.666 170.686  0.00  0.00    -0.314 OA
ATOM      2  C   LIG     1     175.363 173.473 171.934  0.00  0.00     0.335 C 
ATOM      3  C   LIG     1     176.617 174.388 172.028  0.00  0.00     0.282 C 
ATOM      4  C   LIG     1     176.215 175.868 171.746  0.00  0.00     0.257 C 
ATOM      5  C   LIG     1     175.409 175.992 170.419  0.00  0.00     0.242 C 
ATOM      6  C   LIG     1     174.203 175.005 170.429  0.00  0.00     0.195 C 
ENDROOT
BRANCH   2   7
ATOM      7  O   LIG     1     175.752 172.094 171.931  0.00  0.00    -0.417 OA
BRANCH   7   8
ATOM      8  C   LIG     1     175.095 171.153 172.668  0.00  0.00     0.343 C 
ATOM      9  O   LIG     1     173.973 170.781 172.252  0.00  0.00    -0.245 OA
BRANCH   8  10
ATOM     10  C   LIG     1     175.704 170.584 173.820  0.00  0.00     0.082 A 
ATOM     11  C   LIG     1     176.687 169.570 173.699  0.00  0.00     0.052 A 
ATOM     12  C   LIG     1     177.372 169.080 174.828  0.00  0.00     0.238 A 
ATOM     13  C   LIG     1     177.084 169.602 176.105  0.00  0.00     0.273 A 
ATOM     14  O   LIG     1     178.317 168.118 174.685  0.00  0.00    -0.283 OA
ATOM     15  C   LIG     1     176.090 170.587 176.249  0.00  0.00     0.238 A 
ATOM     16  O   LIG     1     177.754 169.176 177.205  0.00  0.00    -0.280 OA
ATOM     17  C   LIG     1     175.396 171.061 175.118  0.00  0.00     0.052 A 
ATOM     18  O   LIG     1     175.815 171.089 177.480  0.00  0.00    -0.283 OA
ENDBRANCH   8  10
ENDBRANCH   7   8
ENDBRANCH   2   7
BRANCH   3  19
ATOM     19  O   LIG     1     177.232 174.326 173.327  0.00  0.00    -0.439 OA
BRANCH  19  20
ATOM     20  C   LIG     1     178.442 174.853 173.670  0.00  0.00     0.342 C 
ATOM     21  O   LIG     1     178.435 175.622 174.661  0.00  0.00    -0.245 OA
BRANCH  20  22
ATOM     22  C   LIG     1     179.627 174.625 172.917  0.00  0.00     0.082 A 
ATOM     23  C   LIG     1     180.625 175.625 172.807  0.00  0.00     0.052 A 
ATOM     24  C   LIG     1     181.799 175.405 172.061  0.00  0.00     0.238 A 
ATOM     25  O   LIG     1     182.722 176.398 171.990  0.00  0.00    -0.283 OA
ATOM     26  C   LIG     1     181.997 174.175 171.403  0.00  0.00     0.273 A 
ATOM     27  O   LIG     1     183.133 173.976 170.684  0.00  0.00    -0.280 OA
ATOM     28  C   LIG     1     181.015 173.169 171.499  0.00  0.00     0.238 A 
ATOM     29  C   LIG     1     179.845 173.396 172.253  0.00  0.00     0.052 A 
ATOM     30  O   LIG     1     181.198 171.985 170.861  0.00  0.00    -0.283 OA
ENDBRANCH  20  22
ENDBRANCH  19  20
ENDBRANCH   3  19
BRANCH   4  31
ATOM     31  O   LIG     1     177.376 176.718 171.655  0.00  0.00    -0.441 OA
BRANCH  31  32
ATOM     32  C   LIG     1     177.570 177.926 172.271  0.00  0.00     0.342 C 
ATOM     33  O   LIG     1     176.738 178.226 173.157  0.00  0.00    -0.245 OA
BRANCH  32  34
ATOM     34  C   LIG     1     178.695 178.765 172.035  0.00  0.00     0.082 A 
ATOM     35  C   LIG     1     179.756 178.351 171.192  0.00  0.00     0.052 A 
ATOM     36  C   LIG     1     180.859 179.193 170.945  0.00  0.00     0.238 A 
ATOM     37  C   LIG     1     180.916 180.469 171.535  0.00  0.00     0.273 A 
ATOM     38  O   LIG     1     181.871 178.781 170.139  0.00  0.00    -0.283 OA
ATOM     39  O   LIG     1     181.976 181.277 171.283  0.00  0.00    -0.280 OA
ATOM     40  C   LIG     1     179.873 180.894 172.383  0.00  0.00     0.238 A 
ATOM     41  O   LIG     1     179.938 182.116 172.969  0.00  0.00    -0.283 OA
ATOM     42  C   LIG     1     178.771 180.052 172.619  0.00  0.00     0.052 A 
ENDBRANCH  32  34
ENDBRANCH  31  32
ENDBRANCH   4  31
BRANCH   6  43
ATOM     43  C   LIG     1     173.437 174.979 169.082  0.00  0.00     0.215 C 
ATOM     44  O   LIG     1     172.203 175.683 169.192  0.00  0.00    -0.218 OA
ENDBRANCH   6  43
BRANCH   5  45
ATOM     45  O   LIG     1     174.901 177.333 170.272  0.00  0.00    -0.443 OA
BRANCH  45  46
ATOM     46  C   LIG     1     175.102 178.218 169.247  0.00  0.00     0.341 C 
ATOM     47  O   LIG     1     174.134 178.358 168.465  0.00  0.00    -0.245 OA
BRANCH  46  48
ATOM     48  C   LIG     1     176.324 178.882 168.974  0.00  0.00     0.082 A 
ATOM     49  C   LIG     1     176.524 180.204 169.554  0.00  0.00     0.052 A 
ATOM     50  C   LIG     1     177.724 180.888 169.260  0.00  0.00     0.238 A 
ATOM     51  O   LIG     1     177.928 182.128 169.770  0.00  0.00    -0.283 OA
ATOM     52  C   LIG     1     178.731 180.324 168.443  0.00  0.00     0.273 A 
ATOM     53  O   LIG     1     179.872 181.028 168.207  0.00  0.00    -0.280 OA
ATOM     54  C   LIG     1     178.502 179.002 167.884  0.00  0.00     0.238 A 
ATOM     55  O   LIG     1     179.565 178.550 167.100  0.00  0.00    -0.283 OA
ATOM     56  C   LIG     1     177.279 178.212 168.112  0.00  0.00     0.052 A 
ENDBRANCH  46  48
ENDBRANCH  45  46
ENDBRANCH   5  45
TORSDOF 13
