MODEL 1
REMARK VINA RESULT:      -9.1      0.000      0.000
REMARK  13 active torsions:
REMARK  status: ('A' for Active; 'I' for Inactive)
REMARK    1  A    between atoms: C_2  and  O_12 
REMARK    2  A    between atoms: C_3  and  O_10 
REMARK    3  A    between atoms: C_4  and  O_8 
REMARK    4  A    between atoms: C_5  and  O_6 
REMARK    5  A    between atoms: C_22  and  C_23 
REMARK    6  A    between atoms: O_12  and  C_13 
REMARK    7  A    between atoms: C_13  and  C_14 
REMARK    8  A    between atoms: C_15  and  C_16 
REMARK    9  A    between atoms: C_23  and  O_24 
REMARK   10  A    between atoms: O_24  and  C_25 
REMARK   11  A    between atoms: C_26  and  O_34 
REMARK   12  A    between atoms: C_27  and  O_32 
REMARK   13  A    between atoms: C_28  and  O_30 
ROOT
ATOM      1  O   LIG     1     -26.827   5.208   5.079  0.00  0.00    -0.341 OA
ATOM      2  C   LIG     1     -26.839   6.598   5.397  0.00  0.00     0.282 C 
ATOM      3  C   LIG     1     -27.247   6.810   6.855  0.00  0.00     0.201 C 
ATOM      4  C   LIG     1     -26.369   5.993   7.803  0.00  0.00     0.179 C 
ATOM      5  C   LIG     1     -26.252   4.543   7.338  0.00  0.00     0.177 C 
ATOM      6  C   LIG     1     -25.878   4.476   5.855  0.00  0.00     0.178 C 
ENDROOT
BRANCH   6   7
ATOM      7  C   LIG     1     -25.869   3.040   5.338  0.00  0.00     0.197 C 
BRANCH   7   8
ATOM      8  O   LIG     1     -26.493   2.211   6.301  0.00  0.00    -0.346 OA
BRANCH   8   9
ATOM      9  C   LIG     1     -27.700   1.642   5.806  0.00  0.00     0.281 C 
ATOM     10  O   LIG     1     -28.856   2.355   6.261  0.00  0.00    -0.346 OA
ATOM     11  C   LIG     1     -29.076   2.255   7.666  0.00  0.00     0.197 C 
ATOM     12  C   LIG     1     -29.286   0.802   8.074  0.00  0.00     0.171 C 
ATOM     13  C   LIG     1     -28.084  -0.051   7.667  0.00  0.00     0.178 C 
ATOM     14  C   LIG     1     -27.770   0.154   6.182  0.00  0.00     0.201 C 
BRANCH  12  15
ATOM     15  O   LIG     1     -29.494   0.706   9.476  0.00  0.00    -0.387 OA
ATOM     16  H   LIG     1     -29.628   1.608   9.816  0.00  0.00     0.210 HD
ENDBRANCH  12  15
BRANCH  13  17
ATOM     17  O   LIG     1     -26.953   0.324   8.451  0.00  0.00    -0.386 OA
ATOM     18  H   LIG     1     -27.280   0.834   9.212  0.00  0.00     0.210 HD
ENDBRANCH  13  17
BRANCH  14  19
ATOM     19  O   LIG     1     -28.792  -0.452   5.395  0.00  0.00    -0.384 OA
ATOM     20  H   LIG     1     -28.791  -0.037   4.516  0.00  0.00     0.210 HD
ENDBRANCH  14  19
ENDBRANCH   8   9
ENDBRANCH   7   8
ENDBRANCH   6   7
BRANCH   5  21
ATOM     21  O   LIG     1     -25.252   3.879   8.107  0.00  0.00    -0.386 OA
ATOM     22  H   LIG     1     -24.391   4.042   7.683  0.00  0.00     0.210 HD
ENDBRANCH   5  21
BRANCH   2  23
ATOM     23  O   LIG     1     -27.787   7.273   4.572  0.00  0.00    -0.345 OA
BRANCH  23  24
ATOM     24  C   LIG     1     -29.067   6.667   4.652  0.00  0.00     0.190 C 
BRANCH  24  25
ATOM     25  C   LIG     1     -30.111   7.716   4.443  0.00  0.00     0.001 C 
ATOM     26  C   LIG     1     -30.479   8.158   3.230  0.00  0.00     0.006 C 
BRANCH  26  27
ATOM     27  C   LIG     1     -31.511   9.177   2.975  0.00  0.00    -0.025 A 
ATOM     28  C   LIG     1     -32.496   9.400   3.924  0.00  0.00     0.008 A 
ATOM     29  C   LIG     1     -33.472  10.366   3.682  0.00  0.00     0.001 A 
ATOM     30  C   LIG     1     -33.453  11.095   2.494  0.00  0.00     0.000 A 
ATOM     31  C   LIG     1     -32.456  10.860   1.547  0.00  0.00     0.001 A 
ATOM     32  C   LIG     1     -31.479   9.894   1.789  0.00  0.00     0.008 A 
ENDBRANCH  26  27
ENDBRANCH  24  25
ENDBRANCH  23  24
ENDBRANCH   2  23
BRANCH   4  33
ATOM     33  O   LIG     1     -26.950   5.993   9.108  0.00  0.00    -0.386 OA
ATOM     34  H   LIG     1     -27.657   6.661   9.112  0.00  0.00     0.210 HD
ENDBRANCH   4  33
BRANCH   3  35
ATOM     35  O   LIG     1     -27.111   8.198   7.160  0.00  0.00    -0.384 OA
ATOM     36  H   LIG     1     -27.990   8.544   7.386  0.00  0.00     0.210 HD
ENDBRANCH   3  35
TORSDOF 13
ENDMDL
MODEL 2
REMARK VINA RESULT:      -8.8      2.120      2.712
REMARK  13 active torsions:
REMARK  status: ('A' for Active; 'I' for Inactive)
REMARK    1  A    between atoms: C_2  and  O_12 
REMARK    2  A    between atoms: C_3  and  O_10 
REMARK    3  A    between atoms: C_4  and  O_8 
REMARK    4  A    between atoms: C_5  and  O_6 
REMARK    5  A    between atoms: C_22  and  C_23 
REMARK    6  A    between atoms: O_12  and  C_13 
REMARK    7  A    between atoms: C_13  and  C_14 
REMARK    8  A    between atoms: C_15  and  C_16 
REMARK    9  A    between atoms: C_23  and  O_24 
REMARK   10  A    between atoms: O_24  and  C_25 
REMARK   11  A    between atoms: C_26  and  O_34 
REMARK   12  A    between atoms: C_27  and  O_32 
REMARK   13  A    between atoms: C_28  and  O_30 
ROOT
ATOM      1  O   LIG     1     -26.923   5.184   5.110  0.00  0.00    -0.341 OA
ATOM      2  C   LIG     1     -26.963   6.575   5.419  0.00  0.00     0.282 C 
ATOM      3  C   LIG     1     -27.306   6.787   6.894  0.00  0.00     0.201 C 
ATOM      4  C   LIG     1     -26.359   6.005   7.803  0.00  0.00     0.179 C 
ATOM      5  C   LIG     1     -26.220   4.555   7.343  0.00  0.00     0.177 C 
ATOM      6  C   LIG     1     -25.915   4.488   5.844  0.00  0.00     0.178 C 
ENDROOT
BRANCH   6   7
ATOM      7  C   LIG     1     -25.886   3.049   5.337  0.00  0.00     0.197 C 
BRANCH   7   8
ATOM      8  O   LIG     1     -26.504   2.218   6.303  0.00  0.00    -0.346 OA
BRANCH   8   9
ATOM      9  C   LIG     1     -27.728   1.671   5.824  0.00  0.00     0.281 C 
ATOM     10  O   LIG     1     -28.866   2.394   6.307  0.00  0.00    -0.346 OA
ATOM     11  C   LIG     1     -29.063   2.281   7.715  0.00  0.00     0.197 C 
ATOM     12  C   LIG     1     -29.285   0.827   8.110  0.00  0.00     0.171 C 
ATOM     13  C   LIG     1     -28.101  -0.038   7.673  0.00  0.00     0.178 C 
ATOM     14  C   LIG     1     -27.811   0.180   6.184  0.00  0.00     0.201 C 
BRANCH  12  15
ATOM     15  O   LIG     1     -29.469   0.718   9.515  0.00  0.00    -0.387 OA
ATOM     16  H   LIG     1     -29.495   1.620   9.879  0.00  0.00     0.210 HD
ENDBRANCH  12  15
BRANCH  13  17
ATOM     17  O   LIG     1     -26.951   0.314   8.440  0.00  0.00    -0.386 OA
ATOM     18  H   LIG     1     -26.315  -0.418   8.367  0.00  0.00     0.210 HD
ENDBRANCH  13  17
BRANCH  14  19
ATOM     19  O   LIG     1     -28.855  -0.404   5.409  0.00  0.00    -0.384 OA
ATOM     20  H   LIG     1     -28.819  -1.368   5.521  0.00  0.00     0.210 HD
ENDBRANCH  14  19
ENDBRANCH   8   9
ENDBRANCH   7   8
ENDBRANCH   6   7
BRANCH   5  21
ATOM     21  O   LIG     1     -25.164   3.929   8.067  0.00  0.00    -0.386 OA
ATOM     22  H   LIG     1     -24.801   4.581   8.692  0.00  0.00     0.210 HD
ENDBRANCH   5  21
BRANCH   2  23
ATOM     23  O   LIG     1     -27.969   7.214   4.636  0.00  0.00    -0.345 OA
BRANCH  23  24
ATOM     24  C   LIG     1     -29.073   6.352   4.410  0.00  0.00     0.190 C 
BRANCH  24  25
ATOM     25  C   LIG     1     -29.344   6.291   2.941  0.00  0.00     0.001 C 
ATOM     26  C   LIG     1     -28.760   7.108   2.049  0.00  0.00     0.006 C 
BRANCH  26  27
ATOM     27  C   LIG     1     -28.984   7.075   0.594  0.00  0.00    -0.025 A 
ATOM     28  C   LIG     1     -30.258   7.306   0.097  0.00  0.00     0.008 A 
ATOM     29  C   LIG     1     -30.469   7.275  -1.281  0.00  0.00     0.001 A 
ATOM     30  C   LIG     1     -29.406   7.012  -2.144  0.00  0.00     0.000 A 
ATOM     31  C   LIG     1     -28.130   6.781  -1.631  0.00  0.00     0.001 A 
ATOM     32  C   LIG     1     -27.918   6.812  -0.252  0.00  0.00     0.008 A 
ENDBRANCH  26  27
ENDBRANCH  24  25
ENDBRANCH  23  24
ENDBRANCH   2  23
BRANCH   4  33
ATOM     33  O   LIG     1     -26.877   5.998   9.135  0.00  0.00    -0.386 OA
ATOM     34  H   LIG     1     -26.652   5.138   9.530  0.00  0.00     0.210 HD
ENDBRANCH   4  33
BRANCH   3  35
ATOM     35  O   LIG     1     -27.199   8.180   7.182  0.00  0.00    -0.384 OA
ATOM     36  H   LIG     1     -26.864   8.628   6.387  0.00  0.00     0.210 HD
ENDBRANCH   3  35
TORSDOF 13
ENDMDL
MODEL 3
REMARK VINA RESULT:      -8.2      3.344      4.141
REMARK  13 active torsions:
REMARK  status: ('A' for Active; 'I' for Inactive)
REMARK    1  A    between atoms: C_2  and  O_12 
REMARK    2  A    between atoms: C_3  and  O_10 
REMARK    3  A    between atoms: C_4  and  O_8 
REMARK    4  A    between atoms: C_5  and  O_6 
REMARK    5  A    between atoms: C_22  and  C_23 
REMARK    6  A    between atoms: O_12  and  C_13 
REMARK    7  A    between atoms: C_13  and  C_14 
REMARK    8  A    between atoms: C_15  and  C_16 
REMARK    9  A    between atoms: C_23  and  O_24 
REMARK   10  A    between atoms: O_24  and  C_25 
REMARK   11  A    between atoms: C_26  and  O_34 
REMARK   12  A    between atoms: C_27  and  O_32 
REMARK   13  A    between atoms: C_28  and  O_30 
ROOT
ATOM      1  O   LIG     1     -28.294   5.834   3.631  0.00  0.00    -0.341 OA
ATOM      2  C   LIG     1     -27.339   6.778   3.152  0.00  0.00     0.282 C 
ATOM      3  C   LIG     1     -27.240   7.970   4.106  0.00  0.00     0.201 C 
ATOM      4  C   LIG     1     -26.957   7.516   5.537  0.00  0.00     0.179 C 
ATOM      5  C   LIG     1     -27.901   6.390   5.958  0.00  0.00     0.177 C 
ATOM      6  C   LIG     1     -27.933   5.284   4.899  0.00  0.00     0.178 C 
ENDROOT
BRANCH   6   7
ATOM      7  C   LIG     1     -28.956   4.205   5.241  0.00  0.00     0.197 C 
BRANCH   7   8
ATOM      8  O   LIG     1     -28.275   3.106   5.820  0.00  0.00    -0.346 OA
BRANCH   8   9
ATOM      9  C   LIG     1     -28.990   1.888   5.643  0.00  0.00     0.281 C 
ATOM     10  O   LIG     1     -30.149   1.819   6.481  0.00  0.00    -0.346 OA
ATOM     11  C   LIG     1     -29.848   1.744   7.873  0.00  0.00     0.197 C 
ATOM     12  C   LIG     1     -29.028   0.498   8.179  0.00  0.00     0.171 C 
ATOM     13  C   LIG     1     -27.737   0.487   7.359  0.00  0.00     0.178 C 
ATOM     14  C   LIG     1     -28.053   0.693   5.874  0.00  0.00     0.201 C 
BRANCH  12  15
ATOM     15  O   LIG     1     -28.721   0.434   9.564  0.00  0.00    -0.387 OA
ATOM     16  H   LIG     1     -28.790   1.336   9.922  0.00  0.00     0.210 HD
ENDBRANCH  12  15
BRANCH  13  17
ATOM     17  O   LIG     1     -26.881   1.534   7.814  0.00  0.00    -0.386 OA
ATOM     18  H   LIG     1     -26.302   1.161   8.501  0.00  0.00     0.210 HD
ENDBRANCH  13  17
BRANCH  14  19
ATOM     19  O   LIG     1     -28.692  -0.473   5.361  0.00  0.00    -0.384 OA
ATOM     20  H   LIG     1     -29.093  -0.253   4.503  0.00  0.00     0.210 HD
ENDBRANCH  14  19
ENDBRANCH   8   9
ENDBRANCH   7   8
ENDBRANCH   6   7
BRANCH   5  21
ATOM     21  O   LIG     1     -27.460   5.843   7.198  0.00  0.00    -0.386 OA
ATOM     22  H   LIG     1     -27.821   6.394   7.914  0.00  0.00     0.210 HD
ENDBRANCH   5  21
BRANCH   2  23
ATOM     23  O   LIG     1     -27.743   7.268   1.875  0.00  0.00    -0.345 OA
BRANCH  23  24
ATOM     24  C   LIG     1     -29.157   7.317   1.764  0.00  0.00     0.190 C 
BRANCH  24  25
ATOM     25  C   LIG     1     -29.528   7.272   0.317  0.00  0.00     0.001 C 
ATOM     26  C   LIG     1     -28.628   7.322  -0.677  0.00  0.00     0.006 C 
BRANCH  26  27
ATOM     27  C   LIG     1     -28.945   7.267  -2.114  0.00  0.00    -0.025 A 
ATOM     28  C   LIG     1     -29.257   6.047  -2.694  0.00  0.00     0.008 A 
ATOM     29  C   LIG     1     -29.558   5.995  -4.055  0.00  0.00     0.001 A 
ATOM     30  C   LIG     1     -29.542   7.162  -4.819  0.00  0.00     0.000 A 
ATOM     31  C   LIG     1     -29.226   8.382  -4.222  0.00  0.00     0.001 A 
ATOM     32  C   LIG     1     -28.925   8.434  -2.860  0.00  0.00     0.008 A 
ENDBRANCH  26  27
ENDBRANCH  24  25
ENDBRANCH  23  24
ENDBRANCH   2  23
BRANCH   4  33
ATOM     33  O   LIG     1     -27.152   8.613   6.431  0.00  0.00    -0.386 OA
ATOM     34  H   LIG     1     -26.356   9.168   6.388  0.00  0.00     0.210 HD
ENDBRANCH   4  33
BRANCH   3  35
ATOM     35  O   LIG     1     -26.180   8.814   3.657  0.00  0.00    -0.384 OA
ATOM     36  H   LIG     1     -25.485   8.250   3.278  0.00  0.00     0.210 HD
ENDBRANCH   3  35
TORSDOF 13
ENDMDL
MODEL 4
REMARK VINA RESULT:      -8.2      2.345      4.032
REMARK  13 active torsions:
REMARK  status: ('A' for Active; 'I' for Inactive)
REMARK    1  A    between atoms: C_2  and  O_12 
REMARK    2  A    between atoms: C_3  and  O_10 
REMARK    3  A    between atoms: C_4  and  O_8 
REMARK    4  A    between atoms: C_5  and  O_6 
REMARK    5  A    between atoms: C_22  and  C_23 
REMARK    6  A    between atoms: O_12  and  C_13 
REMARK    7  A    between atoms: C_13  and  C_14 
REMARK    8  A    between atoms: C_15  and  C_16 
REMARK    9  A    between atoms: C_23  and  O_24 
REMARK   10  A    between atoms: O_24  and  C_25 
REMARK   11  A    between atoms: C_26  and  O_34 
REMARK   12  A    between atoms: C_27  and  O_32 
REMARK   13  A    between atoms: C_28  and  O_30 
ROOT
ATOM      1  O   LIG     1     -29.635   6.120   2.865  0.00  0.00    -0.341 OA
ATOM      2  C   LIG     1     -29.076   6.924   1.829  0.00  0.00     0.282 C 
ATOM      3  C   LIG     1     -28.069   7.919   2.408  0.00  0.00     0.201 C 
ATOM      4  C   LIG     1     -27.006   7.211   3.247  0.00  0.00     0.179 C 
ATOM      5  C   LIG     1     -27.641   6.237   4.239  0.00  0.00     0.177 C 
ATOM      6  C   LIG     1     -28.653   5.329   3.536  0.00  0.00     0.178 C 
ENDROOT
BRANCH   6   7
ATOM      7  C   LIG     1     -29.386   4.427   4.525  0.00  0.00     0.197 C 
BRANCH   7   8
ATOM      8  O   LIG     1     -28.613   3.257   4.726  0.00  0.00    -0.346 OA
BRANCH   8   9
ATOM      9  C   LIG     1     -28.137   3.162   6.064  0.00  0.00     0.281 C 
ATOM     10  O   LIG     1     -26.890   2.461   6.142  0.00  0.00    -0.346 OA
ATOM     11  C   LIG     1     -26.985   1.080   5.799  0.00  0.00     0.197 C 
ATOM     12  C   LIG     1     -27.937   0.357   6.742  0.00  0.00     0.171 C 
ATOM     13  C   LIG     1     -29.323   1.004   6.709  0.00  0.00     0.178 C 
ATOM     14  C   LIG     1     -29.207   2.512   6.955  0.00  0.00     0.201 C 
BRANCH  12  15
ATOM     15  O   LIG     1     -28.037  -1.016   6.389  0.00  0.00    -0.387 OA
ATOM     16  H   LIG     1     -27.342  -1.495   6.872  0.00  0.00     0.210 HD
ENDBRANCH  12  15
BRANCH  13  17
ATOM     17  O   LIG     1     -29.922   0.772   5.435  0.00  0.00    -0.386 OA
ATOM     18  H   LIG     1     -29.451   0.028   5.022  0.00  0.00     0.210 HD
ENDBRANCH  13  17
BRANCH  14  19
ATOM     19  O   LIG     1     -28.848   2.743   8.315  0.00  0.00    -0.384 OA
ATOM     20  H   LIG     1     -28.862   1.893   8.786  0.00  0.00     0.210 HD
ENDBRANCH  14  19
ENDBRANCH   8   9
ENDBRANCH   7   8
ENDBRANCH   6   7
BRANCH   5  21
ATOM     21  O   LIG     1     -26.622   5.437   4.833  0.00  0.00    -0.386 OA
ATOM     22  H   LIG     1     -26.407   5.822   5.701  0.00  0.00     0.210 HD
ENDBRANCH   5  21
BRANCH   2  23
ATOM     23  O   LIG     1     -30.109   7.667   1.185  0.00  0.00    -0.345 OA
BRANCH  23  24
ATOM     24  C   LIG     1     -30.789   8.510   2.101  0.00  0.00     0.190 C 
BRANCH  24  25
ATOM     25  C   LIG     1     -31.561   9.533   1.333  0.00  0.00     0.001 C 
ATOM     26  C   LIG     1     -32.027   9.327   0.092  0.00  0.00     0.006 C 
BRANCH  26  27
ATOM     27  C   LIG     1     -32.804  10.298  -0.697  0.00  0.00    -0.025 A 
ATOM     28  C   LIG     1     -32.965  10.095  -2.058  0.00  0.00     0.008 A 
ATOM     29  C   LIG     1     -33.701  11.015  -2.804  0.00  0.00     0.001 A 
ATOM     30  C   LIG     1     -34.265  12.128  -2.180  0.00  0.00     0.000 A 
ATOM     31  C   LIG     1     -34.094  12.320  -0.809  0.00  0.00     0.001 A 
ATOM     32  C   LIG     1     -33.358  11.399  -0.063  0.00  0.00     0.008 A 
ENDBRANCH  26  27
ENDBRANCH  24  25
ENDBRANCH  23  24
ENDBRANCH   2  23
BRANCH   4  33
ATOM     33  O   LIG     1     -26.265   8.179   3.991  0.00  0.00    -0.386 OA
ATOM     34  H   LIG     1     -26.356   7.954   4.933  0.00  0.00     0.210 HD
ENDBRANCH   4  33
BRANCH   3  35
ATOM     35  O   LIG     1     -27.441   8.601   1.323  0.00  0.00    -0.384 OA
ATOM     36  H   LIG     1     -28.119   8.792   0.654  0.00  0.00     0.210 HD
ENDBRANCH   3  35
TORSDOF 13
ENDMDL
MODEL 5
REMARK VINA RESULT:      -8.2      5.402     11.123
REMARK  13 active torsions:
REMARK  status: ('A' for Active; 'I' for Inactive)
REMARK    1  A    between atoms: C_2  and  O_12 
REMARK    2  A    between atoms: C_3  and  O_10 
REMARK    3  A    between atoms: C_4  and  O_8 
REMARK    4  A    between atoms: C_5  and  O_6 
REMARK    5  A    between atoms: C_22  and  C_23 
REMARK    6  A    between atoms: O_12  and  C_13 
REMARK    7  A    between atoms: C_13  and  C_14 
REMARK    8  A    between atoms: C_15  and  C_16 
REMARK    9  A    between atoms: C_23  and  O_24 
REMARK   10  A    between atoms: O_24  and  C_25 
REMARK   11  A    between atoms: C_26  and  O_34 
REMARK   12  A    between atoms: C_27  and  O_32 
REMARK   13  A    between atoms: C_28  and  O_30 
ROOT
ATOM      1  O   LIG     1     -30.166   7.829   0.584  0.00  0.00    -0.341 OA
ATOM      2  C   LIG     1     -28.749   7.742   0.720  0.00  0.00     0.282 C 
ATOM      3  C   LIG     1     -28.175   6.746  -0.288  0.00  0.00     0.201 C 
ATOM      4  C   LIG     1     -28.614   7.080  -1.713  0.00  0.00     0.179 C 
ATOM      5  C   LIG     1     -30.120   7.323  -1.786  0.00  0.00     0.177 C 
ATOM      6  C   LIG     1     -30.565   8.307  -0.701  0.00  0.00     0.178 C 
ENDROOT
BRANCH   6   7
ATOM      7  C   LIG     1     -32.081   8.477  -0.679  0.00  0.00     0.197 C 
BRANCH   7   8
ATOM      8  O   LIG     1     -32.494   9.001  -1.928  0.00  0.00    -0.346 OA
BRANCH   8   9
ATOM      9  C   LIG     1     -33.381  10.103  -1.772  0.00  0.00     0.281 C 
ATOM     10  O   LIG     1     -34.164  10.334  -2.948  0.00  0.00    -0.346 OA
ATOM     11  C   LIG     1     -33.401  10.770  -4.070  0.00  0.00     0.197 C 
ATOM     12  C   LIG     1     -32.699  12.087  -3.764  0.00  0.00     0.171 C 
ATOM     13  C   LIG     1     -31.797  11.944  -2.536  0.00  0.00     0.178 C 
ATOM     14  C   LIG     1     -32.590  11.356  -1.364  0.00  0.00     0.201 C 
BRANCH  12  15
ATOM     15  O   LIG     1     -31.931  12.511  -4.881  0.00  0.00    -0.387 OA
ATOM     16  H   LIG     1     -31.463  11.732  -5.228  0.00  0.00     0.210 HD
ENDBRANCH  12  15
BRANCH  13  17
ATOM     17  O   LIG     1     -30.704  11.083  -2.853  0.00  0.00    -0.386 OA
ATOM     18  H   LIG     1     -30.767  10.305  -2.272  0.00  0.00     0.210 HD
ENDBRANCH  13  17
BRANCH  14  19
ATOM     19  O   LIG     1     -33.519  12.328  -0.888  0.00  0.00    -0.384 OA
ATOM     20  H   LIG     1     -34.090  12.596  -1.627  0.00  0.00     0.210 HD
ENDBRANCH  14  19
ENDBRANCH   8   9
ENDBRANCH   7   8
ENDBRANCH   6   7
BRANCH   5  21
ATOM     21  O   LIG     1     -30.452   7.852  -3.067  0.00  0.00    -0.386 OA
ATOM     22  H   LIG     1     -30.373   8.821  -3.021  0.00  0.00     0.210 HD
ENDBRANCH   5  21
BRANCH   2  23
ATOM     23  O   LIG     1     -28.417   7.285   2.029  0.00  0.00    -0.345 OA
BRANCH  23  24
ATOM     24  C   LIG     1     -29.537   6.696   2.670  0.00  0.00     0.190 C 
BRANCH  24  25
ATOM     25  C   LIG     1     -29.135   5.363   3.213  0.00  0.00     0.001 C 
ATOM     26  C   LIG     1     -29.408   4.963   4.465  0.00  0.00     0.006 C 
BRANCH  26  27
ATOM     27  C   LIG     1     -29.045   3.656   5.038  0.00  0.00    -0.025 A 
ATOM     28  C   LIG     1     -30.049   2.782   5.426  0.00  0.00     0.008 A 
ATOM     29  C   LIG     1     -29.705   1.544   5.968  0.00  0.00     0.001 A 
ATOM     30  C   LIG     1     -28.363   1.195   6.115  0.00  0.00     0.000 A 
ATOM     31  C   LIG     1     -27.363   2.084   5.720  0.00  0.00     0.001 A 
ATOM     32  C   LIG     1     -27.707   3.323   5.178  0.00  0.00     0.008 A 
ENDBRANCH  26  27
ENDBRANCH  24  25
ENDBRANCH  23  24
ENDBRANCH   2  23
BRANCH   4  33
ATOM     33  O   LIG     1     -28.301   5.985  -2.576  0.00  0.00    -0.386 OA
ATOM     34  H   LIG     1     -28.985   5.954  -3.266  0.00  0.00     0.210 HD
ENDBRANCH   4  33
BRANCH   3  35
ATOM     35  O   LIG     1     -26.751   6.797  -0.206  0.00  0.00    -0.384 OA
ATOM     36  H   LIG     1     -26.393   6.040  -0.699  0.00  0.00     0.210 HD
ENDBRANCH   3  35
TORSDOF 13
ENDMDL
MODEL 6
REMARK VINA RESULT:      -8.0      2.266      3.789
REMARK  13 active torsions:
REMARK  status: ('A' for Active; 'I' for Inactive)
REMARK    1  A    between atoms: C_2  and  O_12 
REMARK    2  A    between atoms: C_3  and  O_10 
REMARK    3  A    between atoms: C_4  and  O_8 
REMARK    4  A    between atoms: C_5  and  O_6 
REMARK    5  A    between atoms: C_22  and  C_23 
REMARK    6  A    between atoms: O_12  and  C_13 
REMARK    7  A    between atoms: C_13  and  C_14 
REMARK    8  A    between atoms: C_15  and  C_16 
REMARK    9  A    between atoms: C_23  and  O_24 
REMARK   10  A    between atoms: O_24  and  C_25 
REMARK   11  A    between atoms: C_26  and  O_34 
REMARK   12  A    between atoms: C_27  and  O_32 
REMARK   13  A    between atoms: C_28  and  O_30 
ROOT
ATOM      1  O   LIG     1     -29.937   7.964   4.151  0.00  0.00    -0.341 OA
ATOM      2  C   LIG     1     -29.467   9.298   3.971  0.00  0.00     0.282 C 
ATOM      3  C   LIG     1     -28.864   9.832   5.271  0.00  0.00     0.201 C 
ATOM      4  C   LIG     1     -27.788   8.893   5.813  0.00  0.00     0.179 C 
ATOM      5  C   LIG     1     -28.278   7.446   5.840  0.00  0.00     0.177 C 
ATOM      6  C   LIG     1     -28.890   7.054   4.493  0.00  0.00     0.178 C 
ENDROOT
BRANCH   6   7
ATOM      7  C   LIG     1     -29.492   5.653   4.532  0.00  0.00     0.197 C 
BRANCH   7   8
ATOM      8  O   LIG     1     -28.714   4.852   5.404  0.00  0.00    -0.346 OA
BRANCH   8   9
ATOM      9  C   LIG     1     -28.309   3.636   4.784  0.00  0.00     0.281 C 
ATOM     10  O   LIG     1     -29.215   2.563   5.065  0.00  0.00    -0.346 OA
ATOM     11  C   LIG     1     -29.229   2.167   6.434  0.00  0.00     0.197 C 
ATOM     12  C   LIG     1     -27.851   1.683   6.867  0.00  0.00     0.171 C 
ATOM     13  C   LIG     1     -26.802   2.773   6.645  0.00  0.00     0.178 C 
ATOM     14  C   LIG     1     -26.873   3.288   5.204  0.00  0.00     0.201 C 
BRANCH  12  15
ATOM     15  O   LIG     1     -27.868   1.300   8.235  0.00  0.00    -0.387 OA
ATOM     16  H   LIG     1     -26.967   1.019   8.473  0.00  0.00     0.210 HD
ENDBRANCH  12  15
BRANCH  13  17
ATOM     17  O   LIG     1     -27.044   3.851   7.549  0.00  0.00    -0.386 OA
ATOM     18  H   LIG     1     -26.184   4.251   7.764  0.00  0.00     0.210 HD
ENDBRANCH  13  17
BRANCH  14  19
ATOM     19  O   LIG     1     -26.387   2.281   4.319  0.00  0.00    -0.384 OA
ATOM     20  H   LIG     1     -26.396   2.636   3.414  0.00  0.00     0.210 HD
ENDBRANCH  14  19
ENDBRANCH   8   9
ENDBRANCH   7   8
ENDBRANCH   6   7
BRANCH   5  21
ATOM     21  O   LIG     1     -27.182   6.582   6.129  0.00  0.00    -0.386 OA
ATOM     22  H   LIG     1     -27.137   6.468   7.095  0.00  0.00     0.210 HD
ENDBRANCH   5  21
BRANCH   2  23
ATOM     23  O   LIG     1     -30.553  10.147   3.607  0.00  0.00    -0.345 OA
BRANCH  23  24
ATOM     24  C   LIG     1     -31.638   9.401   3.080  0.00  0.00     0.190 C 
BRANCH  24  25
ATOM     25  C   LIG     1     -31.938   9.894   1.701  0.00  0.00     0.001 C 
ATOM     26  C   LIG     1     -32.576  11.047   1.453  0.00  0.00     0.006 C 
BRANCH  26  27
ATOM     27  C   LIG     1     -32.879  11.579   0.113  0.00  0.00    -0.025 A 
ATOM     28  C   LIG     1     -34.153  12.054  -0.157  0.00  0.00     0.008 A 
ATOM     29  C   LIG     1     -34.439  12.558  -1.425  0.00  0.00     0.001 A 
ATOM     30  C   LIG     1     -33.450  12.579  -2.408  0.00  0.00     0.000 A 
ATOM     31  C   LIG     1     -32.173  12.097  -2.122  0.00  0.00     0.001 A 
ATOM     32  C   LIG     1     -31.886  11.594  -0.853  0.00  0.00     0.008 A 
ENDBRANCH  26  27
ENDBRANCH  24  25
ENDBRANCH  23  24
ENDBRANCH   2  23
BRANCH   4  33
ATOM     33  O   LIG     1     -27.455   9.272   7.150  0.00  0.00    -0.386 OA
ATOM     34  H   LIG     1     -27.984   8.719   7.749  0.00  0.00     0.210 HD
ENDBRANCH   4  33
BRANCH   3  35
ATOM     35  O   LIG     1     -28.288  11.111   5.003  0.00  0.00    -0.384 OA
ATOM     36  H   LIG     1     -27.378  10.972   4.690  0.00  0.00     0.210 HD
ENDBRANCH   3  35
TORSDOF 13
ENDMDL
MODEL 7
REMARK VINA RESULT:      -8.0      3.557      5.704
REMARK  13 active torsions:
REMARK  status: ('A' for Active; 'I' for Inactive)
REMARK    1  A    between atoms: C_2  and  O_12 
REMARK    2  A    between atoms: C_3  and  O_10 
REMARK    3  A    between atoms: C_4  and  O_8 
REMARK    4  A    between atoms: C_5  and  O_6 
REMARK    5  A    between atoms: C_22  and  C_23 
REMARK    6  A    between atoms: O_12  and  C_13 
REMARK    7  A    between atoms: C_13  and  C_14 
REMARK    8  A    between atoms: C_15  and  C_16 
REMARK    9  A    between atoms: C_23  and  O_24 
REMARK   10  A    between atoms: O_24  and  C_25 
REMARK   11  A    between atoms: C_26  and  O_34 
REMARK   12  A    between atoms: C_27  and  O_32 
REMARK   13  A    between atoms: C_28  and  O_30 
ROOT
ATOM      1  O   LIG     1     -29.549   8.611   4.470  0.00  0.00    -0.341 OA
ATOM      2  C   LIG     1     -30.258   8.139   3.327  0.00  0.00     0.282 C 
ATOM      3  C   LIG     1     -29.302   7.932   2.151  0.00  0.00     0.201 C 
ATOM      4  C   LIG     1     -28.133   7.026   2.538  0.00  0.00     0.179 C 
ATOM      5  C   LIG     1     -27.499   7.472   3.855  0.00  0.00     0.177 C 
ATOM      6  C   LIG     1     -28.568   7.679   4.930  0.00  0.00     0.178 C 
ENDROOT
BRANCH   6   7
ATOM      7  C   LIG     1     -27.973   8.236   6.220  0.00  0.00     0.197 C 
BRANCH   7   8
ATOM      8  O   LIG     1     -27.227   7.211   6.851  0.00  0.00    -0.346 OA
BRANCH   8   9
ATOM      9  C   LIG     1     -25.964   7.682   7.309  0.00  0.00     0.281 C 
ATOM     10  O   LIG     1     -24.878   6.932   6.755  0.00  0.00    -0.346 OA
ATOM     11  C   LIG     1     -24.829   5.578   7.200  0.00  0.00     0.197 C 
ATOM     12  C   LIG     1     -24.659   5.516   8.713  0.00  0.00     0.171 C 
ATOM     13  C   LIG     1     -25.797   6.260   9.414  0.00  0.00     0.178 C 
ATOM     14  C   LIG     1     -25.930   7.676   8.845  0.00  0.00     0.201 C 
BRANCH  12  15
ATOM     15  O   LIG     1     -24.623   4.165   9.153  0.00  0.00    -0.387 OA
ATOM     16  H   LIG     1     -25.020   3.618   8.454  0.00  0.00     0.210 HD
ENDBRANCH  12  15
BRANCH  13  17
ATOM     17  O   LIG     1     -27.018   5.549   9.215  0.00  0.00    -0.386 OA
ATOM     18  H   LIG     1     -26.792   4.676   8.849  0.00  0.00     0.210 HD
ENDBRANCH  13  17
BRANCH  14  19
ATOM     19  O   LIG     1     -24.816   8.460   9.264  0.00  0.00    -0.384 OA
ATOM     20  H   LIG     1     -24.840   8.537  10.233  0.00  0.00     0.210 HD
ENDBRANCH  14  19
ENDBRANCH   8   9
ENDBRANCH   7   8
ENDBRANCH   6   7
BRANCH   5  21
ATOM     21  O   LIG     1     -26.575   6.480   4.293  0.00  0.00    -0.386 OA
ATOM     22  H   LIG     1     -26.706   6.349   5.249  0.00  0.00     0.210 HD
ENDBRANCH   5  21
BRANCH   2  23
ATOM     23  O   LIG     1     -31.235   9.101   2.935  0.00  0.00    -0.345 OA
BRANCH  23  24
ATOM     24  C   LIG     1     -30.674  10.401   2.845  0.00  0.00     0.190 C 
BRANCH  24  25
ATOM     25  C   LIG     1     -31.078  11.011   1.541  0.00  0.00     0.001 C 
ATOM     26  C   LIG     1     -32.336  10.988   1.075  0.00  0.00     0.006 C 
BRANCH  26  27
ATOM     27  C   LIG     1     -32.782  11.587  -0.195  0.00  0.00    -0.025 A 
ATOM     28  C   LIG     1     -34.084  12.046  -0.309  0.00  0.00     0.008 A 
ATOM     29  C   LIG     1     -34.505  12.614  -1.511  0.00  0.00     0.001 A 
ATOM     30  C   LIG     1     -33.620  12.713  -2.584  0.00  0.00     0.000 A 
ATOM     31  C   LIG     1     -32.313  12.245  -2.456  0.00  0.00     0.001 A 
ATOM     32  C   LIG     1     -31.891  11.678  -1.253  0.00  0.00     0.008 A 
ENDBRANCH  26  27
ENDBRANCH  24  25
ENDBRANCH  23  24
ENDBRANCH   2  23
BRANCH   4  33
ATOM     33  O   LIG     1     -27.130   7.085   1.522  0.00  0.00    -0.386 OA
ATOM     34  H   LIG     1     -27.375   7.801   0.912  0.00  0.00     0.210 HD
ENDBRANCH   4  33
BRANCH   3  35
ATOM     35  O   LIG     1     -30.033   7.333   1.081  0.00  0.00    -0.384 OA
ATOM     36  H   LIG     1     -30.958   7.242   1.362  0.00  0.00     0.210 HD
ENDBRANCH   3  35
TORSDOF 13
ENDMDL
MODEL 8
REMARK VINA RESULT:      -7.9      7.343     10.703
REMARK  13 active torsions:
REMARK  status: ('A' for Active; 'I' for Inactive)
REMARK    1  A    between atoms: C_2  and  O_12 
REMARK    2  A    between atoms: C_3  and  O_10 
REMARK    3  A    between atoms: C_4  and  O_8 
REMARK    4  A    between atoms: C_5  and  O_6 
REMARK    5  A    between atoms: C_22  and  C_23 
REMARK    6  A    between atoms: O_12  and  C_13 
REMARK    7  A    between atoms: C_13  and  C_14 
REMARK    8  A    between atoms: C_15  and  C_16 
REMARK    9  A    between atoms: C_23  and  O_24 
REMARK   10  A    between atoms: O_24  and  C_25 
REMARK   11  A    between atoms: C_26  and  O_34 
REMARK   12  A    between atoms: C_27  and  O_32 
REMARK   13  A    between atoms: C_28  and  O_30 
ROOT
ATOM      1  O   LIG     1     -31.078  11.828  -2.539  0.00  0.00    -0.341 OA
ATOM      2  C   LIG     1     -32.355  11.964  -3.159  0.00  0.00     0.282 C 
ATOM      3  C   LIG     1     -32.197  12.316  -4.639  0.00  0.00     0.201 C 
ATOM      4  C   LIG     1     -31.294  11.313  -5.356  0.00  0.00     0.179 C 
ATOM      5  C   LIG     1     -30.002  11.075  -4.576  0.00  0.00     0.177 C 
ATOM      6  C   LIG     1     -30.303  10.771  -3.106  0.00  0.00     0.178 C 
ENDROOT
BRANCH   6   7
ATOM      7  C   LIG     1     -29.025  10.644  -2.282  0.00  0.00     0.197 C 
BRANCH   7   8
ATOM      8  O   LIG     1     -29.170   9.553  -1.391  0.00  0.00    -0.346 OA
BRANCH   8   9
ATOM      9  C   LIG     1     -28.239   8.514  -1.673  0.00  0.00     0.281 C 
ATOM     10  O   LIG     1     -28.408   7.985  -2.993  0.00  0.00    -0.346 OA
ATOM     11  C   LIG     1     -29.639   7.291  -3.181  0.00  0.00     0.197 C 
ATOM     12  C   LIG     1     -29.735   6.103  -2.233  0.00  0.00     0.171 C 
ATOM     13  C   LIG     1     -29.606   6.561  -0.780  0.00  0.00     0.178 C 
ATOM     14  C   LIG     1     -28.344   7.414  -0.606  0.00  0.00     0.201 C 
BRANCH  12  15
ATOM     15  O   LIG     1     -30.969   5.422  -2.416  0.00  0.00    -0.387 OA
ATOM     16  H   LIG     1     -31.681   6.082  -2.359  0.00  0.00     0.210 HD
ENDBRANCH  12  15
BRANCH  13  17
ATOM     17  O   LIG     1     -30.754   7.329  -0.423  0.00  0.00    -0.386 OA
ATOM     18  H   LIG     1     -30.767   7.404   0.546  0.00  0.00     0.210 HD
ENDBRANCH  13  17
BRANCH  14  19
ATOM     19  O   LIG     1     -27.193   6.581  -0.716  0.00  0.00    -0.384 OA
ATOM     20  H   LIG     1     -27.345   5.775  -0.195  0.00  0.00     0.210 HD
ENDBRANCH  14  19
ENDBRANCH   8   9
ENDBRANCH   7   8
ENDBRANCH   6   7
BRANCH   5  21
ATOM     21  O   LIG     1     -29.300   9.975  -5.151  0.00  0.00    -0.386 OA
ATOM     22  H   LIG     1     -29.946   9.418  -5.617  0.00  0.00     0.210 HD
ENDBRANCH   5  21
BRANCH   2  23
ATOM     23  O   LIG     1     -33.086  13.015  -2.532  0.00  0.00    -0.345 OA
BRANCH  23  24
ATOM     24  C   LIG     1     -34.114  12.504  -1.699  0.00  0.00     0.190 C 
BRANCH  24  25
ATOM     25  C   LIG     1     -33.499  11.623  -0.659  0.00  0.00     0.001 C 
ATOM     26  C   LIG     1     -33.706  11.780   0.657  0.00  0.00     0.006 C 
BRANCH  26  27
ATOM     27  C   LIG     1     -33.133  10.930   1.715  0.00  0.00    -0.025 A 
ATOM     28  C   LIG     1     -32.075  10.088   1.411  0.00  0.00     0.008 A 
ATOM     29  C   LIG     1     -31.533   9.284   2.413  0.00  0.00     0.001 A 
ATOM     30  C   LIG     1     -32.057   9.329   3.704  0.00  0.00     0.000 A 
ATOM     31  C   LIG     1     -33.123  10.180   3.995  0.00  0.00     0.001 A 
ATOM     32  C   LIG     1     -33.664  10.986   2.993  0.00  0.00     0.008 A 
ENDBRANCH  26  27
ENDBRANCH  24  25
ENDBRANCH  23  24
ENDBRANCH   2  23
BRANCH   4  33
ATOM     33  O   LIG     1     -30.944  11.824  -6.644  0.00  0.00    -0.386 OA
ATOM     34  H   LIG     1     -30.042  11.522  -6.842  0.00  0.00     0.210 HD
ENDBRANCH   4  33
BRANCH   3  35
ATOM     35  O   LIG     1     -33.491  12.305  -5.242  0.00  0.00    -0.384 OA
ATOM     36  H   LIG     1     -33.378  12.152  -6.195  0.00  0.00     0.210 HD
ENDBRANCH   3  35
TORSDOF 13
ENDMDL
MODEL 9
REMARK VINA RESULT:      -7.9      7.209     11.371
REMARK  13 active torsions:
REMARK  status: ('A' for Active; 'I' for Inactive)
REMARK    1  A    between atoms: C_2  and  O_12 
REMARK    2  A    between atoms: C_3  and  O_10 
REMARK    3  A    between atoms: C_4  and  O_8 
REMARK    4  A    between atoms: C_5  and  O_6 
REMARK    5  A    between atoms: C_22  and  C_23 
REMARK    6  A    between atoms: O_12  and  C_13 
REMARK    7  A    between atoms: C_13  and  C_14 
REMARK    8  A    between atoms: C_15  and  C_16 
REMARK    9  A    between atoms: C_23  and  O_24 
REMARK   10  A    between atoms: O_24  and  C_25 
REMARK   11  A    between atoms: C_26  and  O_34 
REMARK   12  A    between atoms: C_27  and  O_32 
REMARK   13  A    between atoms: C_28  and  O_30 
ROOT
ATOM      1  O   LIG     1     -31.063  11.047  -2.313  0.00  0.00    -0.341 OA
ATOM      2  C   LIG     1     -31.932  11.279  -3.420  0.00  0.00     0.282 C 
ATOM      3  C   LIG     1     -33.199  10.431  -3.292  0.00  0.00     0.201 C 
ATOM      4  C   LIG     1     -33.884  10.653  -1.944  0.00  0.00     0.179 C 
ATOM      5  C   LIG     1     -32.885  10.554  -0.792  0.00  0.00     0.177 C 
ATOM      6  C   LIG     1     -31.652  11.419  -1.066  0.00  0.00     0.178 C 
ENDROOT
BRANCH   6   7
ATOM      7  C   LIG     1     -30.589  11.246   0.015  0.00  0.00     0.197 C 
BRANCH   7   8
ATOM      8  O   LIG     1     -30.214   9.881   0.064  0.00  0.00    -0.346 OA
BRANCH   8   9
ATOM      9  C   LIG     1     -28.803   9.725   0.166  0.00  0.00     0.281 C 
ATOM     10  O   LIG     1     -28.165   9.756  -1.116  0.00  0.00    -0.346 OA
ATOM     11  C   LIG     1     -28.492   8.645  -1.947  0.00  0.00     0.197 C 
ATOM     12  C   LIG     1     -28.062   7.339  -1.292  0.00  0.00     0.171 C 
ATOM     13  C   LIG     1     -28.721   7.182   0.080  0.00  0.00     0.178 C 
ATOM     14  C   LIG     1     -28.474   8.433   0.930  0.00  0.00     0.201 C 
BRANCH  12  15
ATOM     15  O   LIG     1     -28.400   6.235  -2.119  0.00  0.00    -0.387 OA
ATOM     16  H   LIG     1     -27.796   6.243  -2.881  0.00  0.00     0.210 HD
ENDBRANCH  12  15
BRANCH  13  17
ATOM     17  O   LIG     1     -30.124   6.990  -0.091  0.00  0.00    -0.386 OA
ATOM     18  H   LIG     1     -30.344   7.235  -1.006  0.00  0.00     0.210 HD
ENDBRANCH  13  17
BRANCH  14  19
ATOM     19  O   LIG     1     -27.101   8.483   1.309  0.00  0.00    -0.384 OA
ATOM     20  H   LIG     1     -27.012   8.094   2.195  0.00  0.00     0.210 HD
ENDBRANCH  14  19
ENDBRANCH   8   9
ENDBRANCH   7   8
ENDBRANCH   6   7
BRANCH   5  21
ATOM     21  O   LIG     1     -33.509  10.990   0.413  0.00  0.00    -0.386 OA
ATOM     22  H   LIG     1     -33.799  10.201   0.903  0.00  0.00     0.210 HD
ENDBRANCH   5  21
BRANCH   2  23
ATOM     23  O   LIG     1     -31.277  10.913  -4.632  0.00  0.00    -0.345 OA
BRANCH  23  24
ATOM     24  C   LIG     1     -29.870  11.059  -4.524  0.00  0.00     0.190 C 
BRANCH  24  25
ATOM     25  C   LIG     1     -29.211   9.926  -5.242  0.00  0.00     0.001 C 
ATOM     26  C   LIG     1     -29.889   8.897  -5.774  0.00  0.00     0.006 C 
BRANCH  26  27
ATOM     27  C   LIG     1     -29.285   7.767  -6.501  0.00  0.00    -0.025 A 
ATOM     28  C   LIG     1     -28.731   7.983  -7.753  0.00  0.00     0.008 A 
ATOM     29  C   LIG     1     -28.159   6.914  -8.441  0.00  0.00     0.001 A 
ATOM     30  C   LIG     1     -28.149   5.641  -7.869  0.00  0.00     0.000 A 
ATOM     31  C   LIG     1     -28.711   5.438  -6.609  0.00  0.00     0.001 A 
ATOM     32  C   LIG     1     -29.283   6.509  -5.921  0.00  0.00     0.008 A 
ENDBRANCH  26  27
ENDBRANCH  24  25
ENDBRANCH  23  24
ENDBRANCH   2  23
BRANCH   4  33
ATOM     33  O   LIG     1     -34.884   9.652  -1.749  0.00  0.00    -0.386 OA
ATOM     34  H   LIG     1     -34.558   8.831  -2.155  0.00  0.00     0.210 HD
ENDBRANCH   4  33
BRANCH   3  35
ATOM     35  O   LIG     1     -34.090  10.799  -4.344  0.00  0.00    -0.384 OA
ATOM     36  H   LIG     1     -34.769  11.388  -3.973  0.00  0.00     0.210 HD
ENDBRANCH   3  35
TORSDOF 13
ENDMDL
