MODEL 1
REMARK VINA RESULT:      -8.7      0.000      0.000
REMARK  5 active torsions:
REMARK  status: ('A' for Active; 'I' for Inactive)
REMARK    1  A    between atoms: O_2  and  C_13 
REMARK    2  A    between atoms: O_4  and  C_16 
REMARK    3  A    between atoms: O_5  and  C_19 
REMARK    4  A    between atoms: O_6  and  C_21 
REMARK    5  A    between atoms: C_9  and  C_10 
ROOT
HETATM    1  O   UNK     0      32.905   6.890  -4.854  0.00  0.00    -0.309 OA
HETATM    2  O   UNK     0      31.991   5.530  -8.584  0.00  0.00    -0.287 OA
HETATM    3  C   UNK     0      33.638   5.838  -6.918  0.00  0.00     0.081 A 
HETATM    4  C   UNK     0      33.881   6.323  -5.634  0.00  0.00     0.095 A 
HETATM    5  C   UNK     0      31.623   6.993  -5.372  0.00  0.00     0.090 A 
HETATM    6  C   UNK     0      32.276   5.937  -7.467  0.00  0.00     0.190 A 
HETATM    7  C   UNK     0      31.263   6.558  -6.590  0.00  0.00     0.094 A 
HETATM    8  C   UNK     0      34.671   5.269  -7.665  0.00  0.00     0.085 A 
HETATM    9  C   UNK     0      35.162   6.240  -5.089  0.00  0.00     0.075 A 
HETATM   10  C   UNK     0      36.197   5.672  -5.833  0.00  0.00     0.071 A 
HETATM   11  C   UNK     0      35.951   5.188  -7.118  0.00  0.00     0.074 A 
ENDROOT
BRANCH   5  12
HETATM   12  C   UNK     0      30.651   7.613  -4.450  0.00  0.00     0.001 A 
HETATM   13  C   UNK     0      29.319   7.775  -4.838  0.00  0.00     0.053 A 
HETATM   14  C   UNK     0      28.401   8.361  -3.967  0.00  0.00     0.099 A 
HETATM   15  C   UNK     0      28.812   8.788  -2.704  0.00  0.00     0.098 A 
HETATM   16  C   UNK     0      30.141   8.629  -2.313  0.00  0.00     0.040 A 
HETATM   17  C   UNK     0      31.060   8.043  -3.185  0.00  0.00     0.017 A 
BRANCH  14  18
HETATM   18  O   UNK     0      27.105   8.512  -4.360  0.00  0.00    -0.358 OA
HETATM   19  H   UNK     0      26.881   9.457  -4.318  0.00  0.00     0.217 HD
ENDBRANCH  14  18
BRANCH  15  20
HETATM   20  O   UNK     0      27.925   9.360  -1.844  0.00  0.00    -0.358 OA
HETATM   21  H   UNK     0      28.252   9.256  -0.935  0.00  0.00     0.217 HD
ENDBRANCH  15  20
ENDBRANCH   5  12
BRANCH   8  22
HETATM   22  O   UNK     0      34.483   4.782  -8.923  0.00  0.00    -0.360 OA
HETATM   23  H   UNK     0      33.607   4.374  -9.003  0.00  0.00     0.217 HD
ENDBRANCH   8  22
BRANCH  10  24
HETATM   24  O   UNK     0      37.449   5.590  -5.303  0.00  0.00    -0.361 OA
HETATM   25  H   UNK     0      37.761   6.485  -5.089  0.00  0.00     0.217 HD
ENDBRANCH  10  24
TORSDOF 5
ENDMDL
MODEL 2
REMARK VINA RESULT:      -8.4      3.096      7.808
REMARK  5 active torsions:
REMARK  status: ('A' for Active; 'I' for Inactive)
REMARK    1  A    between atoms: O_2  and  C_13 
REMARK    2  A    between atoms: O_4  and  C_16 
REMARK    3  A    between atoms: O_5  and  C_19 
REMARK    4  A    between atoms: O_6  and  C_21 
REMARK    5  A    between atoms: C_9  and  C_10 
ROOT
HETATM    1  O   UNK     0      36.622   6.226  -5.409  0.00  0.00    -0.309 OA
HETATM    2  O   UNK     0      33.517   6.650  -2.806  0.00  0.00    -0.287 OA
HETATM    3  C   UNK     0      34.223   6.236  -5.022  0.00  0.00     0.081 A 
HETATM    4  C   UNK     0      35.331   6.102  -5.857  0.00  0.00     0.095 A 
HETATM    5  C   UNK     0      36.831   6.505  -4.067  0.00  0.00     0.090 A 
HETATM    6  C   UNK     0      34.442   6.523  -3.596  0.00  0.00     0.190 A 
HETATM    7  C   UNK     0      35.849   6.650  -3.164  0.00  0.00     0.094 A 
HETATM    8  C   UNK     0      32.932   6.098  -5.534  0.00  0.00     0.085 A 
HETATM    9  C   UNK     0      35.152   5.828  -7.213  0.00  0.00     0.075 A 
HETATM   10  C   UNK     0      33.863   5.689  -7.728  0.00  0.00     0.071 A 
HETATM   11  C   UNK     0      32.756   5.825  -6.891  0.00  0.00     0.074 A 
ENDROOT
BRANCH   5  12
HETATM   12  C   UNK     0      38.254   6.613  -3.691  0.00  0.00     0.001 A 
HETATM   13  C   UNK     0      39.048   5.466  -3.610  0.00  0.00     0.053 A 
HETATM   14  C   UNK     0      40.392   5.568  -3.255  0.00  0.00     0.099 A 
HETATM   15  C   UNK     0      40.949   6.817  -2.979  0.00  0.00     0.098 A 
HETATM   16  C   UNK     0      40.160   7.964  -3.059  0.00  0.00     0.040 A 
HETATM   17  C   UNK     0      38.814   7.862  -3.414  0.00  0.00     0.017 A 
BRANCH  14  18
HETATM   18  O   UNK     0      41.154   4.440  -3.179  0.00  0.00    -0.358 OA
HETATM   19  H   UNK     0      40.559   3.673  -3.123  0.00  0.00     0.217 HD
ENDBRANCH  14  18
BRANCH  15  20
HETATM   20  O   UNK     0      42.261   6.929  -2.632  0.00  0.00    -0.358 OA
HETATM   21  H   UNK     0      42.811   6.767  -3.417  0.00  0.00     0.217 HD
ENDBRANCH  15  20
ENDBRANCH   5  12
BRANCH   8  22
HETATM   22  O   UNK     0      31.818   6.220  -4.759  0.00  0.00    -0.360 OA
HETATM   23  H   UNK     0      31.783   5.509  -4.101  0.00  0.00     0.217 HD
ENDBRANCH   8  22
BRANCH  10  24
HETATM   24  O   UNK     0      33.685   5.422  -9.052  0.00  0.00    -0.361 OA
HETATM   25  H   UNK     0      32.769   5.637  -9.297  0.00  0.00     0.217 HD
ENDBRANCH  10  24
TORSDOF 5
ENDMDL
MODEL 3
REMARK VINA RESULT:      -8.3      2.485      7.004
REMARK  5 active torsions:
REMARK  status: ('A' for Active; 'I' for Inactive)
REMARK    1  A    between atoms: O_2  and  C_13 
REMARK    2  A    between atoms: O_4  and  C_16 
REMARK    3  A    between atoms: O_5  and  C_19 
REMARK    4  A    between atoms: O_6  and  C_21 
REMARK    5  A    between atoms: C_9  and  C_10 
ROOT
HETATM    1  O   UNK     0      34.955   7.253  -5.094  0.00  0.00    -0.309 OA
HETATM    2  O   UNK     0      34.824   4.638  -8.216  0.00  0.00    -0.287 OA
HETATM    3  C   UNK     0      33.656   6.149  -6.825  0.00  0.00     0.081 A 
HETATM    4  C   UNK     0      33.771   7.030  -5.751  0.00  0.00     0.095 A 
HETATM    5  C   UNK     0      36.083   6.564  -5.514  0.00  0.00     0.090 A 
HETATM    6  C   UNK     0      34.852   5.424  -7.279  0.00  0.00     0.190 A 
HETATM    7  C   UNK     0      36.101   5.696  -6.537  0.00  0.00     0.094 A 
HETATM    8  C   UNK     0      32.424   5.962  -7.456  0.00  0.00     0.085 A 
HETATM    9  C   UNK     0      32.653   7.731  -5.301  0.00  0.00     0.075 A 
HETATM   10  C   UNK     0      31.420   7.548  -5.930  0.00  0.00     0.071 A 
HETATM   11  C   UNK     0      31.307   6.665  -7.004  0.00  0.00     0.074 A 
ENDROOT
BRANCH   5  12
HETATM   12  C   UNK     0      37.301   6.882  -4.743  0.00  0.00     0.001 A 
HETATM   13  C   UNK     0      38.122   5.854  -4.271  0.00  0.00     0.053 A 
HETATM   14  C   UNK     0      39.273   6.155  -3.544  0.00  0.00     0.099 A 
HETATM   15  C   UNK     0      39.608   7.484  -3.285  0.00  0.00     0.098 A 
HETATM   16  C   UNK     0      38.791   8.513  -3.754  0.00  0.00     0.040 A 
HETATM   17  C   UNK     0      37.639   8.212  -4.482  0.00  0.00     0.017 A 
BRANCH  14  18
HETATM   18  O   UNK     0      40.063   5.142  -3.089  0.00  0.00    -0.358 OA
HETATM   19  H   UNK     0      40.337   5.352  -2.181  0.00  0.00     0.217 HD
ENDBRANCH  14  18
BRANCH  15  20
HETATM   20  O   UNK     0      40.730   7.790  -2.576  0.00  0.00    -0.358 OA
HETATM   21  H   UNK     0      40.853   7.127  -1.876  0.00  0.00     0.217 HD
ENDBRANCH  15  20
ENDBRANCH   5  12
BRANCH   8  22
HETATM   22  O   UNK     0      32.260   5.114  -8.509  0.00  0.00    -0.360 OA
HETATM   23  H   UNK     0      31.358   4.760  -8.523  0.00  0.00     0.217 HD
ENDBRANCH   8  22
BRANCH  10  24
HETATM   24  O   UNK     0      30.326   8.232  -5.493  0.00  0.00    -0.361 OA
HETATM   25  H   UNK     0      29.864   7.695  -4.827  0.00  0.00     0.217 HD
ENDBRANCH  10  24
TORSDOF 5
ENDMDL
MODEL 4
REMARK VINA RESULT:      -8.1      1.549      6.910
REMARK  5 active torsions:
REMARK  status: ('A' for Active; 'I' for Inactive)
REMARK    1  A    between atoms: O_2  and  C_13 
REMARK    2  A    between atoms: O_4  and  C_16 
REMARK    3  A    between atoms: O_5  and  C_19 
REMARK    4  A    between atoms: O_6  and  C_21 
REMARK    5  A    between atoms: C_9  and  C_10 
ROOT
HETATM    1  O   UNK     0      32.740   7.940  -4.768  0.00  0.00    -0.309 OA
HETATM    2  O   UNK     0      28.921   7.433  -6.093  0.00  0.00    -0.287 OA
HETATM    3  C   UNK     0      30.385   8.510  -4.584  0.00  0.00     0.081 A 
HETATM    4  C   UNK     0      31.713   8.637  -4.181  0.00  0.00     0.095 A 
HETATM    5  C   UNK     0      32.439   7.066  -5.801  0.00  0.00     0.090 A 
HETATM    6  C   UNK     0      30.063   7.591  -5.687  0.00  0.00     0.190 A 
HETATM    7  C   UNK     0      31.203   6.862  -6.283  0.00  0.00     0.094 A 
HETATM    8  C   UNK     0      29.382   9.245  -3.950  0.00  0.00     0.085 A 
HETATM    9  C   UNK     0      32.046   9.502  -3.140  0.00  0.00     0.075 A 
HETATM   10  C   UNK     0      31.046  10.239  -2.504  0.00  0.00     0.071 A 
HETATM   11  C   UNK     0      29.717  10.110  -2.908  0.00  0.00     0.074 A 
ENDROOT
BRANCH   5  12
HETATM   12  C   UNK     0      33.615   6.374  -6.363  0.00  0.00     0.001 A 
HETATM   13  C   UNK     0      34.819   6.345  -5.655  0.00  0.00     0.053 A 
HETATM   14  C   UNK     0      35.930   5.691  -6.186  0.00  0.00     0.099 A 
HETATM   15  C   UNK     0      35.842   5.063  -7.428  0.00  0.00     0.098 A 
HETATM   16  C   UNK     0      34.642   5.090  -8.139  0.00  0.00     0.040 A 
HETATM   17  C   UNK     0      33.531   5.744  -7.608  0.00  0.00     0.017 A 
BRANCH  14  18
HETATM   18  O   UNK     0      37.097   5.673  -5.483  0.00  0.00    -0.358 OA
HETATM   19  H   UNK     0      37.429   4.759  -5.467  0.00  0.00     0.217 HD
ENDBRANCH  14  18
BRANCH  15  20
HETATM   20  O   UNK     0      36.920   4.420  -7.957  0.00  0.00    -0.358 OA
HETATM   21  H   UNK     0      37.664   4.487  -7.336  0.00  0.00     0.217 HD
ENDBRANCH  15  20
ENDBRANCH   5  12
BRANCH   8  22
HETATM   22  O   UNK     0      28.070   9.156  -4.308  0.00  0.00    -0.360 OA
HETATM   23  H   UNK     0      27.804   9.935  -4.821  0.00  0.00     0.217 HD
ENDBRANCH   8  22
BRANCH  10  24
HETATM   24  O   UNK     0      31.368  11.086  -1.487  0.00  0.00    -0.361 OA
HETATM   25  H   UNK     0      32.180  11.565  -1.720  0.00  0.00     0.217 HD
ENDBRANCH  10  24
TORSDOF 5
ENDMDL
MODEL 5
REMARK VINA RESULT:      -8.1      3.726      6.199
REMARK  5 active torsions:
REMARK  status: ('A' for Active; 'I' for Inactive)
REMARK    1  A    between atoms: O_2  and  C_13 
REMARK    2  A    between atoms: O_4  and  C_16 
REMARK    3  A    between atoms: O_5  and  C_19 
REMARK    4  A    between atoms: O_6  and  C_21 
REMARK    5  A    between atoms: C_9  and  C_10 
ROOT
HETATM    1  O   UNK     0      36.876   6.041  -4.904  0.00  0.00    -0.309 OA
HETATM    2  O   UNK     0      37.309  10.022  -4.152  0.00  0.00    -0.287 OA
HETATM    3  C   UNK     0      38.209   7.845  -3.971  0.00  0.00     0.081 A 
HETATM    4  C   UNK     0      37.998   6.498  -4.260  0.00  0.00     0.095 A 
HETATM    5  C   UNK     0      35.907   6.961  -5.274  0.00  0.00     0.090 A 
HETATM    6  C   UNK     0      37.187   8.825  -4.371  0.00  0.00     0.190 A 
HETATM    7  C   UNK     0      35.997   8.283  -5.058  0.00  0.00     0.094 A 
HETATM    8  C   UNK     0      39.372   8.252  -3.313  0.00  0.00     0.085 A 
HETATM    9  C   UNK     0      38.951   5.549  -3.893  0.00  0.00     0.075 A 
HETATM   10  C   UNK     0      40.115   5.952  -3.237  0.00  0.00     0.071 A 
HETATM   11  C   UNK     0      40.324   7.300  -2.947  0.00  0.00     0.074 A 
ENDROOT
BRANCH   5  12
HETATM   12  C   UNK     0      34.746   6.365  -5.964  0.00  0.00     0.001 A 
HETATM   13  C   UNK     0      34.735   6.256  -7.357  0.00  0.00     0.053 A 
HETATM   14  C   UNK     0      33.638   5.693  -8.008  0.00  0.00     0.099 A 
HETATM   15  C   UNK     0      32.547   5.235  -7.268  0.00  0.00     0.098 A 
HETATM   16  C   UNK     0      32.554   5.342  -5.878  0.00  0.00     0.040 A 
HETATM   17  C   UNK     0      33.651   5.906  -5.226  0.00  0.00     0.017 A 
BRANCH  14  18
HETATM   18  O   UNK     0      33.643   5.595  -9.367  0.00  0.00    -0.358 OA
HETATM   19  H   UNK     0      32.722   5.517  -9.671  0.00  0.00     0.217 HD
ENDBRANCH  14  18
BRANCH  15  20
HETATM   20  O   UNK     0      31.471   4.682  -7.893  0.00  0.00    -0.358 OA
HETATM   21  H   UNK     0      31.152   3.930  -7.367  0.00  0.00     0.217 HD
ENDBRANCH  15  20
ENDBRANCH   5  12
BRANCH   8  22
HETATM   22  O   UNK     0      39.624   9.556  -3.009  0.00  0.00    -0.360 OA
HETATM   23  H   UNK     0      39.316   9.761  -2.113  0.00  0.00     0.217 HD
ENDBRANCH   8  22
BRANCH  10  24
HETATM   24  O   UNK     0      41.048   5.027  -2.877  0.00  0.00    -0.361 OA
HETATM   25  H   UNK     0      41.057   4.315  -3.539  0.00  0.00     0.217 HD
ENDBRANCH  10  24
TORSDOF 5
ENDMDL
MODEL 6
REMARK VINA RESULT:      -7.9      1.140      3.024
REMARK  5 active torsions:
REMARK  status: ('A' for Active; 'I' for Inactive)
REMARK    1  A    between atoms: O_2  and  C_13 
REMARK    2  A    between atoms: O_4  and  C_16 
REMARK    3  A    between atoms: O_5  and  C_19 
REMARK    4  A    between atoms: O_6  and  C_21 
REMARK    5  A    between atoms: C_9  and  C_10 
ROOT
HETATM    1  O   UNK     0      31.997   6.895  -5.518  0.00  0.00    -0.309 OA
HETATM    2  O   UNK     0      35.179   7.367  -3.018  0.00  0.00    -0.287 OA
HETATM    3  C   UNK     0      34.361   6.548  -5.078  0.00  0.00     0.081 A 
HETATM    4  C   UNK     0      33.232   6.421  -5.884  0.00  0.00     0.095 A 
HETATM    5  C   UNK     0      31.869   7.520  -4.287  0.00  0.00     0.090 A 
HETATM    6  C   UNK     0      34.230   7.219  -3.775  0.00  0.00     0.190 A 
HETATM    7  C   UNK     0      32.881   7.708  -3.426  0.00  0.00     0.094 A 
HETATM    8  C   UNK     0      35.593   6.046  -5.503  0.00  0.00     0.085 A 
HETATM    9  C   UNK     0      33.328   5.791  -7.125  0.00  0.00     0.075 A 
HETATM   10  C   UNK     0      34.557   5.289  -7.553  0.00  0.00     0.071 A 
HETATM   11  C   UNK     0      35.687   5.416  -6.744  0.00  0.00     0.074 A 
ENDROOT
BRANCH   5  12
HETATM   12  C   UNK     0      30.502   7.996  -3.995  0.00  0.00     0.001 A 
HETATM   13  C   UNK     0      30.251   8.752  -2.848  0.00  0.00     0.053 A 
HETATM   14  C   UNK     0      28.960   9.201  -2.573  0.00  0.00     0.099 A 
HETATM   15  C   UNK     0      27.914   8.896  -3.444  0.00  0.00     0.098 A 
HETATM   16  C   UNK     0      28.160   8.141  -4.590  0.00  0.00     0.040 A 
HETATM   17  C   UNK     0      29.452   7.691  -4.866  0.00  0.00     0.017 A 
BRANCH  14  18
HETATM   18  O   UNK     0      28.731   9.937  -1.449  0.00  0.00    -0.358 OA
HETATM   19  H   UNK     0      29.138   9.478  -0.694  0.00  0.00     0.217 HD
ENDBRANCH  14  18
BRANCH  15  20
HETATM   20  O   UNK     0      26.650   9.330  -3.187  0.00  0.00    -0.358 OA
HETATM   21  H   UNK     0      26.062   9.038  -3.904  0.00  0.00     0.217 HD
ENDBRANCH  15  20
ENDBRANCH   5  12
BRANCH   8  22
HETATM   22  O   UNK     0      36.725   6.146  -4.752  0.00  0.00    -0.360 OA
HETATM   23  H   UNK     0      36.893   5.316  -4.279  0.00  0.00     0.217 HD
ENDBRANCH   8  22
BRANCH  10  24
HETATM   24  O   UNK     0      34.655   4.673  -8.764  0.00  0.00    -0.361 OA
HETATM   25  H   UNK     0      35.573   4.380  -8.896  0.00  0.00     0.217 HD
ENDBRANCH  10  24
TORSDOF 5
ENDMDL
MODEL 7
REMARK VINA RESULT:      -7.8      3.421      5.191
REMARK  5 active torsions:
REMARK  status: ('A' for Active; 'I' for Inactive)
REMARK    1  A    between atoms: O_2  and  C_13 
REMARK    2  A    between atoms: O_4  and  C_16 
REMARK    3  A    between atoms: O_5  and  C_19 
REMARK    4  A    between atoms: O_6  and  C_21 
REMARK    5  A    between atoms: C_9  and  C_10 
ROOT
HETATM    1  O   UNK     0      34.335   6.034  -4.147  0.00  0.00    -0.309 OA
HETATM    2  O   UNK     0      30.535   7.414  -4.648  0.00  0.00    -0.287 OA
HETATM    3  C   UNK     0      32.452   6.441  -5.627  0.00  0.00     0.081 A 
HETATM    4  C   UNK     0      33.747   5.985  -5.386  0.00  0.00     0.095 A 
HETATM    5  C   UNK     0      33.611   6.568  -3.092  0.00  0.00     0.090 A 
HETATM    6  C   UNK     0      31.677   6.999  -4.508  0.00  0.00     0.190 A 
HETATM    7  C   UNK     0      32.355   7.032  -3.197  0.00  0.00     0.094 A 
HETATM    8  C   UNK     0      31.905   6.365  -6.909  0.00  0.00     0.085 A 
HETATM    9  C   UNK     0      34.503   5.449  -6.428  0.00  0.00     0.075 A 
HETATM   10  C   UNK     0      33.959   5.372  -7.711  0.00  0.00     0.071 A 
HETATM   11  C   UNK     0      32.663   5.829  -7.950  0.00  0.00     0.074 A 
ENDROOT
BRANCH   5  12
HETATM   12  C   UNK     0      34.334   6.567  -1.806  0.00  0.00     0.001 A 
HETATM   13  C   UNK     0      33.629   6.649  -0.603  0.00  0.00     0.053 A 
HETATM   14  C   UNK     0      34.312   6.648   0.612  0.00  0.00     0.099 A 
HETATM   15  C   UNK     0      35.705   6.566   0.629  0.00  0.00     0.098 A 
HETATM   16  C   UNK     0      36.413   6.485  -0.569  0.00  0.00     0.040 A 
HETATM   17  C   UNK     0      35.729   6.485  -1.785  0.00  0.00     0.017 A 
BRANCH  14  18
HETATM   18  O   UNK     0      33.610   6.729   1.777  0.00  0.00    -0.358 OA
HETATM   19  H   UNK     0      33.040   5.945   1.846  0.00  0.00     0.217 HD
ENDBRANCH  14  18
BRANCH  15  20
HETATM   20  O   UNK     0      36.384   6.563   1.810  0.00  0.00    -0.358 OA
HETATM   21  H   UNK     0      35.927   7.147   2.439  0.00  0.00     0.217 HD
ENDBRANCH  15  20
ENDBRANCH   5  12
BRANCH   8  22
HETATM   22  O   UNK     0      30.645   6.797  -7.195  0.00  0.00    -0.360 OA
HETATM   23  H   UNK     0      30.016   6.059  -7.160  0.00  0.00     0.217 HD
ENDBRANCH   8  22
BRANCH  10  24
HETATM   24  O   UNK     0      34.695   4.849  -8.731  0.00  0.00    -0.361 OA
HETATM   25  H   UNK     0      34.103   4.648  -9.476  0.00  0.00     0.217 HD
ENDBRANCH  10  24
TORSDOF 5
ENDMDL
MODEL 8
REMARK VINA RESULT:      -7.7      3.705      6.446
REMARK  5 active torsions:
REMARK  status: ('A' for Active; 'I' for Inactive)
REMARK    1  A    between atoms: O_2  and  C_13 
REMARK    2  A    between atoms: O_4  and  C_16 
REMARK    3  A    between atoms: O_5  and  C_19 
REMARK    4  A    between atoms: O_6  and  C_21 
REMARK    5  A    between atoms: C_9  and  C_10 
ROOT
HETATM    1  O   UNK     0      36.160   8.134  -5.233  0.00  0.00    -0.309 OA
HETATM    2  O   UNK     0      39.064   5.674  -3.780  0.00  0.00    -0.287 OA
HETATM    3  C   UNK     0      38.278   7.882  -4.070  0.00  0.00     0.081 A 
HETATM    4  C   UNK     0      37.249   8.665  -4.590  0.00  0.00     0.095 A 
HETATM    5  C   UNK     0      36.086   6.756  -5.378  0.00  0.00     0.090 A 
HETATM    6  C   UNK     0      38.199   6.421  -4.214  0.00  0.00     0.190 A 
HETATM    7  C   UNK     0      37.009   5.898  -4.917  0.00  0.00     0.094 A 
HETATM    8  C   UNK     0      39.362   8.480  -3.424  0.00  0.00     0.085 A 
HETATM    9  C   UNK     0      37.298  10.054  -4.465  0.00  0.00     0.075 A 
HETATM   10  C   UNK     0      38.379  10.654  -3.820  0.00  0.00     0.071 A 
HETATM   11  C   UNK     0      39.409   9.869  -3.301  0.00  0.00     0.074 A 
ENDROOT
BRANCH   5  12
HETATM   12  C   UNK     0      34.873   6.291  -6.079  0.00  0.00     0.001 A 
HETATM   13  C   UNK     0      34.863   6.187  -7.472  0.00  0.00     0.053 A 
HETATM   14  C   UNK     0      33.717   5.747  -8.134  0.00  0.00     0.099 A 
HETATM   15  C   UNK     0      32.577   5.409  -7.405  0.00  0.00     0.098 A 
HETATM   16  C   UNK     0      32.583   5.511  -6.014  0.00  0.00     0.040 A 
HETATM   17  C   UNK     0      33.729   5.951  -5.352  0.00  0.00     0.017 A 
BRANCH  14  18
HETATM   18  O   UNK     0      33.722   5.652  -9.494  0.00  0.00    -0.358 OA
HETATM   19  H   UNK     0      34.646   5.614  -9.794  0.00  0.00     0.217 HD
ENDBRANCH  14  18
BRANCH  15  20
HETATM   20  O   UNK     0      31.452   4.977  -8.040  0.00  0.00    -0.358 OA
HETATM   21  H   UNK     0      31.125   4.176  -7.596  0.00  0.00     0.217 HD
ENDBRANCH  15  20
ENDBRANCH   5  12
BRANCH   8  22
HETATM   22  O   UNK     0      40.392   7.758  -2.900  0.00  0.00    -0.360 OA
HETATM   23  H   UNK     0      40.191   7.491  -1.990  0.00  0.00     0.217 HD
ENDBRANCH   8  22
BRANCH  10  24
HETATM   24  O   UNK     0      38.430  12.010  -3.697  0.00  0.00    -0.361 OA
HETATM   25  H   UNK     0      39.342  12.273  -3.485  0.00  0.00     0.217 HD
ENDBRANCH  10  24
TORSDOF 5
ENDMDL
MODEL 9
REMARK VINA RESULT:      -7.6      2.057      6.994
REMARK  5 active torsions:
REMARK  status: ('A' for Active; 'I' for Inactive)
REMARK    1  A    between atoms: O_2  and  C_13 
REMARK    2  A    between atoms: O_4  and  C_16 
REMARK    3  A    between atoms: O_5  and  C_19 
REMARK    4  A    between atoms: O_6  and  C_21 
REMARK    5  A    between atoms: C_9  and  C_10 
ROOT
HETATM    1  O   UNK     0      32.557   8.826  -4.974  0.00  0.00    -0.309 OA
HETATM    2  O   UNK     0      29.645   6.998  -2.788  0.00  0.00    -0.287 OA
HETATM    3  C   UNK     0      30.662   9.020  -3.466  0.00  0.00     0.081 A 
HETATM    4  C   UNK     0      31.680   9.580  -4.236  0.00  0.00     0.095 A 
HETATM    5  C   UNK     0      32.429   7.446  -4.943  0.00  0.00     0.090 A 
HETATM    6  C   UNK     0      30.517   7.556  -3.439  0.00  0.00     0.190 A 
HETATM    7  C   UNK     0      31.487   6.789  -4.247  0.00  0.00     0.094 A 
HETATM    8  C   UNK     0      29.798   9.838  -2.736  0.00  0.00     0.085 A 
HETATM    9  C   UNK     0      31.839  10.965  -4.281  0.00  0.00     0.075 A 
HETATM   10  C   UNK     0      30.976  11.786  -3.553  0.00  0.00     0.071 A 
HETATM   11  C   UNK     0      29.959  11.223  -2.782  0.00  0.00     0.074 A 
ENDROOT
BRANCH   5  12
HETATM   12  C   UNK     0      33.418   6.733  -5.775  0.00  0.00     0.001 A 
HETATM   13  C   UNK     0      33.154   6.485  -7.124  0.00  0.00     0.053 A 
HETATM   14  C   UNK     0      34.089   5.812  -7.909  0.00  0.00     0.099 A 
HETATM   15  C   UNK     0      35.292   5.383  -7.348  0.00  0.00     0.098 A 
HETATM   16  C   UNK     0      35.559   5.627  -6.002  0.00  0.00     0.040 A 
HETATM   17  C   UNK     0      34.624   6.301  -5.216  0.00  0.00     0.017 A 
BRANCH  14  18
HETATM   18  O   UNK     0      33.817   5.577  -9.224  0.00  0.00    -0.358 OA
HETATM   19  H   UNK     0      34.649   5.638  -9.724  0.00  0.00     0.217 HD
ENDBRANCH  14  18
BRANCH  15  20
HETATM   20  O   UNK     0      36.213   4.724  -8.105  0.00  0.00    -0.358 OA
HETATM   21  H   UNK     0      35.878   4.646  -9.014  0.00  0.00     0.217 HD
ENDBRANCH  15  20
ENDBRANCH   5  12
BRANCH   8  22
HETATM   22  O   UNK     0      28.788   9.339  -1.969  0.00  0.00    -0.360 OA
HETATM   23  H   UNK     0      27.934   9.460  -2.411  0.00  0.00     0.217 HD
ENDBRANCH   8  22
BRANCH  10  24
HETATM   24  O   UNK     0      31.128  13.139  -3.594  0.00  0.00    -0.361 OA
HETATM   25  H   UNK     0      31.815  13.359  -4.247  0.00  0.00     0.217 HD
ENDBRANCH  10  24
TORSDOF 5
ENDMDL
