MODEL 1
REMARK VINA RESULT:      -7.5      0.000      0.000
REMARK  Name = 9823887
REMARK                            x       y       z     vdW  Elec       q    Type
REMARK                         _______ _______ _______ _____ _____    ______ ____
ROOT
ATOM      1  O   LIG    1        8.452  43.066  23.329  0.00  0.00    -0.341 OA
ATOM      2  C   LIG    1        9.644  42.953  24.103  0.00  0.00    +0.282 C 
ATOM      3  C   LIG    1       10.356  44.303  24.192  0.00  0.00    +0.201 C 
ATOM      4  C   LIG    1        9.417  45.394  24.707  0.00  0.00    +0.179 C 
ATOM      5  C   LIG    1        8.086  45.379  23.957  0.00  0.00    +0.177 C 
ATOM     22  C   LIG    1        7.505  43.964  23.909  0.00  0.00    +0.178 C 
ENDROOT
BRANCH   5   6
ATOM      6  O   LIG    1        7.165  46.246  24.613  0.00  0.00    -0.386 OA
ATOM      7  H   LIG    1        7.660  46.774  25.262  0.00  0.00    +0.210 HD
ENDBRANCH   5   6
BRANCH   4   8
ATOM      8  O   LIG    1       10.021  46.673  24.510  0.00  0.00    -0.386 OA
ATOM      9  H   LIG    1       10.974  46.528  24.382  0.00  0.00    +0.210 HD
ENDBRANCH   4   8
BRANCH   3  10
ATOM     10  O   LIG    1       11.461  44.168  25.085  0.00  0.00    -0.384 OA
ATOM     11  H   LIG    1       12.132  43.615  24.652  0.00  0.00    +0.210 HD
ENDBRANCH   3  10
BRANCH   2  12
ATOM     12  O   LIG    1       10.534  42.026  23.484  0.00  0.00    -0.345 OA
BRANCH  12  13
ATOM     13  C   LIG    1       10.031  41.581  22.235  0.00  0.00    +0.190 C 
BRANCH  13  14
ATOM     14  C   LIG    1       10.891  42.134  21.144  0.00  0.00    +0.001 C 
ATOM     15  C   LIG    1       10.535  43.182  20.385  0.00  0.00    +0.006 C 
BRANCH  15  16
ATOM     16  C   LIG    1       11.354  43.770  19.311  0.00  0.00    -0.025 A 
ATOM     17  C   LIG    1       12.715  43.514  19.278  0.00  0.00    +0.008 A 
ATOM     18  C   LIG    1       13.490  44.071  18.261  0.00  0.00    +0.001 A 
ATOM     19  C   LIG    1       12.894  44.877  17.291  0.00  0.00    +0.000 A 
ATOM     20  C   LIG    1       11.523  45.126  17.337  0.00  0.00    +0.001 A 
ATOM     21  C   LIG    1       10.748  44.569  18.355  0.00  0.00    +0.008 A 
ENDBRANCH  15  16
ENDBRANCH  13  14
ENDBRANCH  12  13
ENDBRANCH   2  12
BRANCH  22  23
ATOM     23  C   LIG    1        6.235  43.902  23.066  0.00  0.00    +0.197 C 
BRANCH  23  24
ATOM     24  O   LIG    1        6.232  45.003  22.174  0.00  0.00    -0.346 OA
BRANCH  24  25
ATOM     25  C   LIG    1        6.340  44.584  20.818  0.00  0.00    +0.281 C 
ATOM     26  C   LIG    1        5.233  45.241  19.979  0.00  0.00    +0.201 C 
ATOM     27  C   LIG    1        5.510  46.725  19.719  0.00  0.00    +0.178 C 
ATOM     28  C   LIG    1        6.941  46.912  19.211  0.00  0.00    +0.171 C 
ATOM     29  C   LIG    1        7.936  46.236  20.145  0.00  0.00    +0.197 C 
ATOM     36  O   LIG    1        7.639  44.848  20.276  0.00  0.00    -0.346 OA
BRANCH  28  30
ATOM     30  O   LIG    1        7.233  48.298  19.093  0.00  0.00    -0.387 OA
ATOM     31  H   LIG    1        6.564  48.691  18.507  0.00  0.00    +0.210 HD
ENDBRANCH  28  30
BRANCH  27  32
ATOM     32  O   LIG    1        5.340  47.462  20.929  0.00  0.00    -0.386 OA
ATOM     33  H   LIG    1        5.743  46.943  21.647  0.00  0.00    +0.210 HD
ENDBRANCH  27  32
BRANCH  26  34
ATOM     34  O   LIG    1        5.155  44.550  18.734  0.00  0.00    -0.384 OA
ATOM     35  H   LIG    1        5.630  43.707  18.820  0.00  0.00    +0.210 HD
ENDBRANCH  26  34
ENDBRANCH  24  25
ENDBRANCH  23  24
ENDBRANCH  22  23
TORSDOF 13
ENDMDL
MODEL 2
REMARK VINA RESULT:      -7.3      2.803      7.688
REMARK  Name = 9823887
REMARK                            x       y       z     vdW  Elec       q    Type
REMARK                         _______ _______ _______ _____ _____    ______ ____
ROOT
ATOM      1  O   LIG    1        7.407  43.425  20.037  0.00  0.00    -0.341 OA
ATOM      2  C   LIG    1        6.298  43.898  19.276  0.00  0.00    +0.282 C 
ATOM      3  C   LIG    1        6.242  45.426  19.306  0.00  0.00    +0.201 C 
ATOM      4  C   LIG    1        7.569  46.041  18.863  0.00  0.00    +0.179 C 
ATOM      5  C   LIG    1        8.748  45.394  19.589  0.00  0.00    +0.177 C 
ATOM     22  C   LIG    1        8.661  43.867  19.514  0.00  0.00    +0.178 C 
ENDROOT
BRANCH   5   6
ATOM      6  O   LIG    1        9.966  45.826  18.988  0.00  0.00    -0.386 OA
ATOM      7  H   LIG    1       10.458  46.346  19.648  0.00  0.00    +0.210 HD
ENDBRANCH   5   6
BRANCH   4   8
ATOM      8  O   LIG    1        7.573  47.436  19.171  0.00  0.00    -0.386 OA
ATOM      9  H   LIG    1        8.501  47.711  19.264  0.00  0.00    +0.210 HD
ENDBRANCH   4   8
BRANCH   3  10
ATOM     10  O   LIG    1        5.204  45.852  18.423  0.00  0.00    -0.384 OA
ATOM     11  H   LIG    1        5.535  45.781  17.512  0.00  0.00    +0.210 HD
ENDBRANCH   3  10
BRANCH   2  12
ATOM     12  O   LIG    1        5.083  43.401  19.834  0.00  0.00    -0.345 OA
BRANCH  12  13
ATOM     13  C   LIG    1        4.904  43.853  21.167  0.00  0.00    +0.190 C 
BRANCH  13  14
ATOM     14  C   LIG    1        4.331  42.737  21.980  0.00  0.00    +0.001 C 
ATOM     15  C   LIG    1        3.515  42.932  23.027  0.00  0.00    +0.006 C 
BRANCH  15  16
ATOM     16  C   LIG    1        2.916  41.865  23.848  0.00  0.00    -0.025 A 
ATOM     17  C   LIG    1        2.119  40.907  23.241  0.00  0.00    +0.008 A 
ATOM     18  C   LIG    1        1.553  39.898  24.018  0.00  0.00    +0.001 A 
ATOM     19  C   LIG    1        1.790  39.858  25.392  0.00  0.00    +0.000 A 
ATOM     20  C   LIG    1        2.594  40.829  25.989  0.00  0.00    +0.001 A 
ATOM     21  C   LIG    1        3.160  41.839  25.212  0.00  0.00    +0.008 A 
ENDBRANCH  15  16
ENDBRANCH  13  14
ENDBRANCH  12  13
ENDBRANCH   2  12
BRANCH  22  23
ATOM     23  C   LIG    1        9.763  43.198  20.330  0.00  0.00    +0.197 C 
BRANCH  23  24
ATOM     24  O   LIG    1       10.238  44.123  21.290  0.00  0.00    -0.346 OA
BRANCH  24  25
ATOM     25  C   LIG    1       10.352  43.534  22.581  0.00  0.00    +0.281 C 
ATOM     26  C   LIG    1       11.033  44.516  23.546  0.00  0.00    +0.201 C 
ATOM     27  C   LIG    1       10.098  45.656  23.964  0.00  0.00    +0.178 C 
ATOM     28  C   LIG    1        8.751  45.092  24.418  0.00  0.00    +0.171 C 
ATOM     29  C   LIG    1        8.177  44.157  23.361  0.00  0.00    +0.197 C 
ATOM     36  O   LIG    1        9.085  43.094  23.084  0.00  0.00    -0.346 OA
BRANCH  28  30
ATOM     30  O   LIG    1        7.847  46.156  24.682  0.00  0.00    -0.387 OA
ATOM     31  H   LIG    1        6.980  45.901  24.322  0.00  0.00    +0.210 HD
ENDBRANCH  28  30
BRANCH  27  32
ATOM     32  O   LIG    1        9.893  46.534  22.859  0.00  0.00    -0.386 OA
ATOM     33  H   LIG    1       10.158  47.427  23.141  0.00  0.00    +0.210 HD
ENDBRANCH  27  32
BRANCH  26  34
ATOM     34  O   LIG    1       11.437  43.788  24.704  0.00  0.00    -0.384 OA
ATOM     35  H   LIG    1       11.487  44.404  25.453  0.00  0.00    +0.210 HD
ENDBRANCH  26  34
ENDBRANCH  24  25
ENDBRANCH  23  24
ENDBRANCH  22  23
TORSDOF 13
ENDMDL
MODEL 3
REMARK VINA RESULT:      -7.3      3.010      5.175
REMARK  Name = 9823887
REMARK                            x       y       z     vdW  Elec       q    Type
REMARK                         _______ _______ _______ _____ _____    ______ ____
ROOT
ATOM      1  O   LIG    1        8.009  43.766  19.859  0.00  0.00    -0.341 OA
ATOM      2  C   LIG    1        8.774  44.703  20.613  0.00  0.00    +0.282 C 
ATOM      3  C   LIG    1        8.791  46.064  19.916  0.00  0.00    +0.201 C 
ATOM      4  C   LIG    1        7.375  46.557  19.621  0.00  0.00    +0.179 C 
ATOM      5  C   LIG    1        6.536  45.466  18.955  0.00  0.00    +0.177 C 
ATOM     22  C   LIG    1        6.639  44.151  19.732  0.00  0.00    +0.178 C 
ENDROOT
BRANCH   5   6
ATOM      6  O   LIG    1        5.174  45.881  18.908  0.00  0.00    -0.386 OA
ATOM      7  H   LIG    1        5.119  46.775  19.288  0.00  0.00    +0.210 HD
ENDBRANCH   5   6
BRANCH   4   8
ATOM      8  O   LIG    1        7.435  47.673  18.731  0.00  0.00    -0.386 OA
ATOM      9  H   LIG    1        6.549  47.785  18.345  0.00  0.00    +0.210 HD
ENDBRANCH   4   8
BRANCH   3  10
ATOM     10  O   LIG    1        9.449  46.997  20.772  0.00  0.00    -0.384 OA
ATOM     11  H   LIG    1       10.316  46.627  21.011  0.00  0.00    +0.210 HD
ENDBRANCH   3  10
BRANCH   2  12
ATOM     12  O   LIG    1       10.121  44.248  20.724  0.00  0.00    -0.345 OA
BRANCH  12  13
ATOM     13  C   LIG    1       10.426  43.288  19.725  0.00  0.00    +0.190 C 
BRANCH  13  14
ATOM     14  C   LIG    1       11.812  42.777  19.955  0.00  0.00    +0.001 C 
ATOM     15  C   LIG    1       12.199  42.184  21.095  0.00  0.00    +0.006 C 
BRANCH  15  16
ATOM     16  C   LIG    1       13.547  41.653  21.361  0.00  0.00    -0.025 A 
ATOM     17  C   LIG    1       13.712  40.672  22.326  0.00  0.00    +0.008 A 
ATOM     18  C   LIG    1       14.989  40.170  22.577  0.00  0.00    +0.001 A 
ATOM     19  C   LIG    1       16.083  40.654  21.861  0.00  0.00    +0.000 A 
ATOM     20  C   LIG    1       15.902  41.642  20.893  0.00  0.00    +0.001 A 
ATOM     21  C   LIG    1       14.625  42.144  20.642  0.00  0.00    +0.008 A 
ENDBRANCH  15  16
ENDBRANCH  13  14
ENDBRANCH  12  13
ENDBRANCH   2  12
BRANCH  22  23
ATOM     23  C   LIG    1        5.905  43.017  19.023  0.00  0.00    +0.197 C 
BRANCH  23  24
ATOM     24  O   LIG    1        4.652  42.828  19.655  0.00  0.00    -0.346 OA
BRANCH  24  25
ATOM     25  C   LIG    1        4.708  43.138  21.043  0.00  0.00    +0.281 C 
ATOM     26  C   LIG    1        3.412  43.843  21.474  0.00  0.00    +0.201 C 
ATOM     27  C   LIG    1        2.231  42.872  21.566  0.00  0.00    +0.178 C 
ATOM     28  C   LIG    1        2.626  41.637  22.377  0.00  0.00    +0.171 C 
ATOM     29  C   LIG    1        3.909  41.023  21.830  0.00  0.00    +0.197 C 
ATOM     36  O   LIG    1        4.967  41.978  21.842  0.00  0.00    -0.346 OA
BRANCH  28  30
ATOM     30  O   LIG    1        1.571  40.685  22.352  0.00  0.00    -0.387 OA
ATOM     31  H   LIG    1        1.205  40.676  21.451  0.00  0.00    +0.210 HD
ENDBRANCH  28  30
BRANCH  27  32
ATOM     32  O   LIG    1        1.840  42.469  20.254  0.00  0.00    -0.386 OA
ATOM     33  H   LIG    1        2.651  42.342  19.733  0.00  0.00    +0.210 HD
ENDBRANCH  27  32
BRANCH  26  34
ATOM     34  O   LIG    1        3.637  44.436  22.751  0.00  0.00    -0.384 OA
ATOM     35  H   LIG    1        4.073  45.294  22.619  0.00  0.00    +0.210 HD
ENDBRANCH  26  34
ENDBRANCH  24  25
ENDBRANCH  23  24
ENDBRANCH  22  23
TORSDOF 13
ENDMDL
MODEL 4
REMARK VINA RESULT:      -7.3      3.115      7.989
REMARK  Name = 9823887
REMARK                            x       y       z     vdW  Elec       q    Type
REMARK                         _______ _______ _______ _____ _____    ______ ____
ROOT
ATOM      1  O   LIG    1        7.032  44.150  21.154  0.00  0.00    -0.341 OA
ATOM      2  C   LIG    1        6.138  44.313  20.055  0.00  0.00    +0.282 C 
ATOM      3  C   LIG    1        6.101  45.775  19.608  0.00  0.00    +0.201 C 
ATOM      4  C   LIG    1        7.504  46.303  19.313  0.00  0.00    +0.179 C 
ATOM      5  C   LIG    1        8.471  45.968  20.448  0.00  0.00    +0.177 C 
ATOM     22  C   LIG    1        8.379  44.486  20.820  0.00  0.00    +0.178 C 
ENDROOT
BRANCH   5   6
ATOM      6  O   LIG    1        9.803  46.269  20.037  0.00  0.00    -0.386 OA
ATOM      7  H   LIG    1       10.101  45.560  19.442  0.00  0.00    +0.210 HD
ENDBRANCH   5   6
BRANCH   4   8
ATOM      8  O   LIG    1        7.458  47.725  19.178  0.00  0.00    -0.386 OA
ATOM      9  H   LIG    1        6.662  47.943  18.664  0.00  0.00    +0.210 HD
ENDBRANCH   4   8
BRANCH   3  10
ATOM     10  O   LIG    1        5.304  45.861  18.427  0.00  0.00    -0.384 OA
ATOM     11  H   LIG    1        5.810  45.473  17.693  0.00  0.00    +0.210 HD
ENDBRANCH   3  10
BRANCH   2  12
ATOM     12  O   LIG    1        4.819  43.937  20.446  0.00  0.00    -0.345 OA
BRANCH  12  13
ATOM     13  C   LIG    1        4.327  44.778  21.477  0.00  0.00    +0.190 C 
BRANCH  13  14
ATOM     14  C   LIG    1        4.002  43.937  22.670  0.00  0.00    +0.001 C 
ATOM     15  C   LIG    1        3.224  42.845  22.612  0.00  0.00    +0.006 C 
BRANCH  15  16
ATOM     16  C   LIG    1        2.890  41.979  23.756  0.00  0.00    -0.025 A 
ATOM     17  C   LIG    1        2.080  40.873  23.556  0.00  0.00    +0.008 A 
ATOM     18  C   LIG    1        1.763  40.054  24.639  0.00  0.00    +0.001 A 
ATOM     19  C   LIG    1        2.259  40.352  25.908  0.00  0.00    +0.000 A 
ATOM     20  C   LIG    1        3.073  41.469  26.094  0.00  0.00    +0.001 A 
ATOM     21  C   LIG    1        3.390  42.288  25.011  0.00  0.00    +0.008 A 
ENDBRANCH  15  16
ENDBRANCH  13  14
ENDBRANCH  12  13
ENDBRANCH   2  12
BRANCH  22  23
ATOM     23  C   LIG    1        9.251  44.151  22.027  0.00  0.00    +0.197 C 
BRANCH  23  24
ATOM     24  O   LIG    1       10.605  44.129  21.613  0.00  0.00    -0.346 OA
BRANCH  24  25
ATOM     25  C   LIG    1       11.292  42.989  22.116  0.00  0.00    +0.281 C 
ATOM     26  C   LIG    1       11.409  41.921  21.017  0.00  0.00    +0.201 C 
ATOM     27  C   LIG    1       12.453  42.294  19.960  0.00  0.00    +0.178 C 
ATOM     28  C   LIG    1       13.761  42.710  20.636  0.00  0.00    +0.171 C 
ATOM     29  C   LIG    1       13.506  43.787  21.682  0.00  0.00    +0.197 C 
ATOM     36  O   LIG    1       12.573  43.329  22.658  0.00  0.00    -0.346 OA
BRANCH  28  30
ATOM     30  O   LIG    1       14.682  43.175  19.659  0.00  0.00    -0.387 OA
ATOM     31  H   LIG    1       15.165  43.926  20.045  0.00  0.00    +0.210 HD
ENDBRANCH  28  30
BRANCH  27  32
ATOM     32  O   LIG    1       11.967  43.377  19.169  0.00  0.00    -0.386 OA
ATOM     33  H   LIG    1       10.995  43.347  19.198  0.00  0.00    +0.210 HD
ENDBRANCH  27  32
BRANCH  26  34
ATOM     34  O   LIG    1       11.780  40.691  21.635  0.00  0.00    -0.384 OA
ATOM     35  H   LIG    1       10.971  40.222  21.898  0.00  0.00    +0.210 HD
ENDBRANCH  26  34
ENDBRANCH  24  25
ENDBRANCH  23  24
ENDBRANCH  22  23
TORSDOF 13
ENDMDL
MODEL 5
REMARK VINA RESULT:      -7.1      2.996      5.254
REMARK  Name = 9823887
REMARK                            x       y       z     vdW  Elec       q    Type
REMARK                         _______ _______ _______ _____ _____    ______ ____
ROOT
ATOM      1  O   LIG    1        6.316  44.450  20.556  0.00  0.00    -0.341 OA
ATOM      2  C   LIG    1        7.709  44.701  20.391  0.00  0.00    +0.282 C 
ATOM      3  C   LIG    1        7.932  45.856  19.413  0.00  0.00    +0.201 C 
ATOM      4  C   LIG    1        7.151  47.100  19.833  0.00  0.00    +0.179 C 
ATOM      5  C   LIG    1        5.697  46.759  20.156  0.00  0.00    +0.177 C 
ATOM     22  C   LIG    1        5.619  45.566  21.112  0.00  0.00    +0.178 C 
ENDROOT
BRANCH   5   6
ATOM      6  O   LIG    1        5.070  47.888  20.759  0.00  0.00    -0.386 OA
ATOM      7  H   LIG    1        4.343  48.173  20.178  0.00  0.00    +0.210 HD
ENDBRANCH   5   6
BRANCH   4   8
ATOM      8  O   LIG    1        7.155  48.048  18.764  0.00  0.00    -0.386 OA
ATOM      9  H   LIG    1        6.326  47.931  18.269  0.00  0.00    +0.210 HD
ENDBRANCH   4   8
BRANCH   3  10
ATOM     10  O   LIG    1        9.327  46.157  19.387  0.00  0.00    -0.384 OA
ATOM     11  H   LIG    1        9.697  45.798  18.563  0.00  0.00    +0.210 HD
ENDBRANCH   3  10
BRANCH   2  12
ATOM     12  O   LIG    1        8.349  43.543  19.858  0.00  0.00    -0.345 OA
BRANCH  12  13
ATOM     13  C   LIG    1        8.949  42.767  20.883  0.00  0.00    +0.190 C 
BRANCH  13  14
ATOM     14  C   LIG    1       10.135  43.506  21.414  0.00  0.00    +0.001 C 
ATOM     15  C   LIG    1       11.355  42.959  21.526  0.00  0.00    +0.006 C 
BRANCH  15  16
ATOM     16  C   LIG    1       12.554  43.651  22.029  0.00  0.00    -0.025 A 
ATOM     17  C   LIG    1       12.430  44.554  23.073  0.00  0.00    +0.008 A 
ATOM     18  C   LIG    1       13.565  45.208  23.549  0.00  0.00    +0.001 A 
ATOM     19  C   LIG    1       14.810  44.954  22.974  0.00  0.00    +0.000 A 
ATOM     20  C   LIG    1       14.921  44.044  21.923  0.00  0.00    +0.001 A 
ATOM     21  C   LIG    1       13.785  43.388  21.448  0.00  0.00    +0.008 A 
ENDBRANCH  15  16
ENDBRANCH  13  14
ENDBRANCH  12  13
ENDBRANCH   2  12
BRANCH  22  23
ATOM     23  C   LIG    1        4.176  45.132  21.358  0.00  0.00    +0.197 C 
BRANCH  23  24
ATOM     24  O   LIG    1        4.098  43.726  21.215  0.00  0.00    -0.346 OA
BRANCH  24  25
ATOM     25  C   LIG    1        4.357  43.055  22.443  0.00  0.00    +0.281 C 
ATOM     26  C   LIG    1        3.084  43.029  23.303  0.00  0.00    +0.201 C 
ATOM     27  C   LIG    1        2.053  42.025  22.777  0.00  0.00    +0.178 C 
ATOM     28  C   LIG    1        2.719  40.672  22.521  0.00  0.00    +0.171 C 
ATOM     29  C   LIG    1        3.949  40.838  21.638  0.00  0.00    +0.197 C 
ATOM     36  O   LIG    1        4.879  41.738  22.236  0.00  0.00    -0.346 OA
BRANCH  28  30
ATOM     30  O   LIG    1        1.790  39.784  21.915  0.00  0.00    -0.387 OA
ATOM     31  H   LIG    1        0.956  40.269  21.793  0.00  0.00    +0.210 HD
ENDBRANCH  28  30
BRANCH  27  32
ATOM     32  O   LIG    1        1.490  42.511  21.560  0.00  0.00    -0.386 OA
ATOM     33  H   LIG    1        0.671  42.013  21.396  0.00  0.00    +0.210 HD
ENDBRANCH  27  32
BRANCH  26  34
ATOM     34  O   LIG    1        3.457  42.671  24.632  0.00  0.00    -0.384 OA
ATOM     35  H   LIG    1        3.678  43.482  25.119  0.00  0.00    +0.210 HD
ENDBRANCH  26  34
ENDBRANCH  24  25
ENDBRANCH  23  24
ENDBRANCH  22  23
TORSDOF 13
ENDMDL
MODEL 6
REMARK VINA RESULT:      -7.1      2.981      7.910
REMARK  Name = 9823887
REMARK                            x       y       z     vdW  Elec       q    Type
REMARK                         _______ _______ _______ _____ _____    ______ ____
ROOT
ATOM      1  O   LIG    1        6.656  44.722  21.522  0.00  0.00    -0.341 OA
ATOM      2  C   LIG    1        5.839  44.692  20.353  0.00  0.00    +0.282 C 
ATOM      3  C   LIG    1        5.893  46.036  19.627  0.00  0.00    +0.201 C 
ATOM      4  C   LIG    1        7.333  46.453  19.332  0.00  0.00    +0.179 C 
ATOM      5  C   LIG    1        8.214  46.320  20.573  0.00  0.00    +0.177 C 
ATOM     22  C   LIG    1        8.035  44.944  21.221  0.00  0.00    +0.178 C 
ENDROOT
BRANCH   5   6
ATOM      6  O   LIG    1        9.579  46.493  20.204  0.00  0.00    -0.386 OA
ATOM      7  H   LIG    1        9.658  46.308  19.252  0.00  0.00    +0.210 HD
ENDBRANCH   5   6
BRANCH   4   8
ATOM      8  O   LIG    1        7.357  47.820  18.918  0.00  0.00    -0.386 OA
ATOM      9  H   LIG    1        7.375  47.829  17.946  0.00  0.00    +0.210 HD
ENDBRANCH   4   8
BRANCH   3  10
ATOM     10  O   LIG    1        5.174  45.911  18.401  0.00  0.00    -0.384 OA
ATOM     11  H   LIG    1        4.640  46.714  18.280  0.00  0.00    +0.210 HD
ENDBRANCH   3  10
BRANCH   2  12
ATOM     12  O   LIG    1        4.484  44.442  20.719  0.00  0.00    -0.345 OA
BRANCH  12  13
ATOM     13  C   LIG    1        4.078  43.136  20.339  0.00  0.00    +0.190 C 
BRANCH  13  14
ATOM     14  C   LIG    1        3.888  42.313  21.572  0.00  0.00    +0.001 C 
ATOM     15  C   LIG    1        2.902  42.526  22.456  0.00  0.00    +0.006 C 
BRANCH  15  16
ATOM     16  C   LIG    1        2.668  41.732  23.675  0.00  0.00    -0.025 A 
ATOM     17  C   LIG    1        3.235  42.141  24.872  0.00  0.00    +0.008 A 
ATOM     18  C   LIG    1        3.013  41.390  26.025  0.00  0.00    +0.001 A 
ATOM     19  C   LIG    1        2.228  40.239  25.968  0.00  0.00    +0.000 A 
ATOM     20  C   LIG    1        1.663  39.839  24.757  0.00  0.00    +0.001 A 
ATOM     21  C   LIG    1        1.885  40.591  23.603  0.00  0.00    +0.008 A 
ENDBRANCH  15  16
ENDBRANCH  13  14
ENDBRANCH  12  13
ENDBRANCH   2  12
BRANCH  22  23
ATOM     23  C   LIG    1        8.815  44.829  22.528  0.00  0.00    +0.197 C 
BRANCH  23  24
ATOM     24  O   LIG    1        9.037  43.457  22.800  0.00  0.00    -0.346 OA
BRANCH  24  25
ATOM     25  C   LIG    1        9.390  43.240  24.162  0.00  0.00    +0.281 C 
ATOM     26  C   LIG    1        8.263  43.737  25.080  0.00  0.00    +0.201 C 
ATOM     27  C   LIG    1        7.053  42.797  25.068  0.00  0.00    +0.178 C 
ATOM     28  C   LIG    1        7.507  41.352  25.281  0.00  0.00    +0.171 C 
ATOM     29  C   LIG    1        8.605  40.982  24.293  0.00  0.00    +0.197 C 
ATOM     36  O   LIG    1        9.715  41.869  24.420  0.00  0.00    -0.346 OA
BRANCH  28  30
ATOM     30  O   LIG    1        6.399  40.473  25.142  0.00  0.00    -0.387 OA
ATOM     31  H   LIG    1        5.653  40.993  24.797  0.00  0.00    +0.210 HD
ENDBRANCH  28  30
BRANCH  27  32
ATOM     32  O   LIG    1        6.381  42.899  23.813  0.00  0.00    -0.386 OA
ATOM     33  H   LIG    1        6.764  43.656  23.337  0.00  0.00    +0.210 HD
ENDBRANCH  27  32
BRANCH  26  34
ATOM     34  O   LIG    1        8.780  43.824  26.406  0.00  0.00    -0.384 OA
ATOM     35  H   LIG    1        9.568  44.392  26.392  0.00  0.00    +0.210 HD
ENDBRANCH  26  34
ENDBRANCH  24  25
ENDBRANCH  23  24
ENDBRANCH  22  23
TORSDOF 13
ENDMDL
MODEL 7
REMARK VINA RESULT:      -7.1      2.868      8.014
REMARK  Name = 9823887
REMARK                            x       y       z     vdW  Elec       q    Type
REMARK                         _______ _______ _______ _____ _____    ______ ____
ROOT
ATOM      1  O   LIG    1        6.432  44.529  21.508  0.00  0.00    -0.341 OA
ATOM      2  C   LIG    1        5.989  44.207  20.192  0.00  0.00    +0.282 C 
ATOM      3  C   LIG    1        6.025  45.445  19.296  0.00  0.00    +0.201 C 
ATOM      4  C   LIG    1        7.404  46.103  19.312  0.00  0.00    +0.179 C 
ATOM      5  C   LIG    1        7.914  46.287  20.741  0.00  0.00    +0.177 C 
ATOM     22  C   LIG    1        7.785  44.985  21.535  0.00  0.00    +0.178 C 
ENDROOT
BRANCH   5   6
ATOM      6  O   LIG    1        9.282  46.685  20.707  0.00  0.00    -0.386 OA
ATOM      7  H   LIG    1        9.607  46.721  21.623  0.00  0.00    +0.210 HD
ENDBRANCH   5   6
BRANCH   4   8
ATOM      8  O   LIG    1        7.323  47.393  18.703  0.00  0.00    -0.386 OA
ATOM      9  H   LIG    1        7.819  47.352  17.868  0.00  0.00    +0.210 HD
ENDBRANCH   4   8
BRANCH   3  10
ATOM     10  O   LIG    1        5.707  45.043  17.964  0.00  0.00    -0.384 OA
ATOM     11  H   LIG    1        4.768  45.241  17.806  0.00  0.00    +0.210 HD
ENDBRANCH   3  10
BRANCH   2  12
ATOM     12  O   LIG    1        4.643  43.735  20.238  0.00  0.00    -0.345 OA
BRANCH  12  13
ATOM     13  C   LIG    1        3.886  44.427  21.218  0.00  0.00    +0.190 C 
BRANCH  13  14
ATOM     14  C   LIG    1        3.160  43.428  22.060  0.00  0.00    +0.001 C 
ATOM     15  C   LIG    1        3.737  42.754  23.067  0.00  0.00    +0.006 C 
BRANCH  15  16
ATOM     16  C   LIG    1        3.058  41.773  23.931  0.00  0.00    -0.025 A 
ATOM     17  C   LIG    1        3.230  41.844  25.304  0.00  0.00    +0.008 A 
ATOM     18  C   LIG    1        2.587  40.915  26.121  0.00  0.00    +0.001 A 
ATOM     19  C   LIG    1        1.782  39.926  25.556  0.00  0.00    +0.000 A 
ATOM     20  C   LIG    1        1.619  39.866  24.172  0.00  0.00    +0.001 A 
ATOM     21  C   LIG    1        2.262  40.796  23.354  0.00  0.00    +0.008 A 
ENDBRANCH  15  16
ENDBRANCH  13  14
ENDBRANCH  12  13
ENDBRANCH   2  12
BRANCH  22  23
ATOM     23  C   LIG    1        8.179  45.174  22.998  0.00  0.00    +0.197 C 
BRANCH  23  24
ATOM     24  O   LIG    1        9.572  45.419  23.061  0.00  0.00    -0.346 OA
BRANCH  24  25
ATOM     25  C   LIG    1       10.325  44.216  22.956  0.00  0.00    +0.281 C 
ATOM     26  C   LIG    1       11.828  44.536  22.988  0.00  0.00    +0.201 C 
ATOM     27  C   LIG    1       12.307  44.912  24.394  0.00  0.00    +0.178 C 
ATOM     28  C   LIG    1       11.817  43.880  25.411  0.00  0.00    +0.171 C 
ATOM     29  C   LIG    1       10.312  43.678  25.288  0.00  0.00    +0.197 C 
ATOM     36  O   LIG    1        9.967  43.268  23.967  0.00  0.00    -0.346 OA
BRANCH  28  30
ATOM     30  O   LIG    1       12.155  44.300  26.725  0.00  0.00    -0.387 OA
ATOM     31  H   LIG    1       13.067  44.010  26.901  0.00  0.00    +0.210 HD
ENDBRANCH  28  30
BRANCH  27  32
ATOM     32  O   LIG    1       11.798  46.198  24.744  0.00  0.00    -0.386 OA
ATOM     33  H   LIG    1       10.910  46.277  24.354  0.00  0.00    +0.210 HD
ENDBRANCH  27  32
BRANCH  26  34
ATOM     34  O   LIG    1       12.534  43.380  22.542  0.00  0.00    -0.384 OA
ATOM     35  H   LIG    1       13.049  43.619  21.753  0.00  0.00    +0.210 HD
ENDBRANCH  26  34
ENDBRANCH  24  25
ENDBRANCH  23  24
ENDBRANCH  22  23
TORSDOF 13
ENDMDL
MODEL 8
REMARK VINA RESULT:      -7.0      2.499      7.707
REMARK  Name = 9823887
REMARK                            x       y       z     vdW  Elec       q    Type
REMARK                         _______ _______ _______ _____ _____    ______ ____
ROOT
ATOM      1  O   LIG    1        7.956  46.416  20.840  0.00  0.00    -0.341 OA
ATOM      2  C   LIG    1        7.033  45.914  19.877  0.00  0.00    +0.282 C 
ATOM      3  C   LIG    1        7.724  45.709  18.529  0.00  0.00    +0.201 C 
ATOM      4  C   LIG    1        8.968  44.832  18.669  0.00  0.00    +0.179 C 
ATOM      5  C   LIG    1        9.855  45.309  19.818  0.00  0.00    +0.177 C 
ATOM     22  C   LIG    1        9.032  45.511  21.092  0.00  0.00    +0.178 C 
ENDROOT
BRANCH   5   6
ATOM      6  O   LIG    1       10.873  44.342  20.061  0.00  0.00    -0.386 OA
ATOM      7  H   LIG    1       11.722  44.722  19.777  0.00  0.00    +0.210 HD
ENDBRANCH   5   6
BRANCH   4   8
ATOM      8  O   LIG    1        9.733  44.896  17.464  0.00  0.00    -0.386 OA
ATOM      9  H   LIG    1       10.589  45.302  17.684  0.00  0.00    +0.210 HD
ENDBRANCH   4   8
BRANCH   3  10
ATOM     10  O   LIG    1        6.798  45.081  17.643  0.00  0.00    -0.384 OA
ATOM     11  H   LIG    1        7.305  44.586  16.978  0.00  0.00    +0.210 HD
ENDBRANCH   3  10
BRANCH   2  12
ATOM     12  O   LIG    1        5.973  46.851  19.691  0.00  0.00    -0.345 OA
BRANCH  12  13
ATOM     13  C   LIG    1        5.037  46.790  20.755  0.00  0.00    +0.190 C 
BRANCH  13  14
ATOM     14  C   LIG    1        4.635  45.365  20.962  0.00  0.00    +0.001 C 
ATOM     15  C   LIG    1        3.619  44.994  21.756  0.00  0.00    +0.006 C 
BRANCH  15  16
ATOM     16  C   LIG    1        3.179  43.606  21.979  0.00  0.00    -0.025 A 
ATOM     17  C   LIG    1        2.487  42.944  20.977  0.00  0.00    +0.008 A 
ATOM     18  C   LIG    1        2.071  41.630  21.189  0.00  0.00    +0.001 A 
ATOM     19  C   LIG    1        2.350  40.995  22.399  0.00  0.00    +0.000 A 
ATOM     20  C   LIG    1        3.046  41.674  23.398  0.00  0.00    +0.001 A 
ATOM     21  C   LIG    1        3.463  42.989  23.187  0.00  0.00    +0.008 A 
ENDBRANCH  15  16
ENDBRANCH  13  14
ENDBRANCH  12  13
ENDBRANCH   2  12
BRANCH  22  23
ATOM     23  C   LIG    1        9.873  46.098  22.222  0.00  0.00    +0.197 C 
BRANCH  23  24
ATOM     24  O   LIG    1        9.512  45.458  23.432  0.00  0.00    -0.346 OA
BRANCH  24  25
ATOM     25  C   LIG    1        9.987  44.117  23.483  0.00  0.00    +0.281 C 
ATOM     26  C   LIG    1       11.523  44.108  23.525  0.00  0.00    +0.201 C 
ATOM     27  C   LIG    1       12.065  44.530  24.895  0.00  0.00    +0.178 C 
ATOM     28  C   LIG    1       11.356  43.750  26.005  0.00  0.00    +0.171 C 
ATOM     29  C   LIG    1        9.844  43.863  25.859  0.00  0.00    +0.197 C 
ATOM     36  O   LIG    1        9.426  43.389  24.581  0.00  0.00    -0.346 OA
BRANCH  28  30
ATOM     30  O   LIG    1       11.770  44.235  27.274  0.00  0.00    -0.387 OA
ATOM     31  H   LIG    1       12.412  43.600  27.636  0.00  0.00    +0.210 HD
ENDBRANCH  28  30
BRANCH  27  32
ATOM     32  O   LIG    1       11.844  45.926  25.086  0.00  0.00    -0.386 OA
ATOM     33  H   LIG    1       10.980  46.143  24.694  0.00  0.00    +0.210 HD
ENDBRANCH  27  32
BRANCH  26  34
ATOM     34  O   LIG    1       11.964  42.784  23.231  0.00  0.00    -0.384 OA
ATOM     35  H   LIG    1       12.936  42.775  23.239  0.00  0.00    +0.210 HD
ENDBRANCH  26  34
ENDBRANCH  24  25
ENDBRANCH  23  24
ENDBRANCH  22  23
TORSDOF 13
ENDMDL
MODEL 9
REMARK VINA RESULT:      -7.0      3.074      8.097
REMARK  Name = 9823887
REMARK                            x       y       z     vdW  Elec       q    Type
REMARK                         _______ _______ _______ _____ _____    ______ ____
ROOT
ATOM      1  O   LIG    1        8.518  44.385  21.148  0.00  0.00    -0.341 OA
ATOM      2  C   LIG    1        7.636  44.973  20.194  0.00  0.00    +0.282 C 
ATOM      3  C   LIG    1        8.430  45.649  19.076  0.00  0.00    +0.201 C 
ATOM      4  C   LIG    1        9.430  44.683  18.441  0.00  0.00    +0.179 C 
ATOM      5  C   LIG    1       10.248  43.954  19.506  0.00  0.00    +0.177 C 
ATOM     22  C   LIG    1        9.334  43.359  20.581  0.00  0.00    +0.178 C 
ENDROOT
BRANCH   5   6
ATOM      6  O   LIG    1       10.996  42.907  18.892  0.00  0.00    -0.386 OA
ATOM      7  H   LIG    1       11.419  43.270  18.094  0.00  0.00    +0.210 HD
ENDBRANCH   5   6
BRANCH   4   8
ATOM      8  O   LIG    1       10.335  45.413  17.611  0.00  0.00    -0.386 OA
ATOM      9  H   LIG    1       10.969  45.862  18.197  0.00  0.00    +0.210 HD
ENDBRANCH   4   8
BRANCH   3  10
ATOM     10  O   LIG    1        7.509  46.099  18.083  0.00  0.00    -0.384 OA
ATOM     11  H   LIG    1        7.143  45.318  17.635  0.00  0.00    +0.210 HD
ENDBRANCH   3  10
BRANCH   2  12
ATOM     12  O   LIG    1        6.833  45.967  20.828  0.00  0.00    -0.345 OA
BRANCH  12  13
ATOM     13  C   LIG    1        5.453  45.749  20.586  0.00  0.00    +0.190 C 
BRANCH  13  14
ATOM     14  C   LIG    1        5.011  44.551  21.365  0.00  0.00    +0.001 C 
ATOM     15  C   LIG    1        3.891  44.524  22.103  0.00  0.00    +0.006 C 
BRANCH  15  16
ATOM     16  C   LIG    1        3.409  43.365  22.874  0.00  0.00    -0.025 A 
ATOM     17  C   LIG    1        2.531  42.472  22.280  0.00  0.00    +0.008 A 
ATOM     18  C   LIG    1        2.076  41.375  23.010  0.00  0.00    +0.001 A 
ATOM     19  C   LIG    1        2.503  41.184  24.324  0.00  0.00    +0.000 A 
ATOM     20  C   LIG    1        3.387  42.090  24.908  0.00  0.00    +0.001 A 
ATOM     21  C   LIG    1        3.843  43.188  24.178  0.00  0.00    +0.008 A 
ENDBRANCH  15  16
ENDBRANCH  13  14
ENDBRANCH  12  13
ENDBRANCH   2  12
BRANCH  22  23
ATOM     23  C   LIG    1       10.134  42.727  21.716  0.00  0.00    +0.197 C 
BRANCH  23  24
ATOM     24  O   LIG    1       11.469  43.192  21.640  0.00  0.00    -0.346 OA
BRANCH  24  25
ATOM     25  C   LIG    1       12.348  42.407  22.438  0.00  0.00    +0.281 C 
ATOM     26  C   LIG    1       13.097  41.398  21.553  0.00  0.00    +0.201 C 
ATOM     27  C   LIG    1       14.188  42.069  20.712  0.00  0.00    +0.178 C 
ATOM     28  C   LIG    1       15.058  42.965  21.595  0.00  0.00    +0.171 C 
ATOM     29  C   LIG    1       14.194  43.930  22.397  0.00  0.00    +0.197 C 
ATOM     36  O   LIG    1       13.253  43.217  23.196  0.00  0.00    -0.346 OA
BRANCH  28  30
ATOM     30  O   LIG    1       15.985  43.681  20.791  0.00  0.00    -0.387 OA
ATOM     31  H   LIG    1       16.510  44.248  21.382  0.00  0.00    +0.210 HD
ENDBRANCH  28  30
BRANCH  27  32
ATOM     32  O   LIG    1       13.584  42.859  19.689  0.00  0.00    -0.386 OA
ATOM     33  H   LIG    1       14.295  43.347  19.238  0.00  0.00    +0.210 HD
ENDBRANCH  27  32
BRANCH  26  34
ATOM     34  O   LIG    1       13.691  40.421  22.404  0.00  0.00    -0.384 OA
ATOM     35  H   LIG    1       13.771  39.589  21.909  0.00  0.00    +0.210 HD
ENDBRANCH  26  34
ENDBRANCH  24  25
ENDBRANCH  23  24
ENDBRANCH  22  23
TORSDOF 13
ENDMDL
