REMARK VINA RESULT:      -5.4      1.414      2.549
REMARK  5 active torsions:
REMARK  status: ('A' for Active; 'I' for Inactive)
REMARK    1  A    between atoms: C_1  and  O_7 
REMARK    2  A    between atoms: C_2  and  O_13 
REMARK    3  A    between atoms: C_4  and  C_9 
REMARK    4  A    between atoms: C_6  and  O_15 
REMARK    5  A    between atoms: C_9  and  O_11 
ROOT
ATOM      1  C   UNL     1     185.735 185.075 175.178  0.00  0.00     0.201 A 
ATOM      2  C   UNL     1     187.057 184.709 174.926  0.00  0.00     0.163 A 
ATOM      3  C   UNL     1     187.757 185.302 173.876  0.00  0.00     0.064 A 
ATOM      4  C   UNL     1     187.135 186.261 173.076  0.00  0.00     0.066 A 
ATOM      5  C   UNL     1     185.813 186.627 173.328  0.00  0.00     0.064 A 
ATOM      6  C   UNL     1     185.112 186.034 174.378  0.00  0.00     0.163 A 
ENDROOT
BRANCH   4   7
ATOM      7  C   UNL     1     187.865 186.881 171.982  0.00  0.00     0.337 C 
ATOM      8  O   UNL     1     187.682 186.655 170.781  0.00  0.00    -0.245 OA
BRANCH   7   9
ATOM      9  O   UNL     1     188.804 187.765 172.417  0.00  0.00    -0.477 OA
ATOM     10  H   UNL     1     189.640 187.316 172.668  0.00  0.00     0.295 HD
ENDBRANCH   7   9
ENDBRANCH   4   7
BRANCH   2  11
ATOM     11  O   UNL     1     187.677 183.775 175.702  0.00  0.00    -0.503 OA
ATOM     12  H   UNL     1     188.389 183.367 175.178  0.00  0.00     0.292 HD
ENDBRANCH   2  11
BRANCH   6  13
ATOM     13  O   UNL     1     183.821 186.398 174.614  0.00  0.00    -0.503 OA
ATOM     14  H   UNL     1     183.235 185.889 174.026  0.00  0.00     0.292 HD
ENDBRANCH   6  13
BRANCH   1  15
ATOM     15  O   UNL     1     185.050 184.496 176.205  0.00  0.00    -0.501 OA
ATOM     16  H   UNL     1     185.307 184.939 177.033  0.00  0.00     0.292 HD
ENDBRANCH   1  15
TORSDOF 5
