REMARK VINA RESULT:      -6.5      2.638      4.724
REMARK  Name = 2520
REMARK  21 active torsions:
REMARK  status: ('A' for Active; 'I' for Inactive)
REMARK    1  A    between atoms: O_1  and  C_19
REMARK    2  A    between atoms: O_1  and  C_28
REMARK    3  A    between atoms: O_2  and  C_23
REMARK    4  A    between atoms: O_2  and  C_31
REMARK    5  A    between atoms: O_3  and  C_27
REMARK    6  A    between atoms: O_3  and  C_32
REMARK    7  A    between atoms: O_4  and  C_30
REMARK    8  A    between atoms: O_4  and  C_33
REMARK    9  A    between atoms: N_5  and  C_12
REMARK   10  A    between atoms: N_5  and  C_18
REMARK   11  A    between atoms: N_5  and  C_20
REMARK   12  A    between atoms: C_7  and  C_8
REMARK   13  A    between atoms: C_7  and  C_9
REMARK   14  A    between atoms: C_7  and  C_11
REMARK   15  A    between atoms: C_7  and  C_15
REMARK   16  A    between atoms: C_8  and  C_13
REMARK   17  A    between atoms: C_8  and  C_14
REMARK   18  A    between atoms: C_9  and  C_10
REMARK   19  A    between atoms: C_10  and  C_12
REMARK   20  A    between atoms: C_18  and  C_22
REMARK   21  A    between atoms: C_22  and  C_24
REMARK                            x       y       z     vdW  Elec       q    Type
REMARK                         _______ _______ _______ _____ _____    ______ ____
ROOT
ATOM      1  C   UNL     1     175.889 175.760 169.756  0.00  0.00    +0.028 C 
ENDROOT
BRANCH   1   2
ATOM      2  C   UNL     1     174.727 176.753 169.390  0.00  0.00    +0.085 C 
BRANCH   2   7
ATOM      3  C   UNL     1     171.269 175.273 170.134  0.00  0.00    +0.162 A 
ATOM      4  C   UNL     1     171.015 174.549 168.968  0.00  0.00    +0.162 A 
ATOM      5  C   UNL     1     171.956 174.535 167.938  0.00  0.00    +0.050 A 
ATOM      6  C   UNL     1     173.150 175.243 168.074  0.00  0.00    +0.009 A 
ATOM      7  C   UNL     1     173.403 175.967 169.240  0.00  0.00    -0.024 A 
ATOM      8  C   UNL     1     172.462 175.981 170.270  0.00  0.00    +0.054 A 
BRANCH   3   9
ATOM      9  O   UNL     1     170.358 175.294 171.147  0.00  0.00    -0.491 OA
ATOM     10  C   UNL     1     170.029 176.569 171.695  0.00  0.00    +0.277 C 
ENDBRANCH   3   9
BRANCH   4  11
ATOM     11  O   UNL     1     169.853 173.853 168.823  0.00  0.00    -0.491 OA
ATOM     12  C   UNL     1     169.916 172.630 168.094  0.00  0.00    +0.277 C 
ENDBRANCH   4  11
ENDBRANCH   2   7
BRANCH   2  13
ATOM     13  C   UNL     1     175.052 177.485 168.019  0.00  0.00    +0.007 C 
ATOM     14  C   UNL     1     174.100 178.659 167.717  0.00  0.00    +0.009 C 
ATOM     15  C   UNL     1     176.499 177.991 167.900  0.00  0.00    +0.009 C 
ENDBRANCH   2  13
BRANCH   2  16
ATOM     16  C   UNL     1     174.677 177.780 170.472  0.00  0.00    +0.074 C 
ATOM     17  N   UNL     1     174.651 178.571 171.320  0.00  0.00    -0.196 NA
ENDBRANCH   2  16
ENDBRANCH   1   2
BRANCH   1  18
ATOM     18  C   UNL     1     175.865 175.229 171.205  0.00  0.00    +0.017 C 
BRANCH  18  19
ATOM     19  C   UNL     1     175.273 173.820 171.310  0.00  0.00    +0.084 C 
BRANCH  19  20
ATOM     20  N   UNL     1     175.760 173.109 172.485  0.00  0.00    -0.305 NA
ATOM     21  C   UNL     1     174.794 172.095 172.911  0.00  0.00    +0.104 C 
BRANCH  20  22
ATOM     22  C   UNL     1     177.059 172.489 172.212  0.00  0.00    +0.088 C 
BRANCH  22  23
ATOM     23  C   UNL     1     177.989 172.614 173.419  0.00  0.00    +0.050 C 
BRANCH  23  24
ATOM     24  C   UNL     1     178.801 173.884 173.364  0.00  0.00    -0.042 A 
ATOM     25  C   UNL     1     178.332 175.039 173.990  0.00  0.00    +0.007 A 
ATOM     26  C   UNL     1     179.083 176.213 173.939  0.00  0.00    +0.049 A 
ATOM     27  C   UNL     1     180.301 176.233 173.261  0.00  0.00    +0.161 A 
ATOM     28  C   UNL     1     180.769 175.079 172.633  0.00  0.00    +0.162 A 
ATOM     29  C   UNL     1     180.019 173.903 172.685  0.00  0.00    +0.053 A 
BRANCH  28  30
ATOM     30  O   UNL     1     181.958 175.086 171.968  0.00  0.00    -0.491 OA
ATOM     31  C   UNL     1     182.194 174.019 171.051  0.00  0.00    +0.277 C 
ENDBRANCH  28  30
BRANCH  27  32
ATOM     32  O   UNL     1     181.024 177.387 173.217  0.00  0.00    -0.491 OA
ATOM     33  C   UNL     1     180.580 178.396 172.314  0.00  0.00    +0.277 C 
ENDBRANCH  27  32
ENDBRANCH  23  24
ENDBRANCH  22  23
ENDBRANCH  20  22
ENDBRANCH  19  20
ENDBRANCH  18  19
ENDBRANCH   1  18
TORSDOF 14
