REMARK VINA RESULT:      -7.1      9.600     13.352
REMARK  8 active torsions:
REMARK  status: ('A' for Active; 'I' for Inactive)
REMARK    1  A    between atoms: C_2  and  O_3 
REMARK    2  A    between atoms: C_15  and  O_16 
REMARK    3  A    between atoms: C_28  and  C_29 
REMARK    4  A    between atoms: C_33  and  C_34 
REMARK    5  A    between atoms: O_3  and  C_4 
REMARK    6  A    between atoms: C_4  and  C_6 
REMARK    7  A    between atoms: O_16  and  C_17 
REMARK    8  A    between atoms: C_17  and  C_19 
ROOT
ATOM      1  O   LIG     1     183.649 180.835 171.602  0.00  0.00    -0.315 OA
ATOM      2  C   LIG     1     183.367 182.133 172.176  0.00  0.00     0.332 C 
ATOM      3  C   LIG     1     182.147 182.127 173.141  0.00  0.00     0.244 C 
ATOM      4  C   LIG     1     180.904 181.389 172.543  0.00  0.00     0.112 C 
ATOM      5  C   LIG     1     181.316 180.027 171.896  0.00  0.00     0.188 C 
ATOM      6  O   LIG     1     181.611 179.097 172.943  0.00  0.00    -0.220 OA
ATOM      7  C   LIG     1     182.567 180.117 170.967  0.00  0.00     0.182 C 
ENDROOT
BRANCH   2   8
ATOM      8  O   LIG     1     183.248 183.209 171.231  0.00  0.00    -0.418 OA
BRANCH   8   9
ATOM      9  C   LIG     1     183.655 184.503 171.403  0.00  0.00     0.343 C 
ATOM     10  O   LIG     1     182.842 185.339 171.867  0.00  0.00    -0.245 OA
BRANCH   9  11
ATOM     11  C   LIG     1     184.970 184.897 171.029  0.00  0.00     0.082 A 
ATOM     12  C   LIG     1     185.364 186.257 171.097  0.00  0.00     0.052 A 
ATOM     13  C   LIG     1     186.698 186.644 170.858  0.00  0.00     0.238 A 
ATOM     14  C   LIG     1     187.655 185.674 170.506  0.00  0.00     0.273 A 
ATOM     15  O   LIG     1     187.075 187.946 170.974  0.00  0.00    -0.283 OA
ATOM     16  O   LIG     1     188.941 186.057 170.303  0.00  0.00    -0.280 OA
ATOM     17  C   LIG     1     187.269 184.324 170.369  0.00  0.00     0.238 A 
ATOM     18  C   LIG     1     185.941 183.941 170.641  0.00  0.00     0.052 A 
ATOM     19  O   LIG     1     188.184 183.395 169.986  0.00  0.00    -0.283 OA
ENDBRANCH   9  11
ENDBRANCH   8   9
ENDBRANCH   2   8
BRANCH   3  20
ATOM     20  O   LIG     1     182.578 181.519 174.377  0.00  0.00    -0.442 OA
BRANCH  20  21
ATOM     21  C   LIG     1     183.391 182.059 175.335  0.00  0.00     0.341 C 
ATOM     22  O   LIG     1     183.304 181.518 176.461  0.00  0.00    -0.245 OA
BRANCH  21  23
ATOM     23  C   LIG     1     184.348 183.086 175.095  0.00  0.00     0.082 A 
ATOM     24  C   LIG     1     183.974 184.453 175.154  0.00  0.00     0.052 A 
ATOM     25  C   LIG     1     184.902 185.479 174.883  0.00  0.00     0.238 A 
ATOM     26  O   LIG     1     184.501 186.776 174.919  0.00  0.00    -0.283 OA
ATOM     27  C   LIG     1     186.238 185.154 174.565  0.00  0.00     0.273 A 
ATOM     28  O   LIG     1     187.162 186.117 174.303  0.00  0.00    -0.280 OA
ATOM     29  C   LIG     1     186.632 183.803 174.514  0.00  0.00     0.238 A 
ATOM     30  O   LIG     1     187.912 183.489 174.190  0.00  0.00    -0.283 OA
ATOM     31  C   LIG     1     185.698 182.784 174.793  0.00  0.00     0.052 A 
ENDBRANCH  21  23
ENDBRANCH  20  21
ENDBRANCH   3  20
BRANCH   7  32
ATOM     32  C   LIG     1     182.313 180.589 169.509  0.00  0.00     0.214 C 
ATOM     33  O   LIG     1     183.539 180.779 168.809  0.00  0.00    -0.218 OA
ENDBRANCH   7  32
BRANCH   4  34
ATOM     34  C   LIG     1     180.038 182.293 171.612  0.00  0.00     0.189 C 
ATOM     35  O   LIG     1     179.098 181.514 170.878  0.00  0.00    -0.220 OA
ENDBRANCH   4  34
TORSDOF 8
