MODEL 1
REMARK VINA RESULT:      -4.8      0.000      0.000
REMARK  Name = 370
REMARK                            x       y       z     vdW  Elec       q    Type
REMARK                         _______ _______ _______ _____ _____    ______ ____
ROOT
ATOM      3  C   LIG    1       28.040  28.185  14.303  0.00  0.00    +0.201 A 
ATOM      4  C   LIG    1       29.361  27.772  14.482  0.00  0.00    +0.163 A 
ATOM      5  C   LIG    1       29.754  26.498  14.076  0.00  0.00    +0.064 A 
ATOM      6  C   LIG    1       28.827  25.634  13.491  0.00  0.00    +0.066 A 
ATOM     11  C   LIG    1       27.507  26.047  13.312  0.00  0.00    +0.064 A 
ATOM     14  C   LIG    1       27.113  27.321  13.718  0.00  0.00    +0.163 A 
ENDROOT
BRANCH   3   1
ATOM      1  O   LIG    1       27.655  29.431  14.699  0.00  0.00    -0.501 OA
ATOM      2  H   LIG    1       26.928  29.726  14.122  0.00  0.00    +0.292 HD
ENDBRANCH   3   1
BRANCH   6   7
ATOM      7  C   LIG    1       29.238  24.305  13.066  0.00  0.00    +0.337 C 
ATOM      8  O   LIG    1       30.146  24.059  12.265  0.00  0.00    -0.245 OA
BRANCH   7   9
ATOM      9  O   LIG    1       28.504  23.321  13.654  0.00  0.00    -0.477 OA
ATOM     10  H   LIG    1       27.601  23.628  13.886  0.00  0.00    +0.295 HD
ENDBRANCH   7   9
ENDBRANCH   6   7
BRANCH   4  12
ATOM     12  O   LIG    1       30.276  28.607  15.050  0.00  0.00    -0.503 OA
ATOM     13  H   LIG    1       29.829  29.440  15.278  0.00  0.00    +0.292 HD
ENDBRANCH   4  12
BRANCH  14  15
ATOM     15  O   LIG    1       25.821  27.712  13.538  0.00  0.00    -0.503 OA
ATOM     16  H   LIG    1       25.252  26.923  13.502  0.00  0.00    +0.292 HD
ENDBRANCH  14  15
TORSDOF 5
ENDMDL
MODEL 2
REMARK VINA RESULT:      -4.8      0.012      2.402
REMARK  Name = 370
REMARK                            x       y       z     vdW  Elec       q    Type
REMARK                         _______ _______ _______ _____ _____    ______ ____
ROOT
ATOM      3  C   LIG    1       28.034  28.188  14.296  0.00  0.00    +0.201 A 
ATOM      4  C   LIG    1       27.110  27.323  13.709  0.00  0.00    +0.163 A 
ATOM      5  C   LIG    1       27.508  26.049  13.304  0.00  0.00    +0.064 A 
ATOM      6  C   LIG    1       28.830  25.640  13.484  0.00  0.00    +0.066 A 
ATOM     11  C   LIG    1       29.753  26.505  14.069  0.00  0.00    +0.064 A 
ATOM     14  C   LIG    1       29.356  27.779  14.475  0.00  0.00    +0.163 A 
ENDROOT
BRANCH   3   1
ATOM      1  O   LIG    1       27.646  29.433  14.693  0.00  0.00    -0.501 OA
ATOM      2  H   LIG    1       27.525  29.984  13.900  0.00  0.00    +0.292 HD
ENDBRANCH   3   1
BRANCH   6   7
ATOM      7  C   LIG    1       29.244  24.311  13.062  0.00  0.00    +0.337 C 
ATOM      8  O   LIG    1       30.161  24.065  12.272  0.00  0.00    -0.245 OA
BRANCH   7   9
ATOM      9  O   LIG    1       28.500  23.327  13.638  0.00  0.00    -0.477 OA
ATOM     10  H   LIG    1       28.355  23.492  14.594  0.00  0.00    +0.295 HD
ENDBRANCH   7   9
ENDBRANCH   6   7
BRANCH   4  12
ATOM     12  O   LIG    1       25.816  27.709  13.530  0.00  0.00    -0.503 OA
ATOM     13  H   LIG    1       25.667  27.845  12.579  0.00  0.00    +0.292 HD
ENDBRANCH   4  12
BRANCH  14  15
ATOM     15  O   LIG    1       30.268  28.616  15.045  0.00  0.00    -0.503 OA
ATOM     16  H   LIG    1       30.927  28.086  15.527  0.00  0.00    +0.292 HD
ENDBRANCH  14  15
TORSDOF 5
ENDMDL
MODEL 3
REMARK VINA RESULT:      -4.8      1.965      2.778
REMARK  Name = 370
REMARK                            x       y       z     vdW  Elec       q    Type
REMARK                         _______ _______ _______ _____ _____    ______ ____
ROOT
ATOM      3  C   LIG    1       30.561  27.477  15.628  0.00  0.00    +0.201 A 
ATOM      4  C   LIG    1       30.654  26.123  15.952  0.00  0.00    +0.163 A 
ATOM      5  C   LIG    1       30.223  25.157  15.044  0.00  0.00    +0.064 A 
ATOM      6  C   LIG    1       29.697  25.544  13.810  0.00  0.00    +0.066 A 
ATOM     11  C   LIG    1       29.605  26.897  13.487  0.00  0.00    +0.064 A 
ATOM     14  C   LIG    1       30.036  27.864  14.394  0.00  0.00    +0.163 A 
ENDROOT
BRANCH   3   1
ATOM      1  O   LIG    1       30.984  28.422  16.516  0.00  0.00    -0.501 OA
ATOM      2  H   LIG    1       31.938  28.300  16.662  0.00  0.00    +0.292 HD
ENDBRANCH   3   1
BRANCH   6   7
ATOM      7  C   LIG    1       29.248  24.537  12.862  0.00  0.00    +0.337 C 
ATOM      8  O   LIG    1       28.792  23.428  13.160  0.00  0.00    -0.245 OA
BRANCH   7   9
ATOM      9  O   LIG    1       29.382  24.942  11.570  0.00  0.00    -0.477 OA
ATOM     10  H   LIG    1       28.552  24.820  11.061  0.00  0.00    +0.295 HD
ENDBRANCH   7   9
ENDBRANCH   6   7
BRANCH   4  12
ATOM     12  O   LIG    1       31.167  25.732  17.153  0.00  0.00    -0.503 OA
ATOM     13  H   LIG    1       32.122  25.920  17.152  0.00  0.00    +0.292 HD
ENDBRANCH   4  12
BRANCH  14  15
ATOM     15  O   LIG    1       29.939  29.183  14.067  0.00  0.00    -0.503 OA
ATOM     16  H   LIG    1       29.250  29.292  13.389  0.00  0.00    +0.292 HD
ENDBRANCH  14  15
TORSDOF 5
ENDMDL
MODEL 4
REMARK VINA RESULT:      -4.7      1.688      4.618
REMARK  Name = 370
REMARK                            x       y       z     vdW  Elec       q    Type
REMARK                         _______ _______ _______ _____ _____    ______ ____
ROOT
ATOM      3  C   LIG    1       29.182  24.859  13.251  0.00  0.00    +0.201 A 
ATOM      4  C   LIG    1       28.510  25.784  12.451  0.00  0.00    +0.163 A 
ATOM      5  C   LIG    1       28.735  27.149  12.625  0.00  0.00    +0.064 A 
ATOM      6  C   LIG    1       29.631  27.591  13.600  0.00  0.00    +0.066 A 
ATOM     11  C   LIG    1       30.302  26.666  14.399  0.00  0.00    +0.064 A 
ATOM     14  C   LIG    1       30.078  25.300  14.225  0.00  0.00    +0.163 A 
ENDROOT
BRANCH   3   1
ATOM      1  O   LIG    1       28.963  23.524  13.080  0.00  0.00    -0.501 OA
ATOM      2  H   LIG    1       28.369  23.218  13.787  0.00  0.00    +0.292 HD
ENDBRANCH   3   1
BRANCH   6   7
ATOM      7  C   LIG    1       29.866  29.015  13.781  0.00  0.00    +0.337 C 
ATOM      8  O   LIG    1       30.431  29.755  12.970  0.00  0.00    -0.245 OA
BRANCH   7   9
ATOM      9  O   LIG    1       29.388  29.474  14.970  0.00  0.00    -0.477 OA
ATOM     10  H   LIG    1       29.977  29.234  15.717  0.00  0.00    +0.295 HD
ENDBRANCH   7   9
ENDBRANCH   6   7
BRANCH   4  12
ATOM     12  O   LIG    1       27.634  25.366  11.495  0.00  0.00    -0.503 OA
ATOM     13  H   LIG    1       28.136  24.905  10.801  0.00  0.00    +0.292 HD
ENDBRANCH   4  12
BRANCH  14  15
ATOM     15  O   LIG    1       30.739  24.406  15.012  0.00  0.00    -0.503 OA
ATOM     16  H   LIG    1       31.295  23.839  14.450  0.00  0.00    +0.292 HD
ENDBRANCH  14  15
TORSDOF 5
ENDMDL
MODEL 5
REMARK VINA RESULT:      -4.7      1.689      4.090
REMARK  Name = 370
REMARK                            x       y       z     vdW  Elec       q    Type
REMARK                         _______ _______ _______ _____ _____    ______ ____
ROOT
ATOM      3  C   LIG    1       29.181  24.869  13.257  0.00  0.00    +0.201 A 
ATOM      4  C   LIG    1       30.080  25.305  14.230  0.00  0.00    +0.163 A 
ATOM      5  C   LIG    1       30.314  26.669  14.403  0.00  0.00    +0.064 A 
ATOM      6  C   LIG    1       29.649  27.599  13.602  0.00  0.00    +0.066 A 
ATOM     11  C   LIG    1       28.751  27.162  12.629  0.00  0.00    +0.064 A 
ATOM     14  C   LIG    1       28.517  25.799  12.455  0.00  0.00    +0.163 A 
ENDROOT
BRANCH   3   1
ATOM      1  O   LIG    1       28.952  23.536  13.088  0.00  0.00    -0.501 OA
ATOM      2  H   LIG    1       29.503  23.221  12.351  0.00  0.00    +0.292 HD
ENDBRANCH   3   1
BRANCH   6   7
ATOM      7  C   LIG    1       29.892  29.021  13.783  0.00  0.00    +0.337 C 
ATOM      8  O   LIG    1       30.433  29.765  12.959  0.00  0.00    -0.245 OA
BRANCH   7   9
ATOM      9  O   LIG    1       29.454  29.474  14.989  0.00  0.00    -0.477 OA
ATOM     10  H   LIG    1       30.176  29.503  15.653  0.00  0.00    +0.295 HD
ENDBRANCH   7   9
ENDBRANCH   6   7
BRANCH   4  12
ATOM     12  O   LIG    1       30.734  24.408  15.021  0.00  0.00    -0.503 OA
ATOM     13  H   LIG    1       31.252  24.902  15.680  0.00  0.00    +0.292 HD
ENDBRANCH   4  12
BRANCH  14  15
ATOM     15  O   LIG    1       27.637  25.385  11.501  0.00  0.00    -0.503 OA
ATOM     16  H   LIG    1       28.085  25.382  10.637  0.00  0.00    +0.292 HD
ENDBRANCH  14  15
TORSDOF 5
ENDMDL
MODEL 6
REMARK VINA RESULT:      -4.7      2.026      3.097
REMARK  Name = 370
REMARK                            x       y       z     vdW  Elec       q    Type
REMARK                         _______ _______ _______ _____ _____    ______ ____
ROOT
ATOM      3  C   LIG    1       30.624  27.500  15.637  0.00  0.00    +0.201 A 
ATOM      4  C   LIG    1       30.121  27.892  14.396  0.00  0.00    +0.163 A 
ATOM      5  C   LIG    1       29.668  26.932  13.492  0.00  0.00    +0.064 A 
ATOM      6  C   LIG    1       29.718  25.579  13.828  0.00  0.00    +0.066 A 
ATOM     11  C   LIG    1       30.220  25.187  15.068  0.00  0.00    +0.064 A 
ATOM     14  C   LIG    1       30.674  26.146  15.973  0.00  0.00    +0.163 A 
ENDROOT
BRANCH   3   1
ATOM      1  O   LIG    1       31.067  28.438  16.521  0.00  0.00    -0.501 OA
ATOM      2  H   LIG    1       30.643  29.287  16.305  0.00  0.00    +0.292 HD
ENDBRANCH   3   1
BRANCH   6   7
ATOM      7  C   LIG    1       29.244  24.577  12.885  0.00  0.00    +0.337 C 
ATOM      8  O   LIG    1       28.820  23.457  13.185  0.00  0.00    -0.245 OA
BRANCH   7   9
ATOM      9  O   LIG    1       29.313  25.004  11.595  0.00  0.00    -0.477 OA
ATOM     10  H   LIG    1       29.620  24.294  10.991  0.00  0.00    +0.295 HD
ENDBRANCH   7   9
ENDBRANCH   6   7
BRANCH   4  12
ATOM     12  O   LIG    1       30.065  29.211  14.057  0.00  0.00    -0.503 OA
ATOM     13  H   LIG    1       29.131  29.462  13.959  0.00  0.00    +0.292 HD
ENDBRANCH   4  12
BRANCH  14  15
ATOM     15  O   LIG    1       31.164  25.751  17.181  0.00  0.00    -0.503 OA
ATOM     16  H   LIG    1       30.700  24.943  17.462  0.00  0.00    +0.292 HD
ENDBRANCH  14  15
TORSDOF 5
ENDMDL
MODEL 7
REMARK VINA RESULT:      -4.6      1.593      3.829
REMARK  Name = 370
REMARK                            x       y       z     vdW  Elec       q    Type
REMARK                         _______ _______ _______ _____ _____    ______ ____
ROOT
ATOM      3  C   LIG    1       29.214  26.543  13.396  0.00  0.00    +0.201 A 
ATOM      4  C   LIG    1       28.490  27.419  14.205  0.00  0.00    +0.163 A 
ATOM      5  C   LIG    1       27.139  27.650  13.948  0.00  0.00    +0.064 A 
ATOM      6  C   LIG    1       26.511  27.006  12.881  0.00  0.00    +0.066 A 
ATOM     11  C   LIG    1       27.235  26.131  12.073  0.00  0.00    +0.064 A 
ATOM     14  C   LIG    1       28.586  25.899  12.329  0.00  0.00    +0.163 A 
ENDROOT
BRANCH   3   1
ATOM      1  O   LIG    1       30.535  26.316  13.647  0.00  0.00    -0.501 OA
ATOM      2  H   LIG    1       31.048  27.057  13.283  0.00  0.00    +0.292 HD
ENDBRANCH   3   1
BRANCH   6   7
ATOM      7  C   LIG    1       25.102  27.247  12.614  0.00  0.00    +0.337 C 
ATOM      8  O   LIG    1       24.548  27.111  11.519  0.00  0.00    -0.245 OA
BRANCH   7   9
ATOM      9  O   LIG    1       24.424  27.651  13.723  0.00  0.00    -0.477 OA
ATOM     10  H   LIG    1       23.927  26.912  14.136  0.00  0.00    +0.295 HD
ENDBRANCH   7   9
ENDBRANCH   6   7
BRANCH   4  12
ATOM     12  O   LIG    1       29.091  28.052  15.252  0.00  0.00    -0.503 OA
ATOM     13  H   LIG    1       28.527  28.797  15.523  0.00  0.00    +0.292 HD
ENDBRANCH   4  12
BRANCH  14  15
ATOM     15  O   LIG    1       29.283  25.043  11.531  0.00  0.00    -0.503 OA
ATOM     16  H   LIG    1       28.674  24.369  11.180  0.00  0.00    +0.292 HD
ENDBRANCH  14  15
TORSDOF 5
ENDMDL
MODEL 8
REMARK VINA RESULT:      -4.4      6.838      8.418
REMARK  Name = 370
REMARK                            x       y       z     vdW  Elec       q    Type
REMARK                         _______ _______ _______ _____ _____    ______ ____
ROOT
ATOM      3  C   LIG    1       29.638  32.336  21.102  0.00  0.00    +0.201 A 
ATOM      4  C   LIG    1       28.806  31.261  21.417  0.00  0.00    +0.163 A 
ATOM      5  C   LIG    1       29.152  29.971  21.018  0.00  0.00    +0.064 A 
ATOM      6  C   LIG    1       30.331  29.753  20.304  0.00  0.00    +0.066 A 
ATOM     11  C   LIG    1       31.163  30.827  19.990  0.00  0.00    +0.064 A 
ATOM     14  C   LIG    1       30.817  32.118  20.388  0.00  0.00    +0.163 A 
ENDROOT
BRANCH   3   1
ATOM      1  O   LIG    1       29.300  33.597  21.493  0.00  0.00    -0.501 OA
ATOM      2  H   LIG    1       28.382  33.584  21.813  0.00  0.00    +0.292 HD
ENDBRANCH   3   1
BRANCH   6   7
ATOM      7  C   LIG    1       30.692  28.407  19.889  0.00  0.00    +0.337 C 
ATOM      8  O   LIG    1       31.523  27.685  20.450  0.00  0.00    -0.245 OA
BRANCH   7   9
ATOM      9  O   LIG    1       30.006  28.000  18.787  0.00  0.00    -0.477 OA
ATOM     10  H   LIG    1       30.453  28.274  17.957  0.00  0.00    +0.295 HD
ENDBRANCH   7   9
ENDBRANCH   6   7
BRANCH   4  12
ATOM     12  O   LIG    1       27.653  31.460  22.116  0.00  0.00    -0.503 OA
ATOM     13  H   LIG    1       27.496  32.418  22.181  0.00  0.00    +0.292 HD
ENDBRANCH   4  12
BRANCH  14  15
ATOM     15  O   LIG    1       31.637  33.159  20.074  0.00  0.00    -0.503 OA
ATOM     16  H   LIG    1       32.224  33.340  20.830  0.00  0.00    +0.292 HD
ENDBRANCH  14  15
TORSDOF 5
ENDMDL
MODEL 9
REMARK VINA RESULT:      -4.4      6.837      8.174
REMARK  Name = 370
REMARK                            x       y       z     vdW  Elec       q    Type
REMARK                         _______ _______ _______ _____ _____    ______ ____
ROOT
ATOM      3  C   LIG    1       29.632  32.345  21.095  0.00  0.00    +0.201 A 
ATOM      4  C   LIG    1       30.809  32.127  20.378  0.00  0.00    +0.163 A 
ATOM      5  C   LIG    1       31.156  30.836  19.983  0.00  0.00    +0.064 A 
ATOM      6  C   LIG    1       30.326  29.761  20.304  0.00  0.00    +0.066 A 
ATOM     11  C   LIG    1       29.150  29.979  21.021  0.00  0.00    +0.064 A 
ATOM     14  C   LIG    1       28.802  31.270  21.417  0.00  0.00    +0.163 A 
ENDROOT
BRANCH   3   1
ATOM      1  O   LIG    1       29.292  33.607  21.481  0.00  0.00    -0.501 OA
ATOM      2  H   LIG    1       29.274  34.175  20.691  0.00  0.00    +0.292 HD
ENDBRANCH   3   1
BRANCH   6   7
ATOM      7  C   LIG    1       30.688  28.414  19.891  0.00  0.00    +0.337 C 
ATOM      8  O   LIG    1       31.505  27.685  20.463  0.00  0.00    -0.245 OA
BRANCH   7   9
ATOM      9  O   LIG    1       30.019  28.015  18.775  0.00  0.00    -0.477 OA
ATOM     10  H   LIG    1       29.188  27.542  18.997  0.00  0.00    +0.295 HD
ENDBRANCH   7   9
ENDBRANCH   6   7
BRANCH   4  12
ATOM     12  O   LIG    1       31.627  33.169  20.056  0.00  0.00    -0.503 OA
ATOM     13  H   LIG    1       32.219  32.882  19.340  0.00  0.00    +0.292 HD
ENDBRANCH   4  12
BRANCH  14  15
ATOM     15  O   LIG    1       27.651  31.470  22.117  0.00  0.00    -0.503 OA
ATOM     16  H   LIG    1       27.852  31.455  23.069  0.00  0.00    +0.292 HD
ENDBRANCH  14  15
TORSDOF 5
ENDMDL
