MODEL 1
REMARK VINA RESULT:      -9.1      0.000      0.000
REMARK  11 active torsions:
REMARK  status: ('A' for Active; 'I' for Inactive)
REMARK    1  A    between atoms: C_13  and  O_12 
REMARK    2  A    between atoms: C_15  and  O_33 
REMARK    3  A    between atoms: C_19  and  C_20 
REMARK    4  A    between atoms: C_23  and  O_27 
REMARK    5  A    between atoms: C_24  and  O_25 
REMARK    6  A    between atoms: O_12  and  C_2 
REMARK    7  A    between atoms: C_3  and  O_10 
REMARK    8  A    between atoms: C_4  and  O_8 
REMARK    9  A    between atoms: C_5  and  O_6 
REMARK   10  A    between atoms: C_36  and  C_37 
REMARK   11  A    between atoms: C_37  and  O_38 
ROOT
ATOM      1  C   LIG     1     -30.104   7.853   0.357  0.00  0.00     0.131 A 
ATOM      2  C   LIG     1     -30.282   9.022   1.096  0.00  0.00     0.092 A 
ATOM      3  C   LIG     1     -30.067   9.020   2.475  0.00  0.00     0.135 A 
ATOM      4  C   LIG     1     -29.672   7.839   3.109  0.00  0.00     0.105 A 
ATOM      5  C   LIG     1     -29.439   7.805   4.560  0.00  0.00     0.197 A 
ATOM      6  C   LIG     1     -29.023   6.504   5.124  0.00  0.00     0.098 A 
ATOM      7  C   LIG     1     -28.879   5.449   4.307  0.00  0.00     0.139 A 
ATOM      8  O   LIG     1     -29.107   5.483   2.940  0.00  0.00    -0.454 OA
ATOM      9  O   LIG     1     -29.580   8.792   5.268  0.00  0.00    -0.287 OA
ATOM     10  C   LIG     1     -29.493   6.670   2.370  0.00  0.00     0.146 A 
ATOM     11  C   LIG     1     -29.709   6.675   0.993  0.00  0.00     0.093 A 
ENDROOT
BRANCH   1  12
ATOM     12  O   LIG     1     -30.316   7.861  -0.991  0.00  0.00    -0.461 OA
BRANCH  12  13
ATOM     13  C   LIG     1     -30.587   9.128  -1.587  0.00  0.00     0.339 C 
ATOM     14  C   LIG     1     -29.755   9.233  -2.865  0.00  0.00     0.214 C 
ATOM     15  C   LIG     1     -30.097  10.501  -3.649  0.00  0.00     0.180 C 
ATOM     16  C   LIG     1     -31.609  10.662  -3.809  0.00  0.00     0.177 C 
ATOM     17  C   LIG     1     -32.319  10.495  -2.464  0.00  0.00     0.179 C 
ATOM     18  O   LIG     1     -31.977   9.234  -1.885  0.00  0.00    -0.331 OA
BRANCH  14  19
ATOM     19  O   LIG     1     -28.375   9.260  -2.501  0.00  0.00    -0.383 OA
ATOM     20  H   LIG     1     -27.920   9.888  -3.089  0.00  0.00     0.210 HD
ENDBRANCH  14  19
BRANCH  15  21
ATOM     21  O   LIG     1     -29.519  10.424  -4.953  0.00  0.00    -0.386 OA
ATOM     22  H   LIG     1     -29.965   9.701  -5.426  0.00  0.00     0.210 HD
ENDBRANCH  15  21
BRANCH  16  23
ATOM     23  O   LIG     1     -31.893  11.955  -4.335  0.00  0.00    -0.386 OA
ATOM     24  H   LIG     1     -32.632  11.869  -4.960  0.00  0.00     0.210 HD
ENDBRANCH  16  23
BRANCH  17  25
ATOM     25  C   LIG     1     -33.836  10.534  -2.617  0.00  0.00     0.190 C 
BRANCH  25  26
ATOM     26  O   LIG     1     -34.149  10.512  -3.998  0.00  0.00    -0.392 OA
ATOM     27  H   LIG     1     -33.524  11.102  -4.452  0.00  0.00     0.210 HD
ENDBRANCH  25  26
ENDBRANCH  17  25
ENDBRANCH  12  13
ENDBRANCH   1  12
BRANCH   3  28
ATOM     28  O   LIG     1     -30.255  10.187   3.152  0.00  0.00    -0.506 OA
ATOM     29  H   LIG     1     -31.200  10.390   3.224  0.00  0.00     0.292 HD
ENDBRANCH   3  28
BRANCH   7  30
ATOM     30  C   LIG     1     -28.473   4.122   4.815  0.00  0.00     0.021 A 
ATOM     31  C   LIG     1     -27.121   3.822   4.990  0.00  0.00     0.015 A 
ATOM     32  C   LIG     1     -26.738   2.569   5.469  0.00  0.00     0.050 A 
ATOM     33  C   LIG     1     -27.708   1.613   5.775  0.00  0.00     0.158 A 
ATOM     34  C   LIG     1     -29.059   1.911   5.600  0.00  0.00     0.159 A 
ATOM     35  C   LIG     1     -29.442   3.164   5.121  0.00  0.00     0.060 A 
BRANCH  33  36
ATOM     36  O   LIG     1     -27.321   0.393   6.240  0.00  0.00    -0.503 OA
ATOM     37  H   LIG     1     -28.110  -0.105   6.516  0.00  0.00     0.292 HD
ENDBRANCH  33  36
BRANCH  34  38
ATOM     38  O   LIG     1     -30.014   0.985   5.897  0.00  0.00    -0.503 OA
ATOM     39  H   LIG     1     -29.781   0.152   5.453  0.00  0.00     0.292 HD
ENDBRANCH  34  38
ENDBRANCH   7  30
TORSDOF 11
ENDMDL
MODEL 2
REMARK VINA RESULT:      -8.7      2.339      9.915
REMARK  11 active torsions:
REMARK  status: ('A' for Active; 'I' for Inactive)
REMARK    1  A    between atoms: C_13  and  O_12 
REMARK    2  A    between atoms: C_15  and  O_33 
REMARK    3  A    between atoms: C_19  and  C_20 
REMARK    4  A    between atoms: C_23  and  O_27 
REMARK    5  A    between atoms: C_24  and  O_25 
REMARK    6  A    between atoms: O_12  and  C_2 
REMARK    7  A    between atoms: C_3  and  O_10 
REMARK    8  A    between atoms: C_4  and  O_8 
REMARK    9  A    between atoms: C_5  and  O_6 
REMARK   10  A    between atoms: C_36  and  C_37 
REMARK   11  A    between atoms: C_37  and  O_38 
ROOT
ATOM      1  C   LIG     1     -29.238   8.571   3.420  0.00  0.00     0.131 A 
ATOM      2  C   LIG     1     -29.807   9.215   4.518  0.00  0.00     0.092 A 
ATOM      3  C   LIG     1     -30.833  10.143   4.333  0.00  0.00     0.135 A 
ATOM      4  C   LIG     1     -31.285  10.422   3.041  0.00  0.00     0.105 A 
ATOM      5  C   LIG     1     -32.363  11.396   2.814  0.00  0.00     0.197 A 
ATOM      6  C   LIG     1     -32.762  11.611   1.408  0.00  0.00     0.098 A 
ATOM      7  C   LIG     1     -32.142  10.925   0.436  0.00  0.00     0.139 A 
ATOM      8  O   LIG     1     -31.120  10.013   0.652  0.00  0.00    -0.454 OA
ATOM      9  O   LIG     1     -32.903  11.998   3.731  0.00  0.00    -0.287 OA
ATOM     10  C   LIG     1     -30.716   9.778   1.942  0.00  0.00     0.146 A 
ATOM     11  C   LIG     1     -29.691   8.852   2.130  0.00  0.00     0.093 A 
ENDROOT
BRANCH   1  12
ATOM     12  O   LIG     1     -28.235   7.665   3.606  0.00  0.00    -0.461 OA
BRANCH  12  13
ATOM     13  C   LIG     1     -28.418   6.718   4.657  0.00  0.00     0.339 C 
ATOM     14  C   LIG     1     -28.391   5.319   4.039  0.00  0.00     0.214 C 
ATOM     15  C   LIG     1     -28.431   4.235   5.116  0.00  0.00     0.180 C 
ATOM     16  C   LIG     1     -27.405   4.509   6.216  0.00  0.00     0.177 C 
ATOM     17  C   LIG     1     -27.516   5.951   6.715  0.00  0.00     0.179 C 
ATOM     18  O   LIG     1     -27.376   6.858   5.620  0.00  0.00    -0.331 OA
BRANCH  14  19
ATOM     19  O   LIG     1     -29.530   5.184   3.189  0.00  0.00    -0.383 OA
ATOM     20  H   LIG     1     -29.915   6.067   3.058  0.00  0.00     0.210 HD
ENDBRANCH  14  19
BRANCH  15  21
ATOM     21  O   LIG     1     -28.122   2.970   4.528  0.00  0.00    -0.386 OA
ATOM     22  H   LIG     1     -27.239   2.711   4.843  0.00  0.00     0.210 HD
ENDBRANCH  15  21
BRANCH  16  23
ATOM     23  O   LIG     1     -27.629   3.615   7.303  0.00  0.00    -0.386 OA
ATOM     24  H   LIG     1     -28.008   2.795   6.944  0.00  0.00     0.210 HD
ENDBRANCH  16  23
BRANCH  17  25
ATOM     25  C   LIG     1     -26.426   6.283   7.729  0.00  0.00     0.190 C 
BRANCH  25  26
ATOM     26  O   LIG     1     -26.825   5.793   8.996  0.00  0.00    -0.392 OA
ATOM     27  H   LIG     1     -27.613   6.293   9.271  0.00  0.00     0.210 HD
ENDBRANCH  25  26
ENDBRANCH  17  25
ENDBRANCH  12  13
ENDBRANCH   1  12
BRANCH   3  28
ATOM     28  O   LIG     1     -31.355  10.745   5.438  0.00  0.00    -0.506 OA
ATOM     29  H   LIG     1     -32.079  11.340   5.191  0.00  0.00     0.292 HD
ENDBRANCH   3  28
BRANCH   7  30
ATOM     30  C   LIG     1     -32.493  11.106  -0.988  0.00  0.00     0.021 A 
ATOM     31  C   LIG     1     -33.647  11.808  -1.342  0.00  0.00     0.015 A 
ATOM     32  C   LIG     1     -33.979  11.978  -2.686  0.00  0.00     0.050 A 
ATOM     33  C   LIG     1     -33.157  11.446  -3.680  0.00  0.00     0.158 A 
ATOM     34  C   LIG     1     -32.004  10.743  -3.329  0.00  0.00     0.159 A 
ATOM     35  C   LIG     1     -31.672  10.574  -1.985  0.00  0.00     0.060 A 
BRANCH  33  36
ATOM     36  O   LIG     1     -33.493  11.617  -4.989  0.00  0.00    -0.503 OA
ATOM     37  H   LIG     1     -34.027  10.858  -5.281  0.00  0.00     0.292 HD
ENDBRANCH  33  36
BRANCH  34  38
ATOM     38  O   LIG     1     -31.194  10.221  -4.292  0.00  0.00    -0.503 OA
ATOM     39  H   LIG     1     -30.909   9.337  -4.006  0.00  0.00     0.292 HD
ENDBRANCH  34  38
ENDBRANCH   7  30
TORSDOF 11
ENDMDL
MODEL 3
REMARK VINA RESULT:      -8.1      2.446      4.365
REMARK  11 active torsions:
REMARK  status: ('A' for Active; 'I' for Inactive)
REMARK    1  A    between atoms: C_13  and  O_12 
REMARK    2  A    between atoms: C_15  and  O_33 
REMARK    3  A    between atoms: C_19  and  C_20 
REMARK    4  A    between atoms: C_23  and  O_27 
REMARK    5  A    between atoms: C_24  and  O_25 
REMARK    6  A    between atoms: O_12  and  C_2 
REMARK    7  A    between atoms: C_3  and  O_10 
REMARK    8  A    between atoms: C_4  and  O_8 
REMARK    9  A    between atoms: C_5  and  O_6 
REMARK   10  A    between atoms: C_36  and  C_37 
REMARK   11  A    between atoms: C_37  and  O_38 
ROOT
ATOM      1  C   LIG     1     -28.955   8.889   4.724  0.00  0.00     0.131 A 
ATOM      2  C   LIG     1     -28.171   9.592   5.638  0.00  0.00     0.092 A 
ATOM      3  C   LIG     1     -27.411   8.904   6.585  0.00  0.00     0.135 A 
ATOM      4  C   LIG     1     -27.442   7.508   6.611  0.00  0.00     0.105 A 
ATOM      5  C   LIG     1     -26.653   6.754   7.597  0.00  0.00     0.197 A 
ATOM      6  C   LIG     1     -26.759   5.283   7.532  0.00  0.00     0.098 A 
ATOM      7  C   LIG     1     -27.545   4.721   6.600  0.00  0.00     0.139 A 
ATOM      8  O   LIG     1     -28.293   5.433   5.675  0.00  0.00    -0.454 OA
ATOM      9  O   LIG     1     -25.947   7.307   8.429  0.00  0.00    -0.287 OA
ATOM     10  C   LIG     1     -28.225   6.804   5.696  0.00  0.00     0.146 A 
ATOM     11  C   LIG     1     -28.984   7.494   4.752  0.00  0.00     0.093 A 
ENDROOT
BRANCH   1  12
ATOM     12  O   LIG     1     -29.697   9.566   3.801  0.00  0.00    -0.461 OA
BRANCH  12  13
ATOM     13  C   LIG     1     -30.009   8.868   2.596  0.00  0.00     0.339 C 
ATOM     14  C   LIG     1     -31.191   9.577   1.935  0.00  0.00     0.214 C 
ATOM     15  C   LIG     1     -31.497   8.983   0.559  0.00  0.00     0.180 C 
ATOM     16  C   LIG     1     -30.228   8.854  -0.282  0.00  0.00     0.177 C 
ATOM     17  C   LIG     1     -29.117   8.164   0.512  0.00  0.00     0.179 C 
ATOM     18  O   LIG     1     -28.877   8.872   1.730  0.00  0.00    -0.331 OA
BRANCH  14  19
ATOM     19  O   LIG     1     -32.332   9.427   2.779  0.00  0.00    -0.383 OA
ATOM     20  H   LIG     1     -33.093   9.198   2.219  0.00  0.00     0.210 HD
ENDBRANCH  14  19
BRANCH  15  21
ATOM     21  O   LIG     1     -32.405   9.839  -0.137  0.00  0.00    -0.386 OA
ATOM     22  H   LIG     1     -32.718  10.508   0.497  0.00  0.00     0.210 HD
ENDBRANCH  15  21
BRANCH  16  23
ATOM     23  O   LIG     1     -30.513   8.093  -1.453  0.00  0.00    -0.386 OA
ATOM     24  H   LIG     1     -29.904   8.381  -2.154  0.00  0.00     0.210 HD
ENDBRANCH  16  23
BRANCH  17  25
ATOM     25  C   LIG     1     -27.805   8.129  -0.266  0.00  0.00     0.190 C 
BRANCH  25  26
ATOM     26  O   LIG     1     -27.780   6.955  -1.056  0.00  0.00    -0.392 OA
ATOM     27  H   LIG     1     -28.618   6.482  -0.909  0.00  0.00     0.210 HD
ENDBRANCH  25  26
ENDBRANCH  17  25
ENDBRANCH  12  13
ENDBRANCH   1  12
BRANCH   3  28
ATOM     28  O   LIG     1     -26.663   9.636   7.457  0.00  0.00    -0.506 OA
ATOM     29  H   LIG     1     -26.664  10.572   7.204  0.00  0.00     0.292 HD
ENDBRANCH   3  28
BRANCH   7  30
ATOM     30  C   LIG     1     -27.697   3.255   6.492  0.00  0.00     0.021 A 
ATOM     31  C   LIG     1     -26.810   2.514   5.708  0.00  0.00     0.015 A 
ATOM     32  C   LIG     1     -26.954   1.131   5.605  0.00  0.00     0.050 A 
ATOM     33  C   LIG     1     -27.985   0.484   6.288  0.00  0.00     0.158 A 
ATOM     34  C   LIG     1     -28.873   1.222   7.071  0.00  0.00     0.159 A 
ATOM     35  C   LIG     1     -28.729   2.606   7.173  0.00  0.00     0.060 A 
BRANCH  33  36
ATOM     36  O   LIG     1     -28.116  -0.867   6.179  0.00  0.00    -0.503 OA
ATOM     37  H   LIG     1     -29.028  -1.077   5.912  0.00  0.00     0.292 HD
ENDBRANCH  33  36
BRANCH  34  38
ATOM     38  O   LIG     1     -29.883   0.600   7.742  0.00  0.00    -0.503 OA
ATOM     39  H   LIG     1     -29.491  -0.056   8.343  0.00  0.00     0.292 HD
ENDBRANCH  34  38
ENDBRANCH   7  30
TORSDOF 11
ENDMDL
MODEL 4
REMARK VINA RESULT:      -8.1      4.988      9.103
REMARK  11 active torsions:
REMARK  status: ('A' for Active; 'I' for Inactive)
REMARK    1  A    between atoms: C_13  and  O_12 
REMARK    2  A    between atoms: C_15  and  O_33 
REMARK    3  A    between atoms: C_19  and  C_20 
REMARK    4  A    between atoms: C_23  and  O_27 
REMARK    5  A    between atoms: C_24  and  O_25 
REMARK    6  A    between atoms: O_12  and  C_2 
REMARK    7  A    between atoms: C_3  and  O_10 
REMARK    8  A    between atoms: C_4  and  O_8 
REMARK    9  A    between atoms: C_5  and  O_6 
REMARK   10  A    between atoms: C_36  and  C_37 
REMARK   11  A    between atoms: C_37  and  O_38 
ROOT
ATOM      1  C   LIG     1     -27.479   9.938   6.710  0.00  0.00     0.131 A 
ATOM      2  C   LIG     1     -28.461  10.466   5.871  0.00  0.00     0.092 A 
ATOM      3  C   LIG     1     -29.247   9.618   5.090  0.00  0.00     0.135 A 
ATOM      4  C   LIG     1     -29.045   8.238   5.155  0.00  0.00     0.105 A 
ATOM      5  C   LIG     1     -29.857   7.319   4.343  0.00  0.00     0.197 A 
ATOM      6  C   LIG     1     -29.558   5.879   4.491  0.00  0.00     0.098 A 
ATOM      7  C   LIG     1     -28.591   5.492   5.338  0.00  0.00     0.139 A 
ATOM      8  O   LIG     1     -27.822   6.361   6.096  0.00  0.00    -0.454 OA
ATOM      9  O   LIG     1     -30.731   7.715   3.585  0.00  0.00    -0.287 OA
ATOM     10  C   LIG     1     -28.065   7.708   5.993  0.00  0.00     0.146 A 
ATOM     11  C   LIG     1     -27.280   8.558   6.772  0.00  0.00     0.093 A 
ENDROOT
BRANCH   1  12
ATOM     12  O   LIG     1     -26.713  10.771   7.471  0.00  0.00    -0.461 OA
BRANCH  12  13
ATOM     13  C   LIG     1     -27.013  10.818   8.865  0.00  0.00     0.339 C 
ATOM     14  C   LIG     1     -25.689  10.853   9.629  0.00  0.00     0.214 C 
ATOM     15  C   LIG     1     -25.917  11.056  11.127  0.00  0.00     0.180 C 
ATOM     16  C   LIG     1     -26.881  12.213  11.389  0.00  0.00     0.177 C 
ATOM     17  C   LIG     1     -28.142  12.074  10.533  0.00  0.00     0.179 C 
ATOM     18  O   LIG     1     -27.786  11.980   9.152  0.00  0.00    -0.331 OA
BRANCH  14  19
ATOM     19  O   LIG     1     -25.016   9.612   9.416  0.00  0.00    -0.383 OA
ATOM     20  H   LIG     1     -25.569   8.902   9.785  0.00  0.00     0.210 HD
ENDBRANCH  14  19
BRANCH  15  21
ATOM     21  O   LIG     1     -24.673  11.364  11.760  0.00  0.00    -0.386 OA
ATOM     22  H   LIG     1     -24.876  11.697  12.652  0.00  0.00     0.210 HD
ENDBRANCH  15  21
BRANCH  16  23
ATOM     23  O   LIG     1     -27.244  12.222  12.767  0.00  0.00    -0.386 OA
ATOM     24  H   LIG     1     -27.715  13.054  12.947  0.00  0.00     0.210 HD
ENDBRANCH  16  23
BRANCH  17  25
ATOM     25  C   LIG     1     -29.066  13.278  10.690  0.00  0.00     0.190 C 
BRANCH  25  26
ATOM     26  O   LIG     1     -28.290  14.391  11.093  0.00  0.00    -0.392 OA
ATOM     27  H   LIG     1     -28.871  14.990  11.593  0.00  0.00     0.210 HD
ENDBRANCH  25  26
ENDBRANCH  17  25
ENDBRANCH  12  13
ENDBRANCH   1  12
BRANCH   3  28
ATOM     28  O   LIG     1     -30.191  10.184   4.287  0.00  0.00    -0.506 OA
ATOM     29  H   LIG     1     -29.780  10.795   3.658  0.00  0.00     0.292 HD
ENDBRANCH   3  28
BRANCH   7  30
ATOM     30  C   LIG     1     -28.243   4.068   5.521  0.00  0.00     0.021 A 
ATOM     31  C   LIG     1     -26.906   3.681   5.624  0.00  0.00     0.015 A 
ATOM     32  C   LIG     1     -26.578   2.336   5.795  0.00  0.00     0.050 A 
ATOM     33  C   LIG     1     -27.587   1.375   5.865  0.00  0.00     0.158 A 
ATOM     34  C   LIG     1     -28.924   1.759   5.762  0.00  0.00     0.159 A 
ATOM     35  C   LIG     1     -29.252   3.104   5.591  0.00  0.00     0.060 A 
BRANCH  33  36
ATOM     36  O   LIG     1     -27.253   0.065   6.032  0.00  0.00    -0.503 OA
ATOM     37  H   LIG     1     -27.311  -0.389   5.173  0.00  0.00     0.292 HD
ENDBRANCH  33  36
BRANCH  34  38
ATOM     38  O   LIG     1     -29.917   0.829   5.831  0.00  0.00    -0.503 OA
ATOM     39  H   LIG     1     -30.752   1.254   5.574  0.00  0.00     0.292 HD
ENDBRANCH  34  38
ENDBRANCH   7  30
TORSDOF 11
ENDMDL
MODEL 5
REMARK VINA RESULT:      -8.0      2.459      9.142
REMARK  11 active torsions:
REMARK  status: ('A' for Active; 'I' for Inactive)
REMARK    1  A    between atoms: C_13  and  O_12 
REMARK    2  A    between atoms: C_15  and  O_33 
REMARK    3  A    between atoms: C_19  and  C_20 
REMARK    4  A    between atoms: C_23  and  O_27 
REMARK    5  A    between atoms: C_24  and  O_25 
REMARK    6  A    between atoms: O_12  and  C_2 
REMARK    7  A    between atoms: C_3  and  O_10 
REMARK    8  A    between atoms: C_4  and  O_8 
REMARK    9  A    between atoms: C_5  and  O_6 
REMARK   10  A    between atoms: C_36  and  C_37 
REMARK   11  A    between atoms: C_37  and  O_38 
ROOT
ATOM      1  C   LIG     1     -29.943   7.533   4.006  0.00  0.00     0.131 A 
ATOM      2  C   LIG     1     -30.608   8.733   4.259  0.00  0.00     0.092 A 
ATOM      3  C   LIG     1     -31.077   9.511   3.200  0.00  0.00     0.135 A 
ATOM      4  C   LIG     1     -30.877   9.080   1.886  0.00  0.00     0.105 A 
ATOM      5  C   LIG     1     -31.359   9.879   0.750  0.00  0.00     0.197 A 
ATOM      6  C   LIG     1     -31.094   9.327  -0.595  0.00  0.00     0.098 A 
ATOM      7  C   LIG     1     -30.448   8.156  -0.710  0.00  0.00     0.139 A 
ATOM      8  O   LIG     1     -29.988   7.409   0.363  0.00  0.00    -0.454 OA
ATOM      9  O   LIG     1     -31.946  10.941   0.900  0.00  0.00    -0.287 OA
ATOM     10  C   LIG     1     -30.213   7.880   1.632  0.00  0.00     0.146 A 
ATOM     11  C   LIG     1     -29.744   7.105   2.692  0.00  0.00     0.093 A 
ENDROOT
BRANCH   1  12
ATOM     12  O   LIG     1     -29.485   6.776   5.044  0.00  0.00    -0.461 OA
BRANCH  12  13
ATOM     13  C   LIG     1     -28.076   6.555   5.100  0.00  0.00     0.339 C 
ATOM     14  C   LIG     1     -27.576   7.052   6.457  0.00  0.00     0.214 C 
ATOM     15  C   LIG     1     -26.099   6.716   6.662  0.00  0.00     0.180 C 
ATOM     16  C   LIG     1     -25.813   5.251   6.330  0.00  0.00     0.177 C 
ATOM     17  C   LIG     1     -26.400   4.879   4.967  0.00  0.00     0.179 C 
ATOM     18  O   LIG     1     -27.800   5.165   4.945  0.00  0.00    -0.331 OA
BRANCH  14  19
ATOM     19  O   LIG     1     -27.751   8.468   6.508  0.00  0.00    -0.383 OA
ATOM     20  H   LIG     1     -28.684   8.664   6.311  0.00  0.00     0.210 HD
ENDBRANCH  14  19
BRANCH  15  21
ATOM     21  O   LIG     1     -25.746   6.937   8.029  0.00  0.00    -0.386 OA
ATOM     22  H   LIG     1     -26.484   7.416   8.445  0.00  0.00     0.210 HD
ENDBRANCH  15  21
BRANCH  16  23
ATOM     23  O   LIG     1     -24.404   5.039   6.310  0.00  0.00    -0.386 OA
ATOM     24  H   LIG     1     -24.169   4.514   7.094  0.00  0.00     0.210 HD
ENDBRANCH  16  23
BRANCH  17  25
ATOM     25  C   LIG     1     -26.230   3.393   4.666  0.00  0.00     0.190 C 
BRANCH  25  26
ATOM     26  O   LIG     1     -27.416   2.718   5.043  0.00  0.00    -0.392 OA
ATOM     27  H   LIG     1     -28.001   2.692   4.266  0.00  0.00     0.210 HD
ENDBRANCH  25  26
ENDBRANCH  17  25
ENDBRANCH  12  13
ENDBRANCH   1  12
BRANCH   3  28
ATOM     28  O   LIG     1     -31.720  10.674   3.499  0.00  0.00    -0.506 OA
ATOM     29  H   LIG     1     -32.128  11.052   2.706  0.00  0.00     0.292 HD
ENDBRANCH   3  28
BRANCH   7  30
ATOM     30  C   LIG     1     -30.148   7.561  -2.028  0.00  0.00     0.021 A 
ATOM     31  C   LIG     1     -30.285   6.185  -2.223  0.00  0.00     0.015 A 
ATOM     32  C   LIG     1     -30.000   5.622  -3.467  0.00  0.00     0.050 A 
ATOM     33  C   LIG     1     -29.578   6.435  -4.520  0.00  0.00     0.158 A 
ATOM     34  C   LIG     1     -29.440   7.810  -4.328  0.00  0.00     0.159 A 
ATOM     35  C   LIG     1     -29.725   8.372  -3.083  0.00  0.00     0.060 A 
BRANCH  33  36
ATOM     36  O   LIG     1     -29.302   5.874  -5.730  0.00  0.00    -0.503 OA
ATOM     37  H   LIG     1     -28.357   5.649  -5.767  0.00  0.00     0.292 HD
ENDBRANCH  33  36
BRANCH  34  38
ATOM     38  O   LIG     1     -29.031   8.613  -5.350  0.00  0.00    -0.503 OA
ATOM     39  H   LIG     1     -29.234   9.534  -5.115  0.00  0.00     0.292 HD
ENDBRANCH  34  38
ENDBRANCH   7  30
TORSDOF 11
ENDMDL
MODEL 6
REMARK VINA RESULT:      -7.7      3.536      5.879
REMARK  11 active torsions:
REMARK  status: ('A' for Active; 'I' for Inactive)
REMARK    1  A    between atoms: C_13  and  O_12 
REMARK    2  A    between atoms: C_15  and  O_33 
REMARK    3  A    between atoms: C_19  and  C_20 
REMARK    4  A    between atoms: C_23  and  O_27 
REMARK    5  A    between atoms: C_24  and  O_25 
REMARK    6  A    between atoms: O_12  and  C_2 
REMARK    7  A    between atoms: C_3  and  O_10 
REMARK    8  A    between atoms: C_4  and  O_8 
REMARK    9  A    between atoms: C_5  and  O_6 
REMARK   10  A    between atoms: C_36  and  C_37 
REMARK   11  A    between atoms: C_37  and  O_38 
ROOT
ATOM      1  C   LIG     1     -29.069   6.058   2.939  0.00  0.00     0.131 A 
ATOM      2  C   LIG     1     -29.526   4.779   3.259  0.00  0.00     0.092 A 
ATOM      3  C   LIG     1     -29.091   4.150   4.426  0.00  0.00     0.135 A 
ATOM      4  C   LIG     1     -28.194   4.809   5.271  0.00  0.00     0.105 A 
ATOM      5  C   LIG     1     -27.716   4.172   6.507  0.00  0.00     0.197 A 
ATOM      6  C   LIG     1     -26.772   4.960   7.325  0.00  0.00     0.098 A 
ATOM      7  C   LIG     1     -26.410   6.185   6.914  0.00  0.00     0.139 A 
ATOM      8  O   LIG     1     -26.856   6.781   5.744  0.00  0.00    -0.454 OA
ATOM      9  O   LIG     1     -28.074   3.052   6.845  0.00  0.00    -0.287 OA
ATOM     10  C   LIG     1     -27.737   6.087   4.952  0.00  0.00     0.146 A 
ATOM     11  C   LIG     1     -28.173   6.714   3.785  0.00  0.00     0.093 A 
ENDROOT
BRANCH   1  12
ATOM     12  O   LIG     1     -29.497   6.668   1.797  0.00  0.00    -0.461 OA
BRANCH  12  13
ATOM     13  C   LIG     1     -29.846   8.048   1.903  0.00  0.00     0.339 C 
ATOM     14  C   LIG     1     -30.165   8.561   0.498  0.00  0.00     0.214 C 
ATOM     15  C   LIG     1     -30.695   9.995   0.537  0.00  0.00     0.180 C 
ATOM     16  C   LIG     1     -31.800  10.148   1.582  0.00  0.00     0.177 C 
ATOM     17  C   LIG     1     -31.363   9.560   2.926  0.00  0.00     0.179 C 
ATOM     18  O   LIG     1     -30.977   8.194   2.758  0.00  0.00    -0.331 OA
BRANCH  14  19
ATOM     19  O   LIG     1     -28.967   8.520  -0.277  0.00  0.00    -0.383 OA
ATOM     20  H   LIG     1     -28.214   8.634   0.327  0.00  0.00     0.210 HD
ENDBRANCH  14  19
BRANCH  15  21
ATOM     21  O   LIG     1     -31.242  10.334  -0.738  0.00  0.00    -0.386 OA
ATOM     22  H   LIG     1     -31.290   9.515  -1.261  0.00  0.00     0.210 HD
ENDBRANCH  15  21
BRANCH  16  23
ATOM     23  O   LIG     1     -32.103  11.531   1.749  0.00  0.00    -0.386 OA
ATOM     24  H   LIG     1     -33.053  11.652   1.581  0.00  0.00     0.210 HD
ENDBRANCH  16  23
BRANCH  17  25
ATOM     25  C   LIG     1     -32.492   9.596   3.951  0.00  0.00     0.190 C 
BRANCH  25  26
ATOM     26  O   LIG     1     -32.389  10.797   4.693  0.00  0.00    -0.392 OA
ATOM     27  H   LIG     1     -33.200  10.889   5.222  0.00  0.00     0.210 HD
ENDBRANCH  25  26
ENDBRANCH  17  25
ENDBRANCH  12  13
ENDBRANCH   1  12
BRANCH   3  28
ATOM     28  O   LIG     1     -29.566   2.902   4.693  0.00  0.00    -0.506 OA
ATOM     29  H   LIG     1     -30.434   2.773   4.282  0.00  0.00     0.292 HD
ENDBRANCH   3  28
BRANCH   7  30
ATOM     30  C   LIG     1     -25.463   7.016   7.686  0.00  0.00     0.021 A 
ATOM     31  C   LIG     1     -24.097   6.729   7.660  0.00  0.00     0.015 A 
ATOM     32  C   LIG     1     -23.203   7.512   8.390  0.00  0.00     0.050 A 
ATOM     33  C   LIG     1     -23.673   8.585   9.148  0.00  0.00     0.158 A 
ATOM     34  C   LIG     1     -25.038   8.873   9.177  0.00  0.00     0.159 A 
ATOM     35  C   LIG     1     -25.932   8.089   8.446  0.00  0.00     0.060 A 
BRANCH  33  36
ATOM     36  O   LIG     1     -22.791   9.341   9.858  0.00  0.00    -0.503 OA
ATOM     37  H   LIG     1     -22.906   9.157  10.806  0.00  0.00     0.292 HD
ENDBRANCH  33  36
BRANCH  34  38
ATOM     38  O   LIG     1     -25.508   9.919   9.913  0.00  0.00    -0.503 OA
ATOM     39  H   LIG     1     -26.168   9.579  10.541  0.00  0.00     0.292 HD
ENDBRANCH  34  38
ENDBRANCH   7  30
TORSDOF 11
ENDMDL
MODEL 7
REMARK VINA RESULT:      -7.6     17.451     19.710
REMARK  11 active torsions:
REMARK  status: ('A' for Active; 'I' for Inactive)
REMARK    1  A    between atoms: C_13  and  O_12 
REMARK    2  A    between atoms: C_15  and  O_33 
REMARK    3  A    between atoms: C_19  and  C_20 
REMARK    4  A    between atoms: C_23  and  O_27 
REMARK    5  A    between atoms: C_24  and  O_25 
REMARK    6  A    between atoms: O_12  and  C_2 
REMARK    7  A    between atoms: C_3  and  O_10 
REMARK    8  A    between atoms: C_4  and  O_8 
REMARK    9  A    between atoms: C_5  and  O_6 
REMARK   10  A    between atoms: C_36  and  C_37 
REMARK   11  A    between atoms: C_37  and  O_38 
ROOT
ATOM      1  C   LIG     1     -42.600   7.784 -12.357  0.00  0.00     0.131 A 
ATOM      2  C   LIG     1     -43.586   7.013 -12.972  0.00  0.00     0.092 A 
ATOM      3  C   LIG     1     -44.847   6.890 -12.386  0.00  0.00     0.135 A 
ATOM      4  C   LIG     1     -45.113   7.543 -11.181  0.00  0.00     0.105 A 
ATOM      5  C   LIG     1     -46.431   7.431 -10.538  0.00  0.00     0.197 A 
ATOM      6  C   LIG     1     -46.602   8.164  -9.267  0.00  0.00     0.098 A 
ATOM      7  C   LIG     1     -45.577   8.879  -8.777  0.00  0.00     0.139 A 
ATOM      8  O   LIG     1     -44.333   8.977  -9.381  0.00  0.00    -0.454 OA
ATOM      9  O   LIG     1     -47.339   6.769 -11.021  0.00  0.00    -0.287 OA
ATOM     10  C   LIG     1     -44.128   8.314 -10.565  0.00  0.00     0.146 A 
ATOM     11  C   LIG     1     -42.869   8.435 -11.152  0.00  0.00     0.093 A 
ENDROOT
BRANCH   1  12
ATOM     12  O   LIG     1     -41.369   7.901 -12.934  0.00  0.00    -0.461 OA
BRANCH  12  13
ATOM     13  C   LIG     1     -41.181   7.228 -14.178  0.00  0.00     0.339 C 
ATOM     14  C   LIG     1     -40.109   7.984 -14.963  0.00  0.00     0.214 C 
ATOM     15  C   LIG     1     -39.736   7.245 -16.249  0.00  0.00     0.180 C 
ATOM     16  C   LIG     1     -39.460   5.766 -15.977  0.00  0.00     0.177 C 
ATOM     17  C   LIG     1     -40.589   5.145 -15.152  0.00  0.00     0.179 C 
ATOM     18  O   LIG     1     -40.771   5.883 -13.942  0.00  0.00    -0.331 OA
BRANCH  14  19
ATOM     19  O   LIG     1     -40.621   9.275 -15.292  0.00  0.00    -0.383 OA
ATOM     20  H   LIG     1     -41.585   9.260 -15.159  0.00  0.00     0.210 HD
ENDBRANCH  14  19
BRANCH  15  21
ATOM     21  O   LIG     1     -38.552   7.822 -16.803  0.00  0.00    -0.386 OA
ATOM     22  H   LIG     1     -38.757   8.081 -17.718  0.00  0.00     0.210 HD
ENDBRANCH  15  21
BRANCH  16  23
ATOM     23  O   LIG     1     -39.345   5.072 -17.216  0.00  0.00    -0.386 OA
ATOM     24  H   LIG     1     -38.563   5.416 -17.681  0.00  0.00     0.210 HD
ENDBRANCH  16  23
BRANCH  17  25
ATOM     25  C   LIG     1     -40.280   3.702 -14.768  0.00  0.00     0.190 C 
BRANCH  25  26
ATOM     26  O   LIG     1     -40.835   2.846 -15.750  0.00  0.00    -0.392 OA
ATOM     27  H   LIG     1     -41.350   3.396 -16.364  0.00  0.00     0.210 HD
ENDBRANCH  25  26
ENDBRANCH  17  25
ENDBRANCH  12  13
ENDBRANCH   1  12
BRANCH   3  28
ATOM     28  O   LIG     1     -45.776   6.126 -13.026  0.00  0.00    -0.506 OA
ATOM     29  H   LIG     1     -45.939   6.465 -13.919  0.00  0.00     0.292 HD
ENDBRANCH   3  28
BRANCH   7  30
ATOM     30  C   LIG     1     -45.688   9.626  -7.507  0.00  0.00     0.021 A 
ATOM     31  C   LIG     1     -46.870   9.577  -6.766  0.00  0.00     0.015 A 
ATOM     32  C   LIG     1     -46.975  10.283  -5.568  0.00  0.00     0.050 A 
ATOM     33  C   LIG     1     -45.896  11.038  -5.106  0.00  0.00     0.158 A 
ATOM     34  C   LIG     1     -44.714  11.089  -5.845  0.00  0.00     0.159 A 
ATOM     35  C   LIG     1     -44.609  10.383  -7.044  0.00  0.00     0.060 A 
BRANCH  33  36
ATOM     36  O   LIG     1     -46.011  11.724  -3.935  0.00  0.00    -0.503 OA
ATOM     37  H   LIG     1     -46.195  12.658  -4.131  0.00  0.00     0.292 HD
ENDBRANCH  33  36
BRANCH  34  38
ATOM     38  O   LIG     1     -43.654  11.822  -5.403  0.00  0.00    -0.503 OA
ATOM     39  H   LIG     1     -42.885  11.232  -5.326  0.00  0.00     0.292 HD
ENDBRANCH  34  38
ENDBRANCH   7  30
TORSDOF 11
ENDMDL
MODEL 8
REMARK VINA RESULT:      -7.5      5.267      7.758
REMARK  11 active torsions:
REMARK  status: ('A' for Active; 'I' for Inactive)
REMARK    1  A    between atoms: C_13  and  O_12 
REMARK    2  A    between atoms: C_15  and  O_33 
REMARK    3  A    between atoms: C_19  and  C_20 
REMARK    4  A    between atoms: C_23  and  O_27 
REMARK    5  A    between atoms: C_24  and  O_25 
REMARK    6  A    between atoms: O_12  and  C_2 
REMARK    7  A    between atoms: C_3  and  O_10 
REMARK    8  A    between atoms: C_4  and  O_8 
REMARK    9  A    between atoms: C_5  and  O_6 
REMARK   10  A    between atoms: C_36  and  C_37 
REMARK   11  A    between atoms: C_37  and  O_38 
ROOT
ATOM      1  C   LIG     1     -30.111  12.489   5.504  0.00  0.00     0.131 A 
ATOM      2  C   LIG     1     -30.992  12.596   4.427  0.00  0.00     0.092 A 
ATOM      3  C   LIG     1     -31.309  11.470   3.667  0.00  0.00     0.135 A 
ATOM      4  C   LIG     1     -30.740  10.236   3.992  0.00  0.00     0.105 A 
ATOM      5  C   LIG     1     -31.055   9.032   3.208  0.00  0.00     0.197 A 
ATOM      6  C   LIG     1     -30.398   7.782   3.642  0.00  0.00     0.098 A 
ATOM      7  C   LIG     1     -29.573   7.805   4.700  0.00  0.00     0.139 A 
ATOM      8  O   LIG     1     -29.272   8.943   5.432  0.00  0.00    -0.454 OA
ATOM      9  O   LIG     1     -31.815   9.055   2.251  0.00  0.00    -0.287 OA
ATOM     10  C   LIG     1     -29.860  10.128   5.068  0.00  0.00     0.146 A 
ATOM     11  C   LIG     1     -29.544  11.255   5.826  0.00  0.00     0.093 A 
ENDROOT
BRANCH   1  12
ATOM     12  O   LIG     1     -29.803  13.593   6.244  0.00  0.00    -0.461 OA
BRANCH  12  13
ATOM     13  C   LIG     1     -30.740  14.669   6.204  0.00  0.00     0.339 C 
ATOM     14  C   LIG     1     -31.048  15.076   7.645  0.00  0.00     0.214 C 
ATOM     15  C   LIG     1     -31.931  16.324   7.694  0.00  0.00     0.180 C 
ATOM     16  C   LIG     1     -31.386  17.423   6.781  0.00  0.00     0.177 C 
ATOM     17  C   LIG     1     -31.085  16.871   5.386  0.00  0.00     0.179 C 
ATOM     18  O   LIG     1     -30.184  15.766   5.483  0.00  0.00    -0.331 OA
BRANCH  14  19
ATOM     19  O   LIG     1     -31.725  13.993   8.282  0.00  0.00    -0.383 OA
ATOM     20  H   LIG     1     -31.099  13.561   8.888  0.00  0.00     0.210 HD
ENDBRANCH  14  19
BRANCH  15  21
ATOM     21  O   LIG     1     -31.962  16.833   9.029  0.00  0.00    -0.386 OA
ATOM     22  H   LIG     1     -32.133  16.081   9.622  0.00  0.00     0.210 HD
ENDBRANCH  15  21
BRANCH  16  23
ATOM     23  O   LIG     1     -32.348  18.469   6.676  0.00  0.00    -0.386 OA
ATOM     24  H   LIG     1     -32.454  18.686   5.734  0.00  0.00     0.210 HD
ENDBRANCH  16  23
BRANCH  17  25
ATOM     25  C   LIG     1     -30.431  17.920   4.493  0.00  0.00     0.190 C 
BRANCH  25  26
ATOM     26  O   LIG     1     -31.449  18.626   3.808  0.00  0.00    -0.392 OA
ATOM     27  H   LIG     1     -32.276  18.513   4.308  0.00  0.00     0.210 HD
ENDBRANCH  25  26
ENDBRANCH  17  25
ENDBRANCH  12  13
ENDBRANCH   1  12
BRANCH   3  28
ATOM     28  O   LIG     1     -32.173  11.626   2.626  0.00  0.00    -0.506 OA
ATOM     29  H   LIG     1     -31.706  11.547   1.780  0.00  0.00     0.292 HD
ENDBRANCH   3  28
BRANCH   7  30
ATOM     30  C   LIG     1     -28.882   6.588   5.173  0.00  0.00     0.021 A 
ATOM     31  C   LIG     1     -27.855   6.686   6.115  0.00  0.00     0.015 A 
ATOM     32  C   LIG     1     -27.202   5.537   6.560  0.00  0.00     0.050 A 
ATOM     33  C   LIG     1     -27.574   4.286   6.066  0.00  0.00     0.158 A 
ATOM     34  C   LIG     1     -28.599   4.186   5.125  0.00  0.00     0.159 A 
ATOM     35  C   LIG     1     -29.252   5.335   4.680  0.00  0.00     0.060 A 
BRANCH  33  36
ATOM     36  O   LIG     1     -26.928   3.172   6.508  0.00  0.00    -0.503 OA
ATOM     37  H   LIG     1     -27.554   2.619   7.007  0.00  0.00     0.292 HD
ENDBRANCH  33  36
BRANCH  34  38
ATOM     38  O   LIG     1     -28.972   2.969   4.638  0.00  0.00    -0.503 OA
ATOM     39  H   LIG     1     -29.407   3.104   3.778  0.00  0.00     0.292 HD
ENDBRANCH  34  38
ENDBRANCH   7  30
TORSDOF 11
ENDMDL
MODEL 9
REMARK VINA RESULT:      -7.3      4.942      8.210
REMARK  11 active torsions:
REMARK  status: ('A' for Active; 'I' for Inactive)
REMARK    1  A    between atoms: C_13  and  O_12 
REMARK    2  A    between atoms: C_15  and  O_33 
REMARK    3  A    between atoms: C_19  and  C_20 
REMARK    4  A    between atoms: C_23  and  O_27 
REMARK    5  A    between atoms: C_24  and  O_25 
REMARK    6  A    between atoms: O_12  and  C_2 
REMARK    7  A    between atoms: C_3  and  O_10 
REMARK    8  A    between atoms: C_4  and  O_8 
REMARK    9  A    between atoms: C_5  and  O_6 
REMARK   10  A    between atoms: C_36  and  C_37 
REMARK   11  A    between atoms: C_37  and  O_38 
ROOT
ATOM      1  C   LIG     1     -29.323  12.059   5.620  0.00  0.00     0.131 A 
ATOM      2  C   LIG     1     -30.117  12.299   4.498  0.00  0.00     0.092 A 
ATOM      3  C   LIG     1     -30.527  11.238   3.689  0.00  0.00     0.135 A 
ATOM      4  C   LIG     1     -30.137   9.936   4.011  0.00  0.00     0.105 A 
ATOM      5  C   LIG     1     -30.551   8.797   3.178  0.00  0.00     0.197 A 
ATOM      6  C   LIG     1     -30.083   7.465   3.612  0.00  0.00     0.098 A 
ATOM      7  C   LIG     1     -29.326   7.362   4.716  0.00  0.00     0.139 A 
ATOM      8  O   LIG     1     -28.930   8.438   5.496  0.00  0.00    -0.454 OA
ATOM      9  O   LIG     1     -31.244   8.936   2.179  0.00  0.00    -0.287 OA
ATOM     10  C   LIG     1     -29.343   9.695   5.133  0.00  0.00     0.146 A 
ATOM     11  C   LIG     1     -28.935  10.757   5.938  0.00  0.00     0.093 A 
ENDROOT
BRANCH   1  12
ATOM     12  O   LIG     1     -28.925  13.100   6.406  0.00  0.00    -0.461 OA
BRANCH  12  13
ATOM     13  C   LIG     1     -29.797  13.461   7.477  0.00  0.00     0.339 C 
ATOM     14  C   LIG     1     -28.933  13.794   8.694  0.00  0.00     0.214 C 
ATOM     15  C   LIG     1     -29.780  14.336   9.846  0.00  0.00     0.180 C 
ATOM     16  C   LIG     1     -30.728  15.435   9.366  0.00  0.00     0.177 C 
ATOM     17  C   LIG     1     -31.499  14.984   8.124  0.00  0.00     0.179 C 
ATOM     18  O   LIG     1     -30.584  14.587   7.100  0.00  0.00    -0.331 OA
BRANCH  14  19
ATOM     19  O   LIG     1     -28.271  12.601   9.114  0.00  0.00    -0.383 OA
ATOM     20  H   LIG     1     -28.515  12.431  10.040  0.00  0.00     0.210 HD
ENDBRANCH  14  19
BRANCH  15  21
ATOM     21  O   LIG     1     -28.924  14.894  10.844  0.00  0.00    -0.386 OA
ATOM     22  H   LIG     1     -28.819  15.840  10.642  0.00  0.00     0.210 HD
ENDBRANCH  15  21
BRANCH  16  23
ATOM     23  O   LIG     1     -31.651  15.749  10.406  0.00  0.00    -0.386 OA
ATOM     24  H   LIG     1     -31.777  14.950  10.946  0.00  0.00     0.210 HD
ENDBRANCH  16  23
BRANCH  17  25
ATOM     25  C   LIG     1     -32.364  16.106   7.558  0.00  0.00     0.190 C 
BRANCH  25  26
ATOM     26  O   LIG     1     -32.848  15.705   6.289  0.00  0.00    -0.392 OA
ATOM     27  H   LIG     1     -33.411  16.421   5.948  0.00  0.00     0.210 HD
ENDBRANCH  25  26
ENDBRANCH  17  25
ENDBRANCH  12  13
ENDBRANCH   1  12
BRANCH   3  28
ATOM     28  O   LIG     1     -31.301  11.524   2.605  0.00  0.00    -0.506 OA
ATOM     29  H   LIG     1     -32.110  11.983   2.876  0.00  0.00     0.292 HD
ENDBRANCH   3  28
BRANCH   7  30
ATOM     30  C   LIG     1     -28.822   6.058   5.194  0.00  0.00     0.021 A 
ATOM     31  C   LIG     1     -29.268   4.875   4.601  0.00  0.00     0.015 A 
ATOM     32  C   LIG     1     -28.793   3.644   5.053  0.00  0.00     0.050 A 
ATOM     33  C   LIG     1     -27.869   3.593   6.097  0.00  0.00     0.158 A 
ATOM     34  C   LIG     1     -27.423   4.773   6.691  0.00  0.00     0.159 A 
ATOM     35  C   LIG     1     -27.898   6.004   6.240  0.00  0.00     0.060 A 
BRANCH  33  36
ATOM     36  O   LIG     1     -27.414   2.384   6.530  0.00  0.00    -0.503 OA
ATOM     37  H   LIG     1     -28.152   1.750   6.535  0.00  0.00     0.292 HD
ENDBRANCH  33  36
BRANCH  34  38
ATOM     38  O   LIG     1     -26.520   4.735   7.711  0.00  0.00    -0.503 OA
ATOM     39  H   LIG     1     -26.021   5.569   7.709  0.00  0.00     0.292 HD
ENDBRANCH  34  38
ENDBRANCH   7  30
TORSDOF 11
ENDMDL
