REMARK VINA RESULT:      -7.7      0.000      0.000
REMARK  12 active torsions:
REMARK  status: ('A' for Active; 'I' for Inactive)
REMARK    1  A    between atoms: O_1  and  C_10 
REMARK    2  A    between atoms: O_2  and  C_17 
REMARK    3  A    between atoms: O_3  and  C_20 
REMARK    4  A    between atoms: O_4  and  C_27 
REMARK    5  A    between atoms: O_6  and  C_29 
REMARK    6  A    between atoms: O_7  and  C_28 
REMARK    7  A    between atoms: O_8  and  C_33 
REMARK    8  A    between atoms: C_11  and  C_20 
REMARK    9  A    between atoms: C_20  and  C_28 
REMARK   10  A    between atoms: C_28  and  C_31 
REMARK   11  A    between atoms: C_31  and  C_32 
REMARK   12  A    between atoms: C_32  and  C_33 
ROOT
HETATM    1  O   UNK     0     174.738 178.594 171.450  0.00  0.00    -0.384 OA
HETATM    2  H   UNK     0     174.616 177.853 172.060  0.00  0.00     0.211 HD
ENDROOT
BRANCH   1   3
HETATM    3  C   UNK     0     175.397 178.169 170.236  0.00  0.00     0.090 C 
HETATM    4  C   UNK     0     176.839 177.703 170.562  0.00  0.00    -0.000 C 
HETATM    5  C   UNK     0     177.465 179.030 171.066  0.00  0.00     0.034 C 
HETATM    6  C   UNK     0     176.767 176.601 171.629  0.00  0.00     0.045 C 
HETATM    7  C   UNK     0     177.603 177.171 169.318  0.00  0.00     0.019 C 
HETATM    8  C   UNK     0     176.878 180.098 170.115  0.00  0.00     0.012 C 
HETATM    9  C   UNK     0     175.648 179.456 169.436  0.00  0.00     0.044 C 
HETATM   10  C   UNK     0     175.910 175.410 171.154  0.00  0.00     0.128 C 
HETATM   11  C   UNK     0     174.478 175.803 170.630  0.00  0.00     0.055 C 
HETATM   12  C   UNK     0     173.658 174.582 170.021  0.00  0.00    -0.021 C 
HETATM   13  C   UNK     0     174.564 177.026 169.693  0.00  0.00    -0.034 C 
HETATM   14  C   UNK     0     172.480 175.106 169.148  0.00  0.00     0.071 C 
HETATM   15  C   UNK     0     173.099 173.642 171.152  0.00  0.00     0.045 C 
HETATM   16  C   UNK     0     174.567 173.713 169.107  0.00  0.00     0.017 C 
HETATM   17  C   UNK     0     171.327 175.763 169.927  0.00  0.00     0.047 C 
HETATM   18  C   UNK     0     172.972 176.077 168.096  0.00  0.00     0.154 C 
HETATM   19  C   UNK     0     171.132 175.198 171.329  0.00  0.00     0.147 C 
HETATM   20  C   UNK     0     171.597 173.752 171.429  0.00  0.00     0.147 C 
HETATM   21  O   UNK     0     172.540 176.068 166.945  0.00  0.00    -0.293 OA
HETATM   22  C   UNK     0     173.929 177.120 168.515  0.00  0.00     0.057 C 
BRANCH   5  23
HETATM   23  C   UNK     0     178.985 179.079 171.145  0.00  0.00     0.084 C 
HETATM   24  C   UNK     0     179.556 179.659 169.841  0.00  0.00     0.049 C 
BRANCH  23  25
HETATM   25  O   UNK     0     179.355 179.968 172.207  0.00  0.00    -0.387 OA
HETATM   26  H   UNK     0     179.333 180.880 171.876  0.00  0.00     0.210 HD
ENDBRANCH  23  25
BRANCH  23  27
HETATM   27  C   UNK     0     179.603 177.685 171.442  0.00  0.00     0.152 C 
BRANCH  27  28
HETATM   28  O   UNK     0     179.840 177.556 172.848  0.00  0.00    -0.393 OA
HETATM   29  H   UNK     0     180.646 178.059 173.054  0.00  0.00     0.210 HD
ENDBRANCH  27  28
BRANCH  27  30
HETATM   30  C   UNK     0     180.925 177.408 170.700  0.00  0.00     0.037 C 
BRANCH  30  31
HETATM   31  C   UNK     0     181.038 175.940 170.250  0.00  0.00     0.040 C 
BRANCH  31  32
HETATM   32  C   UNK     0     181.751 175.015 171.258  0.00  0.00     0.051 C 
HETATM   33  C   UNK     0     180.723 174.101 171.933  0.00  0.00     0.045 C 
HETATM   34  C   UNK     0     182.849 174.171 170.604  0.00  0.00     0.045 C 
BRANCH  32  35
HETATM   35  O   UNK     0     182.348 175.827 172.271  0.00  0.00    -0.391 OA
HETATM   36  H   UNK     0     183.279 175.981 172.036  0.00  0.00     0.210 HD
ENDBRANCH  32  35
ENDBRANCH  31  32
ENDBRANCH  30  31
ENDBRANCH  27  30
ENDBRANCH  23  27
ENDBRANCH   5  23
BRANCH  10  37
HETATM   37  O   UNK     0     175.812 174.501 172.246  0.00  0.00    -0.395 OA
HETATM   38  H   UNK     0     175.934 173.602 171.895  0.00  0.00     0.210 HD
ENDBRANCH  10  37
BRANCH  19  39
HETATM   39  O   UNK     0     169.754 175.303 171.677  0.00  0.00    -0.393 OA
HETATM   40  H   UNK     0     169.678 175.886 172.451  0.00  0.00     0.210 HD
ENDBRANCH  19  39
BRANCH  20  41
HETATM   41  O   UNK     0     170.890 172.937 170.492  0.00  0.00    -0.393 OA
HETATM   42  H   UNK     0     169.952 172.941 170.747  0.00  0.00     0.210 HD
ENDBRANCH  20  41
ENDBRANCH   1   3
TORSDOF 12
