REMARK VINA RESULT:      -7.3      2.195      8.524
REMARK  12 active torsions:
REMARK  status: ('A' for Active; 'I' for Inactive)
REMARK    1  A    between atoms: O_1  and  C_10 
REMARK    2  A    between atoms: O_2  and  C_17 
REMARK    3  A    between atoms: O_3  and  C_20 
REMARK    4  A    between atoms: O_4  and  C_27 
REMARK    5  A    between atoms: O_6  and  C_29 
REMARK    6  A    between atoms: O_7  and  C_28 
REMARK    7  A    between atoms: O_8  and  C_33 
REMARK    8  A    between atoms: C_11  and  C_20 
REMARK    9  A    between atoms: C_20  and  C_28 
REMARK   10  A    between atoms: C_28  and  C_31 
REMARK   11  A    between atoms: C_31  and  C_32 
REMARK   12  A    between atoms: C_32  and  C_33 
ROOT
HETATM    1  O   UNK     0     177.834 175.082 173.514  0.00  0.00    -0.384 OA
HETATM    2  H   UNK     0     177.316 175.808 173.138  0.00  0.00     0.211 HD
ENDROOT
BRANCH   1   3
HETATM    3  C   UNK     0     178.161 174.097 172.509  0.00  0.00     0.090 C 
HETATM    4  C   UNK     0     176.941 173.881 171.576  0.00  0.00    -0.000 C 
HETATM    5  C   UNK     0     175.912 173.294 172.577  0.00  0.00     0.034 C 
HETATM    6  C   UNK     0     176.533 175.237 170.984  0.00  0.00     0.045 C 
HETATM    7  C   UNK     0     177.226 172.877 170.425  0.00  0.00     0.019 C 
HETATM    8  C   UNK     0     176.758 172.351 173.463  0.00  0.00     0.012 C 
HETATM    9  C   UNK     0     178.234 172.758 173.258  0.00  0.00     0.044 C 
HETATM   10  C   UNK     0     177.697 175.888 170.208  0.00  0.00     0.128 C 
HETATM   11  C   UNK     0     179.044 175.991 171.016  0.00  0.00     0.055 C 
HETATM   12  C   UNK     0     180.268 176.542 170.160  0.00  0.00    -0.021 C 
HETATM   13  C   UNK     0     179.340 174.663 171.744  0.00  0.00    -0.034 C 
HETATM   14  C   UNK     0     181.614 176.206 170.865  0.00  0.00     0.071 C 
HETATM   15  C   UNK     0     180.162 178.096 169.937  0.00  0.00     0.045 C 
HETATM   16  C   UNK     0     180.297 175.877 168.755  0.00  0.00     0.017 C 
HETATM   17  C   UNK     0     181.893 176.994 172.157  0.00  0.00     0.047 C 
HETATM   18  C   UNK     0     181.716 174.725 171.167  0.00  0.00     0.154 C 
HETATM   19  C   UNK     0     181.274 178.388 172.173  0.00  0.00     0.147 C 
HETATM   20  C   UNK     0     181.118 178.956 170.770  0.00  0.00     0.147 C 
HETATM   21  O   UNK     0     182.762 174.098 171.012  0.00  0.00    -0.293 OA
HETATM   22  C   UNK     0     180.538 174.061 171.756  0.00  0.00     0.057 C 
BRANCH   5  23
HETATM   23  C   UNK     0     174.694 172.605 171.975  0.00  0.00     0.084 C 
HETATM   24  C   UNK     0     175.145 171.520 170.984  0.00  0.00     0.049 C 
BRANCH  23  25
HETATM   25  O   UNK     0     173.977 171.951 173.030  0.00  0.00    -0.387 OA
HETATM   26  H   UNK     0     173.727 171.060 172.736  0.00  0.00     0.210 HD
ENDBRANCH  23  25
BRANCH  23  27
HETATM   27  C   UNK     0     173.732 173.611 171.287  0.00  0.00     0.152 C 
BRANCH  27  28
HETATM   28  O   UNK     0     172.443 173.542 171.906  0.00  0.00    -0.393 OA
HETATM   29  H   UNK     0     172.580 173.298 172.837  0.00  0.00     0.210 HD
ENDBRANCH  27  28
BRANCH  27  30
HETATM   30  C   UNK     0     173.556 173.383 169.773  0.00  0.00     0.037 C 
BRANCH  30  31
HETATM   31  C   UNK     0     172.088 173.535 169.333  0.00  0.00     0.040 C 
BRANCH  31  32
HETATM   32  C   UNK     0     171.709 174.949 168.843  0.00  0.00     0.051 C 
HETATM   33  C   UNK     0     172.883 175.553 168.065  0.00  0.00     0.045 C 
HETATM   34  C   UNK     0     170.451 174.949 167.971  0.00  0.00     0.045 C 
BRANCH  32  35
HETATM   35  O   UNK     0     171.468 175.772 169.986  0.00  0.00    -0.391 OA
HETATM   36  H   UNK     0     171.035 175.235 170.669  0.00  0.00     0.210 HD
ENDBRANCH  32  35
ENDBRANCH  31  32
ENDBRANCH  30  31
ENDBRANCH  27  30
ENDBRANCH  23  27
ENDBRANCH   5  23
BRANCH  10  37
HETATM   37  O   UNK     0     177.258 177.180 169.798  0.00  0.00    -0.395 OA
HETATM   38  H   UNK     0     177.341 177.227 168.830  0.00  0.00     0.210 HD
ENDBRANCH  10  37
BRANCH  19  39
HETATM   39  O   UNK     0     182.091 179.243 172.968  0.00  0.00    -0.393 OA
HETATM   40  H   UNK     0     182.219 180.077 172.486  0.00  0.00     0.210 HD
ENDBRANCH  19  39
BRANCH  20  41
HETATM   41  O   UNK     0     182.385 179.013 170.112  0.00  0.00    -0.393 OA
HETATM   42  H   UNK     0     182.513 178.170 169.647  0.00  0.00     0.210 HD
ENDBRANCH  20  41
ENDBRANCH   1   3
TORSDOF 12
