REMARK VINA RESULT:      -7.5      5.921     11.417
REMARK  12 active torsions:
REMARK  status: ('A' for Active; 'I' for Inactive)
REMARK    1  A    between atoms: O_1  and  C_10 
REMARK    2  A    between atoms: O_2  and  C_17 
REMARK    3  A    between atoms: O_3  and  C_20 
REMARK    4  A    between atoms: O_4  and  C_27 
REMARK    5  A    between atoms: O_6  and  C_29 
REMARK    6  A    between atoms: O_7  and  C_28 
REMARK    7  A    between atoms: O_8  and  C_33 
REMARK    8  A    between atoms: C_11  and  C_20 
REMARK    9  A    between atoms: C_20  and  C_28 
REMARK   10  A    between atoms: C_28  and  C_31 
REMARK   11  A    between atoms: C_31  and  C_32 
REMARK   12  A    between atoms: C_32  and  C_33 
ROOT
HETATM    1  O   UNK     0     183.882 180.565 172.606  0.00  0.00    -0.384 OA
HETATM    2  H   UNK     0     183.267 180.558 173.353  0.00  0.00     0.211 HD
ENDROOT
BRANCH   1   3
HETATM    3  C   UNK     0     183.418 181.444 171.555  0.00  0.00     0.090 C 
HETATM    4  C   UNK     0     181.872 181.549 171.610  0.00  0.00    -0.000 C 
HETATM    5  C   UNK     0     181.471 180.085 171.291  0.00  0.00     0.034 C 
HETATM    6  C   UNK     0     181.463 182.016 173.014  0.00  0.00     0.045 C 
HETATM    7  C   UNK     0     181.290 182.524 170.549  0.00  0.00     0.019 C 
HETATM    8  C   UNK     0     182.474 179.660 170.193  0.00  0.00     0.012 C 
HETATM    9  C   UNK     0     183.642 180.670 170.248  0.00  0.00     0.044 C 
HETATM   10  C   UNK     0     182.109 183.372 173.368  0.00  0.00     0.128 C 
HETATM   11  C   UNK     0     183.670 183.423 173.173  0.00  0.00     0.055 C 
HETATM   12  C   UNK     0     184.302 184.864 173.414  0.00  0.00    -0.021 C 
HETATM   13  C   UNK     0     184.066 182.787 171.824  0.00  0.00    -0.034 C 
HETATM   14  C   UNK     0     185.726 184.940 172.789  0.00  0.00     0.071 C 
HETATM   15  C   UNK     0     184.378 185.210 174.947  0.00  0.00     0.045 C 
HETATM   16  C   UNK     0     183.436 185.963 172.737  0.00  0.00     0.017 C 
HETATM   17  C   UNK     0     186.805 184.116 173.514  0.00  0.00     0.047 C 
HETATM   18  C   UNK     0     185.703 184.536 171.330  0.00  0.00     0.154 C 
HETATM   19  C   UNK     0     186.564 183.967 175.012  0.00  0.00     0.147 C 
HETATM   20  C   UNK     0     185.773 185.138 175.578  0.00  0.00     0.147 C 
HETATM   21  O   UNK     0     186.357 185.132 170.478  0.00  0.00    -0.293 OA
HETATM   22  C   UNK     0     184.941 183.326 170.963  0.00  0.00     0.057 C 
BRANCH   5  23
HETATM   23  C   UNK     0     180.021 179.848 170.890  0.00  0.00     0.084 C 
HETATM   24  C   UNK     0     179.159 179.646 172.148  0.00  0.00     0.049 C 
BRANCH  23  25
HETATM   25  O   UNK     0     179.538 181.021 170.224  0.00  0.00    -0.387 OA
HETATM   26  H   UNK     0     179.441 180.828 169.277  0.00  0.00     0.210 HD
ENDBRANCH  23  25
BRANCH  23  27
HETATM   27  C   UNK     0     179.869 178.643 169.922  0.00  0.00     0.152 C 
BRANCH  27  28
HETATM   28  O   UNK     0     178.647 178.770 169.187  0.00  0.00    -0.393 OA
HETATM   29  H   UNK     0     177.988 179.163 169.784  0.00  0.00     0.210 HD
ENDBRANCH  27  28
BRANCH  27  30
HETATM   30  C   UNK     0     179.875 177.268 170.617  0.00  0.00     0.037 C 
BRANCH  30  31
HETATM   31  C   UNK     0     181.051 176.391 170.151  0.00  0.00     0.040 C 
BRANCH  31  32
HETATM   32  C   UNK     0     181.955 175.874 171.290  0.00  0.00     0.051 C 
HETATM   33  C   UNK     0     181.548 176.538 172.610  0.00  0.00     0.045 C 
HETATM   34  C   UNK     0     181.901 174.350 171.436  0.00  0.00     0.045 C 
BRANCH  32  35
HETATM   35  O   UNK     0     183.302 176.253 171.004  0.00  0.00    -0.391 OA
HETATM   36  H   UNK     0     183.578 176.927 171.647  0.00  0.00     0.210 HD
ENDBRANCH  32  35
ENDBRANCH  31  32
ENDBRANCH  30  31
ENDBRANCH  27  30
ENDBRANCH  23  27
ENDBRANCH   5  23
BRANCH  10  37
HETATM   37  O   UNK     0     181.763 183.662 174.719  0.00  0.00    -0.395 OA
HETATM   38  H   UNK     0     180.798 183.772 174.760  0.00  0.00     0.210 HD
ENDBRANCH  10  37
BRANCH  19  39
HETATM   39  O   UNK     0     187.823 183.854 175.669  0.00  0.00    -0.393 OA
HETATM   40  H   UNK     0     187.989 184.679 176.155  0.00  0.00     0.210 HD
ENDBRANCH  19  39
BRANCH  20  41
HETATM   41  O   UNK     0     186.458 186.367 175.333  0.00  0.00    -0.393 OA
HETATM   42  H   UNK     0     186.698 186.387 174.391  0.00  0.00     0.210 HD
ENDBRANCH  20  41
ENDBRANCH   1   3
TORSDOF 12
