MODEL 1
REMARK VINA RESULT:    -8.284      0.000      0.000
REMARK INTER + INTRA:         -12.425
REMARK INTER:                 -12.004
REMARK INTRA:                  -0.421
REMARK UNBOUND:                -0.751
REMARK  Name = 341
REMARK  10 active torsions:
REMARK  status: ('A' for Active; 'I' for Inactive)
REMARK    1  A    between atoms: O_1  and  C_10
REMARK    2  A    between atoms: O_1  and  C_19
REMARK    3  A    between atoms: O_2  and  C_12
REMARK    4  A    between atoms: O_3  and  C_15
REMARK    5  A    between atoms: O_4  and  C_20
REMARK    6  A    between atoms: O_5  and  C_21
REMARK    7  A    between atoms: O_6  and  C_22
REMARK    8  A    between atoms: O_8  and  C_23
REMARK    9  A    between atoms: C_11  and  C_19
REMARK   10  A    between atoms: C_13  and  C_23
REMARK                            x       y       z     vdW  Elec       q    Type
REMARK                         _______ _______ _______ _____ _____    ______ ____
ROOT
ATOM      1  O   UNL     1      85.407  13.518  29.381  0.00  0.00    +0.000 OA
ENDROOT
BRANCH   1   2
ATOM      2  C   UNL     1      86.291  12.450  29.213  0.00  0.00    +0.000 A 
ATOM      3  C   UNL     1      86.264  11.730  28.038  0.00  0.00    +0.000 A 
ATOM      4  C   UNL     1      88.054  11.097  30.081  0.00  0.00    +0.000 A 
ATOM      5  C   UNL     1      87.165  12.160  30.238  0.00  0.00    +0.000 A 
ATOM      6  C   UNL     1      87.154  10.667  27.882  0.00  0.00    +0.000 A 
ATOM      7  C   UNL     1      88.049  10.350  28.903  0.00  0.00    +0.000 A 
BRANCH   3   8
ATOM      8  O   UNL     1      85.389  12.040  27.039  0.00  0.00    +0.000 OA
ATOM      9  H   UNL     1      84.633  12.511  27.430  0.00  0.00    +0.000 HD
ENDBRANCH   3   8
BRANCH   6  10
ATOM     10  O   UNL     1      87.159   9.932  26.734  0.00  0.00    +0.000 OA
ATOM     11  H   UNL     1      86.931  10.511  25.987  0.00  0.00    +0.000 HD
ENDBRANCH   6  10
BRANCH   4  13
ATOM     12  O   UNL     1      88.820  11.005  32.346  0.00  0.00    +0.000 OA
ATOM     13  C   UNL     1      88.990  10.769  31.146  0.00  0.00    +0.000 C 
BRANCH  13  14
ATOM     14  O   UNL     1      90.111  10.152  30.682  0.00  0.00    +0.000 OA
ATOM     15  H   UNL     1      90.877  10.763  30.647  0.00  0.00    +0.000 HD
ENDBRANCH  13  14
ENDBRANCH   4  13
ENDBRANCH   1   2
BRANCH   1  17
ATOM     16  O   UNL     1      83.827  12.130  30.386  0.00  0.00    +0.000 OA
ATOM     17  C   UNL     1      84.112  13.137  29.724  0.00  0.00    +0.000 C 
BRANCH  17  18
ATOM     18  C   UNL     1      83.136  14.084  29.208  0.00  0.00    +0.000 A 
ATOM     19  C   UNL     1      81.772  13.830  29.355  0.00  0.00    +0.000 A 
ATOM     20  C   UNL     1      83.563  15.246  28.563  0.00  0.00    +0.000 A 
ATOM     21  C   UNL     1      82.627  16.152  28.066  0.00  0.00    +0.000 A 
ATOM     22  C   UNL     1      80.835  14.737  28.859  0.00  0.00    +0.000 A 
ATOM     23  C   UNL     1      81.263  15.898  28.214  0.00  0.00    +0.000 A 
BRANCH  21  24
ATOM     24  O   UNL     1      83.057  17.281  27.437  0.00  0.00    +0.000 OA
ATOM     25  H   UNL     1      82.276  17.797  27.168  0.00  0.00    +0.000 HD
ENDBRANCH  21  24
BRANCH  22  26
ATOM     26  O   UNL     1      79.507  14.475  29.007  0.00  0.00    +0.000 OA
ATOM     27  H   UNL     1      79.076  14.514  28.135  0.00  0.00    +0.000 HD
ENDBRANCH  22  26
BRANCH  23  28
ATOM     28  O   UNL     1      80.347  16.783  27.729  0.00  0.00    +0.000 OA
ATOM     29  H   UNL     1      80.683  17.684  27.874  0.00  0.00    +0.000 HD
ENDBRANCH  23  28
ENDBRANCH  17  18
ENDBRANCH   1  17
TORSDOF 10
ENDMDL
MODEL 2
REMARK VINA RESULT:    -8.081      1.167      2.820
REMARK INTER + INTRA:         -12.139
REMARK INTER:                 -11.406
REMARK INTRA:                  -0.732
REMARK UNBOUND:                -0.751
REMARK  Name = 341
REMARK  10 active torsions:
REMARK  status: ('A' for Active; 'I' for Inactive)
REMARK    1  A    between atoms: O_1  and  C_10
REMARK    2  A    between atoms: O_1  and  C_19
REMARK    3  A    between atoms: O_2  and  C_12
REMARK    4  A    between atoms: O_3  and  C_15
REMARK    5  A    between atoms: O_4  and  C_20
REMARK    6  A    between atoms: O_5  and  C_21
REMARK    7  A    between atoms: O_6  and  C_22
REMARK    8  A    between atoms: O_8  and  C_23
REMARK    9  A    between atoms: C_11  and  C_19
REMARK   10  A    between atoms: C_13  and  C_23
REMARK                            x       y       z     vdW  Elec       q    Type
REMARK                         _______ _______ _______ _____ _____    ______ ____
ROOT
ATOM      1  O   UNL     1      84.702  13.007  29.999  0.00  0.00    +0.000 OA
ENDROOT
BRANCH   1   2
ATOM      2  C   UNL     1      85.635  12.095  29.498  0.00  0.00    +0.000 A 
ATOM      3  C   UNL     1      86.321  11.282  30.373  0.00  0.00    +0.000 A 
ATOM      4  C   UNL     1      86.756  11.138  27.622  0.00  0.00    +0.000 A 
ATOM      5  C   UNL     1      85.828  12.046  28.134  0.00  0.00    +0.000 A 
ATOM      6  C   UNL     1      87.248  10.376  29.860  0.00  0.00    +0.000 A 
ATOM      7  C   UNL     1      87.466  10.303  28.484  0.00  0.00    +0.000 A 
BRANCH   3   8
ATOM      8  O   UNL     1      86.109  11.353  31.719  0.00  0.00    +0.000 OA
ATOM      9  H   UNL     1      85.413  12.013  31.884  0.00  0.00    +0.000 HD
ENDBRANCH   3   8
BRANCH   6  10
ATOM     10  O   UNL     1      87.946   9.553  30.693  0.00  0.00    +0.000 OA
ATOM     11  H   UNL     1      87.831   9.859  31.608  0.00  0.00    +0.000 HD
ENDBRANCH   6  10
BRANCH   4  13
ATOM     12  O   UNL     1      86.846  11.996  25.390  0.00  0.00    +0.000 OA
ATOM     13  C   UNL     1      86.980  11.061  26.187  0.00  0.00    +0.000 C 
BRANCH  13  14
ATOM     14  O   UNL     1      87.368   9.820  25.786  0.00  0.00    +0.000 OA
ATOM     15  H   UNL     1      86.777   9.458  25.092  0.00  0.00    +0.000 HD
ENDBRANCH  13  14
ENDBRANCH   4  13
ENDBRANCH   1   2
BRANCH   1  17
ATOM     16  O   UNL     1      82.912  11.514  29.963  0.00  0.00    +0.000 OA
ATOM     17  C   UNL     1      83.375  12.647  29.773  0.00  0.00    +0.000 C 
BRANCH  17  18
ATOM     18  C   UNL     1      82.602  13.781  29.291  0.00  0.00    +0.000 A 
ATOM     19  C   UNL     1      81.220  13.812  29.479  0.00  0.00    +0.000 A 
ATOM     20  C   UNL     1      83.241  14.835  28.638  0.00  0.00    +0.000 A 
ATOM     21  C   UNL     1      82.499  15.921  28.174  0.00  0.00    +0.000 A 
ATOM     22  C   UNL     1      80.477  14.898  29.015  0.00  0.00    +0.000 A 
ATOM     23  C   UNL     1      81.117  15.952  28.362  0.00  0.00    +0.000 A 
BRANCH  21  24
ATOM     24  O   UNL     1      83.135  16.943  27.537  0.00  0.00    +0.000 OA
ATOM     25  H   UNL     1      84.024  17.036  27.921  0.00  0.00    +0.000 HD
ENDBRANCH  21  24
BRANCH  22  26
ATOM     26  O   UNL     1      79.128  14.915  29.202  0.00  0.00    +0.000 OA
ATOM     27  H   UNL     1      78.870  15.777  29.574  0.00  0.00    +0.000 HD
ENDBRANCH  22  26
BRANCH  23  28
ATOM     28  O   UNL     1      80.391  17.013  27.909  0.00  0.00    +0.000 OA
ATOM     29  H   UNL     1      80.197  17.597  28.662  0.00  0.00    +0.000 HD
ENDBRANCH  23  28
ENDBRANCH  17  18
ENDBRANCH   1  17
TORSDOF 10
ENDMDL
MODEL 3
REMARK VINA RESULT:    -8.036     14.923     16.956
REMARK INTER + INTRA:         -12.076
REMARK INTER:                 -11.446
REMARK INTRA:                  -0.630
REMARK UNBOUND:                -0.751
REMARK  Name = 341
REMARK  10 active torsions:
REMARK  status: ('A' for Active; 'I' for Inactive)
REMARK    1  A    between atoms: O_1  and  C_10
REMARK    2  A    between atoms: O_1  and  C_19
REMARK    3  A    between atoms: O_2  and  C_12
REMARK    4  A    between atoms: O_3  and  C_15
REMARK    5  A    between atoms: O_4  and  C_20
REMARK    6  A    between atoms: O_5  and  C_21
REMARK    7  A    between atoms: O_6  and  C_22
REMARK    8  A    between atoms: O_8  and  C_23
REMARK    9  A    between atoms: C_11  and  C_19
REMARK   10  A    between atoms: C_13  and  C_23
REMARK                            x       y       z     vdW  Elec       q    Type
REMARK                         _______ _______ _______ _____ _____    ______ ____
ROOT
ATOM      1  O   UNL     1      82.717  26.481  36.687  0.00  0.00    +0.000 OA
ENDROOT
BRANCH   1   2
ATOM      2  C   UNL     1      83.711  26.360  37.661  0.00  0.00    +0.000 A 
ATOM      3  C   UNL     1      84.532  25.253  37.652  0.00  0.00    +0.000 A 
ATOM      4  C   UNL     1      84.821  27.255  39.574  0.00  0.00    +0.000 A 
ATOM      5  C   UNL     1      83.831  27.364  38.597  0.00  0.00    +0.000 A 
ATOM      6  C   UNL     1      85.522  25.145  38.629  0.00  0.00    +0.000 A 
ATOM      7  C   UNL     1      85.667  26.146  39.590  0.00  0.00    +0.000 A 
BRANCH   3   8
ATOM      8  O   UNL     1      84.391  24.275  36.713  0.00  0.00    +0.000 OA
ATOM      9  H   UNL     1      84.759  24.602  35.873  0.00  0.00    +0.000 HD
ENDBRANCH   3   8
BRANCH   6  10
ATOM     10  O   UNL     1      86.356  24.068  38.653  0.00  0.00    +0.000 OA
ATOM     11  H   UNL     1      86.423  23.699  37.756  0.00  0.00    +0.000 HD
ENDBRANCH   6  10
BRANCH   4  13
ATOM     12  O   UNL     1      84.274  28.431  41.584  0.00  0.00    +0.000 OA
ATOM     13  C   UNL     1      84.973  28.299  40.574  0.00  0.00    +0.000 C 
BRANCH  13  14
ATOM     14  O   UNL     1      85.995  29.150  40.287  0.00  0.00    +0.000 OA
ATOM     15  H   UNL     1      85.779  29.742  39.536  0.00  0.00    +0.000 HD
ENDBRANCH  13  14
ENDBRANCH   4  13
ENDBRANCH   1   2
BRANCH   1  17
ATOM     16  O   UNL     1      81.077  25.578  38.075  0.00  0.00    +0.000 OA
ATOM     17  C   UNL     1      81.419  26.361  37.179  0.00  0.00    +0.000 C 
BRANCH  17  18
ATOM     18  C   UNL     1      80.519  27.285  36.507  0.00  0.00    +0.000 A 
ATOM     19  C   UNL     1      79.998  26.964  35.254  0.00  0.00    +0.000 A 
ATOM     20  C   UNL     1      80.178  28.494  37.114  0.00  0.00    +0.000 A 
ATOM     21  C   UNL     1      79.318  29.381  36.468  0.00  0.00    +0.000 A 
ATOM     22  C   UNL     1      79.136  27.850  34.607  0.00  0.00    +0.000 A 
ATOM     23  C   UNL     1      78.797  29.059  35.215  0.00  0.00    +0.000 A 
BRANCH  21  24
ATOM     24  O   UNL     1      78.995  30.559  37.071  0.00  0.00    +0.000 OA
ATOM     25  H   UNL     1      78.746  31.198  36.380  0.00  0.00    +0.000 HD
ENDBRANCH  21  24
BRANCH  22  26
ATOM     26  O   UNL     1      78.637  27.526  33.382  0.00  0.00    +0.000 OA
ATOM     27  H   UNL     1      77.710  27.817  33.330  0.00  0.00    +0.000 HD
ENDBRANCH  22  26
BRANCH  23  28
ATOM     28  O   UNL     1      77.955  29.926  34.583  0.00  0.00    +0.000 OA
ATOM     29  H   UNL     1      77.439  29.429  33.925  0.00  0.00    +0.000 HD
ENDBRANCH  23  28
ENDBRANCH  17  18
ENDBRANCH   1  17
TORSDOF 10
ENDMDL
MODEL 4
REMARK VINA RESULT:    -7.924     10.163     14.019
REMARK INTER + INTRA:         -11.918
REMARK INTER:                 -11.274
REMARK INTRA:                  -0.644
REMARK UNBOUND:                -0.751
REMARK  Name = 341
REMARK  10 active torsions:
REMARK  status: ('A' for Active; 'I' for Inactive)
REMARK    1  A    between atoms: O_1  and  C_10
REMARK    2  A    between atoms: O_1  and  C_19
REMARK    3  A    between atoms: O_2  and  C_12
REMARK    4  A    between atoms: O_3  and  C_15
REMARK    5  A    between atoms: O_4  and  C_20
REMARK    6  A    between atoms: O_5  and  C_21
REMARK    7  A    between atoms: O_6  and  C_22
REMARK    8  A    between atoms: O_8  and  C_23
REMARK    9  A    between atoms: C_11  and  C_19
REMARK   10  A    between atoms: C_13  and  C_23
REMARK                            x       y       z     vdW  Elec       q    Type
REMARK                         _______ _______ _______ _____ _____    ______ ____
ROOT
ATOM      1  O   UNL     1      92.535  13.150  40.296  0.00  0.00    +0.000 OA
ENDROOT
BRANCH   1   2
ATOM      2  C   UNL     1      92.509  14.014  41.394  0.00  0.00    +0.000 A 
ATOM      3  C   UNL     1      93.640  14.154  42.169  0.00  0.00    +0.000 A 
ATOM      4  C   UNL     1      91.304  15.566  42.748  0.00  0.00    +0.000 A 
ATOM      5  C   UNL     1      91.342  14.698  41.656  0.00  0.00    +0.000 A 
ATOM      6  C   UNL     1      93.601  15.022  43.261  0.00  0.00    +0.000 A 
ATOM      7  C   UNL     1      92.434  15.727  43.550  0.00  0.00    +0.000 A 
BRANCH   3   8
ATOM      8  O   UNL     1      94.781  13.464  41.886  0.00  0.00    +0.000 OA
ATOM      9  H   UNL     1      95.305  13.390  42.702  0.00  0.00    +0.000 HD
ENDBRANCH   3   8
BRANCH   6  10
ATOM     10  O   UNL     1      94.699  15.190  44.050  0.00  0.00    +0.000 OA
ATOM     11  H   UNL     1      94.768  14.437  44.662  0.00  0.00    +0.000 HD
ENDBRANCH   6  10
BRANCH   4  13
ATOM     12  O   UNL     1      88.950  15.824  43.084  0.00  0.00    +0.000 OA
ATOM     13  C   UNL     1      90.088  16.304  43.048  0.00  0.00    +0.000 C 
BRANCH  13  14
ATOM     14  O   UNL     1      90.325  17.620  43.297  0.00  0.00    +0.000 OA
ATOM     15  H   UNL     1      91.160  17.926  42.882  0.00  0.00    +0.000 HD
ENDBRANCH  13  14
ENDBRANCH   4  13
ENDBRANCH   1   2
BRANCH   1  17
ATOM     16  O   UNL     1      94.236  14.157  39.062  0.00  0.00    +0.000 OA
ATOM     17  C   UNL     1      93.085  13.708  39.145  0.00  0.00    +0.000 C 
BRANCH  17  18
ATOM     18  C   UNL     1      92.131  13.685  38.047  0.00  0.00    +0.000 A 
ATOM     19  C   UNL     1      92.544  14.019  36.758  0.00  0.00    +0.000 A 
ATOM     20  C   UNL     1      90.802  13.333  38.284  0.00  0.00    +0.000 A 
ATOM     21  C   UNL     1      89.887  13.315  37.233  0.00  0.00    +0.000 A 
ATOM     22  C   UNL     1      91.629  14.001  35.704  0.00  0.00    +0.000 A 
ATOM     23  C   UNL     1      90.300  13.649  35.943  0.00  0.00    +0.000 A 
BRANCH  21  24
ATOM     24  O   UNL     1      88.592  12.971  37.478  0.00  0.00    +0.000 OA
ATOM     25  H   UNL     1      88.588  12.172  38.033  0.00  0.00    +0.000 HD
ENDBRANCH  21  24
BRANCH  22  26
ATOM     26  O   UNL     1      92.045  14.331  34.450  0.00  0.00    +0.000 OA
ATOM     27  H   UNL     1      92.624  15.111  34.503  0.00  0.00    +0.000 HD
ENDBRANCH  22  26
BRANCH  23  28
ATOM     28  O   UNL     1      89.406  13.631  34.913  0.00  0.00    +0.000 OA
ATOM     29  H   UNL     1      88.586  14.061  35.211  0.00  0.00    +0.000 HD
ENDBRANCH  23  28
ENDBRANCH  17  18
ENDBRANCH   1  17
TORSDOF 10
ENDMDL
MODEL 5
REMARK VINA RESULT:    -7.865      1.587      7.599
REMARK INTER + INTRA:         -11.835
REMARK INTER:                 -11.314
REMARK INTRA:                  -0.521
REMARK UNBOUND:                -0.751
REMARK  Name = 341
REMARK  10 active torsions:
REMARK  status: ('A' for Active; 'I' for Inactive)
REMARK    1  A    between atoms: O_1  and  C_10
REMARK    2  A    between atoms: O_1  and  C_19
REMARK    3  A    between atoms: O_2  and  C_12
REMARK    4  A    between atoms: O_3  and  C_15
REMARK    5  A    between atoms: O_4  and  C_20
REMARK    6  A    between atoms: O_5  and  C_21
REMARK    7  A    between atoms: O_6  and  C_22
REMARK    8  A    between atoms: O_8  and  C_23
REMARK    9  A    between atoms: C_11  and  C_19
REMARK   10  A    between atoms: C_13  and  C_23
REMARK                            x       y       z     vdW  Elec       q    Type
REMARK                         _______ _______ _______ _____ _____    ______ ____
ROOT
ATOM      1  O   UNL     1      83.974  13.746  30.004  0.00  0.00    +0.000 OA
ENDROOT
BRANCH   1   2
ATOM      2  C   UNL     1      82.787  14.223  29.441  0.00  0.00    +0.000 A 
ATOM      3  C   UNL     1      82.702  15.547  29.069  0.00  0.00    +0.000 A 
ATOM      4  C   UNL     1      80.554  13.802  28.716  0.00  0.00    +0.000 A 
ATOM      5  C   UNL     1      81.743  13.339  29.278  0.00  0.00    +0.000 A 
ATOM      6  C   UNL     1      81.512  16.010  28.507  0.00  0.00    +0.000 A 
ATOM      7  C   UNL     1      80.438  15.138  28.330  0.00  0.00    +0.000 A 
BRANCH   3   8
ATOM      8  O   UNL     1      83.752  16.399  29.242  0.00  0.00    +0.000 OA
ATOM      9  H   UNL     1      84.564  15.946  28.956  0.00  0.00    +0.000 HD
ENDBRANCH   3   8
BRANCH   6  10
ATOM     10  O   UNL     1      81.389  17.312  28.124  0.00  0.00    +0.000 OA
ATOM     11  H   UNL     1      81.355  17.354  27.153  0.00  0.00    +0.000 HD
ENDBRANCH   6  10
BRANCH   4  13
ATOM     12  O   UNL     1      78.613  12.581  29.397  0.00  0.00    +0.000 OA
ATOM     13  C   UNL     1      79.435  12.892  28.529  0.00  0.00    +0.000 C 
BRANCH  13  14
ATOM     14  O   UNL     1      79.372  12.397  27.263  0.00  0.00    +0.000 OA
ATOM     15  H   UNL     1      78.562  12.693  26.794  0.00  0.00    +0.000 HD
ENDBRANCH  13  14
ENDBRANCH   4  13
ENDBRANCH   1   2
BRANCH   1  17
ATOM     16  O   UNL     1      84.965  13.637  27.897  0.00  0.00    +0.000 OA
ATOM     17  C   UNL     1      84.890  13.259  29.074  0.00  0.00    +0.000 C 
BRANCH  17  18
ATOM     18  C   UNL     1      85.755  12.253  29.671  0.00  0.00    +0.000 A 
ATOM     19  C   UNL     1      86.650  11.542  28.873  0.00  0.00    +0.000 A 
ATOM     20  C   UNL     1      85.686  11.997  31.041  0.00  0.00    +0.000 A 
ATOM     21  C   UNL     1      86.513  11.031  31.612  0.00  0.00    +0.000 A 
ATOM     22  C   UNL     1      87.479  10.575  29.444  0.00  0.00    +0.000 A 
ATOM     23  C   UNL     1      87.409  10.319  30.814  0.00  0.00    +0.000 A 
BRANCH  21  24
ATOM     24  O   UNL     1      86.435  10.789  32.950  0.00  0.00    +0.000 OA
ATOM     25  H   UNL     1      85.697  10.175  33.107  0.00  0.00    +0.000 HD
ENDBRANCH  21  24
BRANCH  22  26
ATOM     26  O   UNL     1      88.347   9.885  28.653  0.00  0.00    +0.000 OA
ATOM     27  H   UNL     1      88.896  10.518  28.157  0.00  0.00    +0.000 HD
ENDBRANCH  22  26
BRANCH  23  28
ATOM     28  O   UNL     1      88.219   9.374  31.371  0.00  0.00    +0.000 OA
ATOM     29  H   UNL     1      89.144   9.641  31.233  0.00  0.00    +0.000 HD
ENDBRANCH  23  28
ENDBRANCH  17  18
ENDBRANCH   1  17
TORSDOF 10
ENDMDL
MODEL 6
REMARK VINA RESULT:    -7.865      1.582      7.506
REMARK INTER + INTRA:         -11.835
REMARK INTER:                 -11.313
REMARK INTRA:                  -0.521
REMARK UNBOUND:                -0.751
REMARK  Name = 341
REMARK  10 active torsions:
REMARK  status: ('A' for Active; 'I' for Inactive)
REMARK    1  A    between atoms: O_1  and  C_10
REMARK    2  A    between atoms: O_1  and  C_19
REMARK    3  A    between atoms: O_2  and  C_12
REMARK    4  A    between atoms: O_3  and  C_15
REMARK    5  A    between atoms: O_4  and  C_20
REMARK    6  A    between atoms: O_5  and  C_21
REMARK    7  A    between atoms: O_6  and  C_22
REMARK    8  A    between atoms: O_8  and  C_23
REMARK    9  A    between atoms: C_11  and  C_19
REMARK   10  A    between atoms: C_13  and  C_23
REMARK                            x       y       z     vdW  Elec       q    Type
REMARK                         _______ _______ _______ _____ _____    ______ ____
ROOT
ATOM      1  O   UNL     1      83.975  13.741  29.993  0.00  0.00    +0.000 OA
ENDROOT
BRANCH   1   2
ATOM      2  C   UNL     1      82.787  14.220  29.435  0.00  0.00    +0.000 A 
ATOM      3  C   UNL     1      82.702  15.545  29.066  0.00  0.00    +0.000 A 
ATOM      4  C   UNL     1      80.551  13.803  28.715  0.00  0.00    +0.000 A 
ATOM      5  C   UNL     1      81.742  13.337  29.273  0.00  0.00    +0.000 A 
ATOM      6  C   UNL     1      81.511  16.010  28.508  0.00  0.00    +0.000 A 
ATOM      7  C   UNL     1      80.436  15.140  28.333  0.00  0.00    +0.000 A 
BRANCH   3   8
ATOM      8  O   UNL     1      83.754  16.396  29.238  0.00  0.00    +0.000 OA
ATOM      9  H   UNL     1      84.564  15.943  28.948  0.00  0.00    +0.000 HD
ENDBRANCH   3   8
BRANCH   6  10
ATOM     10  O   UNL     1      81.388  17.313  28.128  0.00  0.00    +0.000 OA
ATOM     11  H   UNL     1      81.351  17.357  27.157  0.00  0.00    +0.000 HD
ENDBRANCH   6  10
BRANCH   4  13
ATOM     12  O   UNL     1      78.611  12.582  29.400  0.00  0.00    +0.000 OA
ATOM     13  C   UNL     1      79.431  12.895  28.530  0.00  0.00    +0.000 C 
BRANCH  13  14
ATOM     14  O   UNL     1      79.363  12.402  27.263  0.00  0.00    +0.000 OA
ATOM     15  H   UNL     1      78.553  12.700  26.797  0.00  0.00    +0.000 HD
ENDBRANCH  13  14
ENDBRANCH   4  13
ENDBRANCH   1   2
BRANCH   1  17
ATOM     16  O   UNL     1      84.950  13.614  27.880  0.00  0.00    +0.000 OA
ATOM     17  C   UNL     1      84.884  13.246  29.061  0.00  0.00    +0.000 C 
BRANCH  17  18
ATOM     18  C   UNL     1      85.754  12.246  29.659  0.00  0.00    +0.000 A 
ATOM     19  C   UNL     1      85.690  11.997  31.030  0.00  0.00    +0.000 A 
ATOM     20  C   UNL     1      86.655  11.538  28.863  0.00  0.00    +0.000 A 
ATOM     21  C   UNL     1      87.491  10.581  29.437  0.00  0.00    +0.000 A 
ATOM     22  C   UNL     1      86.526  11.039  31.605  0.00  0.00    +0.000 A 
ATOM     23  C   UNL     1      87.427  10.332  30.808  0.00  0.00    +0.000 A 
BRANCH  21  24
ATOM     24  O   UNL     1      88.368   9.898  28.649  0.00  0.00    +0.000 OA
ATOM     25  H   UNL     1      88.790  10.531  28.043  0.00  0.00    +0.000 HD
ENDBRANCH  21  24
BRANCH  22  26
ATOM     26  O   UNL     1      86.455  10.807  32.945  0.00  0.00    +0.000 OA
ATOM     27  H   UNL     1      85.534  10.606  33.185  0.00  0.00    +0.000 HD
ENDBRANCH  22  26
BRANCH  23  28
ATOM     28  O   UNL     1      88.244   9.396  31.371  0.00  0.00    +0.000 OA
ATOM     29  H   UNL     1      87.689   8.701  31.765  0.00  0.00    +0.000 HD
ENDBRANCH  23  28
ENDBRANCH  17  18
ENDBRANCH   1  17
TORSDOF 10
ENDMDL
MODEL 7
REMARK VINA RESULT:    -7.847      1.237      2.025
REMARK INTER + INTRA:         -11.810
REMARK INTER:                 -11.417
REMARK INTRA:                  -0.393
REMARK UNBOUND:                -0.751
REMARK  Name = 341
REMARK  10 active torsions:
REMARK  status: ('A' for Active; 'I' for Inactive)
REMARK    1  A    between atoms: O_1  and  C_10
REMARK    2  A    between atoms: O_1  and  C_19
REMARK    3  A    between atoms: O_2  and  C_12
REMARK    4  A    between atoms: O_3  and  C_15
REMARK    5  A    between atoms: O_4  and  C_20
REMARK    6  A    between atoms: O_5  and  C_21
REMARK    7  A    between atoms: O_6  and  C_22
REMARK    8  A    between atoms: O_8  and  C_23
REMARK    9  A    between atoms: C_11  and  C_19
REMARK   10  A    between atoms: C_13  and  C_23
REMARK                            x       y       z     vdW  Elec       q    Type
REMARK                         _______ _______ _______ _____ _____    ______ ____
ROOT
ATOM      1  O   UNL     1      85.004  13.692  28.638  0.00  0.00    +0.000 OA
ENDROOT
BRANCH   1   2
ATOM      2  C   UNL     1      85.820  12.561  28.704  0.00  0.00    +0.000 A 
ATOM      3  C   UNL     1      86.104  11.865  27.549  0.00  0.00    +0.000 A 
ATOM      4  C   UNL     1      87.134  11.059  30.013  0.00  0.00    +0.000 A 
ATOM      5  C   UNL     1      86.315  12.186  29.934  0.00  0.00    +0.000 A 
ATOM      6  C   UNL     1      86.922  10.738  27.628  0.00  0.00    +0.000 A 
ATOM      7  C   UNL     1      87.437  10.335  28.860  0.00  0.00    +0.000 A 
BRANCH   3   8
ATOM      8  O   UNL     1      85.601  12.260  26.344  0.00  0.00    +0.000 OA
ATOM      9  H   UNL     1      85.770  11.554  25.696  0.00  0.00    +0.000 HD
ENDBRANCH   3   8
BRANCH   6  10
ATOM     10  O   UNL     1      87.228  10.025  26.508  0.00  0.00    +0.000 OA
ATOM     11  H   UNL     1      86.482  10.076  25.887  0.00  0.00    +0.000 HD
ENDBRANCH   6  10
BRANCH   4  13
ATOM     12  O   UNL     1      87.869  11.380  32.267  0.00  0.00    +0.000 OA
ATOM     13  C   UNL     1      87.673  10.640  31.297  0.00  0.00    +0.000 C 
BRANCH  13  14
ATOM     14  O   UNL     1      87.950   9.308  31.336  0.00  0.00    +0.000 OA
ATOM     15  H   UNL     1      87.137   8.768  31.435  0.00  0.00    +0.000 HD
ENDBRANCH  13  14
ENDBRANCH   4  13
ENDBRANCH   1   2
BRANCH   1  17
ATOM     16  O   UNL     1      83.222  12.360  29.332  0.00  0.00    +0.000 OA
ATOM     17  C   UNL     1      83.685  13.467  29.028  0.00  0.00    +0.000 C 
BRANCH  17  18
ATOM     18  C   UNL     1      82.926  14.707  29.039  0.00  0.00    +0.000 A 
ATOM     19  C   UNL     1      83.200  15.702  28.101  0.00  0.00    +0.000 A 
ATOM     20  C   UNL     1      81.925  14.904  29.992  0.00  0.00    +0.000 A 
ATOM     21  C   UNL     1      81.199  16.094  30.005  0.00  0.00    +0.000 A 
ATOM     22  C   UNL     1      82.473  16.893  28.113  0.00  0.00    +0.000 A 
ATOM     23  C   UNL     1      81.473  17.089  29.066  0.00  0.00    +0.000 A 
BRANCH  21  24
ATOM     24  O   UNL     1      80.226  16.275  30.941  0.00  0.00    +0.000 OA
ATOM     25  H   UNL     1      79.673  15.474  30.965  0.00  0.00    +0.000 HD
ENDBRANCH  21  24
BRANCH  22  26
ATOM     26  O   UNL     1      82.753  17.857  27.193  0.00  0.00    +0.000 OA
ATOM     27  H   UNL     1      83.512  18.381  27.502  0.00  0.00    +0.000 HD
ENDBRANCH  22  26
BRANCH  23  28
ATOM     28  O   UNL     1      80.764  18.253  29.078  0.00  0.00    +0.000 OA
ATOM     29  H   UNL     1      81.311  18.951  28.680  0.00  0.00    +0.000 HD
ENDBRANCH  23  28
ENDBRANCH  17  18
ENDBRANCH   1  17
TORSDOF 10
ENDMDL
MODEL 8
REMARK VINA RESULT:    -7.664      4.350      7.784
REMARK INTER + INTRA:         -11.551
REMARK INTER:                 -10.800
REMARK INTRA:                  -0.751
REMARK UNBOUND:                -0.751
REMARK  Name = 341
REMARK  10 active torsions:
REMARK  status: ('A' for Active; 'I' for Inactive)
REMARK    1  A    between atoms: O_1  and  C_10
REMARK    2  A    between atoms: O_1  and  C_19
REMARK    3  A    between atoms: O_2  and  C_12
REMARK    4  A    between atoms: O_3  and  C_15
REMARK    5  A    between atoms: O_4  and  C_20
REMARK    6  A    between atoms: O_5  and  C_21
REMARK    7  A    between atoms: O_6  and  C_22
REMARK    8  A    between atoms: O_8  and  C_23
REMARK    9  A    between atoms: C_11  and  C_19
REMARK   10  A    between atoms: C_13  and  C_23
REMARK                            x       y       z     vdW  Elec       q    Type
REMARK                         _______ _______ _______ _____ _____    ______ ____
ROOT
ATOM      1  O   UNL     1      87.885  11.785  34.778  0.00  0.00    +0.000 OA
ENDROOT
BRANCH   1   2
ATOM      2  C   UNL     1      88.842  12.457  35.544  0.00  0.00    +0.000 A 
ATOM      3  C   UNL     1      88.989  12.133  36.875  0.00  0.00    +0.000 A 
ATOM      4  C   UNL     1      90.569  14.097  35.680  0.00  0.00    +0.000 A 
ATOM      5  C   UNL     1      89.609  13.422  34.927  0.00  0.00    +0.000 A 
ATOM      6  C   UNL     1      89.949  12.810  37.627  0.00  0.00    +0.000 A 
ATOM      7  C   UNL     1      90.739  13.792  37.030  0.00  0.00    +0.000 A 
BRANCH   3   8
ATOM      8  O   UNL     1      88.216  11.173  37.459  0.00  0.00    +0.000 OA
ATOM      9  H   UNL     1      87.398  11.082  36.941  0.00  0.00    +0.000 HD
ENDBRANCH   3   8
BRANCH   6  10
ATOM     10  O   UNL     1      90.127  12.517  38.947  0.00  0.00    +0.000 OA
ATOM     11  H   UNL     1      90.222  11.555  39.047  0.00  0.00    +0.000 HD
ENDBRANCH   6  10
BRANCH   4  13
ATOM     12  O   UNL     1      91.388  16.321  35.346  0.00  0.00    +0.000 OA
ATOM     13  C   UNL     1      91.395  15.120  35.056  0.00  0.00    +0.000 C 
BRANCH  13  14
ATOM     14  O   UNL     1      92.207  14.614  34.089  0.00  0.00    +0.000 OA
ATOM     15  H   UNL     1      91.815  13.825  33.657  0.00  0.00    +0.000 HD
ENDBRANCH  13  14
ENDBRANCH   4  13
ENDBRANCH   1   2
BRANCH   1  17
ATOM     16  O   UNL     1      89.262  10.045  34.064  0.00  0.00    +0.000 OA
ATOM     17  C   UNL     1      88.421  10.922  33.825  0.00  0.00    +0.000 C 
BRANCH  17  18
ATOM     18  C   UNL     1      87.855  11.180  32.511  0.00  0.00    +0.000 A 
ATOM     19  C   UNL     1      87.953  10.216  31.508  0.00  0.00    +0.000 A 
ATOM     20  C   UNL     1      87.217  12.394  32.251  0.00  0.00    +0.000 A 
ATOM     21  C   UNL     1      86.677  12.643  30.990  0.00  0.00    +0.000 A 
ATOM     22  C   UNL     1      87.412  10.464  30.245  0.00  0.00    +0.000 A 
ATOM     23  C   UNL     1      86.775  11.677  29.987  0.00  0.00    +0.000 A 
BRANCH  21  24
ATOM     24  O   UNL     1      86.059  13.832  30.749  0.00  0.00    +0.000 OA
ATOM     25  H   UNL     1      86.703  14.433  30.335  0.00  0.00    +0.000 HD
ENDBRANCH  21  24
BRANCH  22  26
ATOM     26  O   UNL     1      87.516   9.515  29.274  0.00  0.00    +0.000 OA
ATOM     27  H   UNL     1      86.765   9.603  28.662  0.00  0.00    +0.000 HD
ENDBRANCH  22  26
BRANCH  23  28
ATOM     28  O   UNL     1      86.247  11.919  28.753  0.00  0.00    +0.000 OA
ATOM     29  H   UNL     1      86.780  12.607  28.320  0.00  0.00    +0.000 HD
ENDBRANCH  23  28
ENDBRANCH  17  18
ENDBRANCH   1  17
TORSDOF 10
ENDMDL
MODEL 9
REMARK VINA RESULT:    -7.630      9.337     13.063
REMARK INTER + INTRA:         -11.504
REMARK INTER:                 -10.810
REMARK INTRA:                  -0.694
REMARK UNBOUND:                -0.751
REMARK  Name = 341
REMARK  10 active torsions:
REMARK  status: ('A' for Active; 'I' for Inactive)
REMARK    1  A    between atoms: O_1  and  C_10
REMARK    2  A    between atoms: O_1  and  C_19
REMARK    3  A    between atoms: O_2  and  C_12
REMARK    4  A    between atoms: O_3  and  C_15
REMARK    5  A    between atoms: O_4  and  C_20
REMARK    6  A    between atoms: O_5  and  C_21
REMARK    7  A    between atoms: O_6  and  C_22
REMARK    8  A    between atoms: O_8  and  C_23
REMARK    9  A    between atoms: C_11  and  C_19
REMARK   10  A    between atoms: C_13  and  C_23
REMARK                            x       y       z     vdW  Elec       q    Type
REMARK                         _______ _______ _______ _____ _____    ______ ____
ROOT
ATOM      1  O   UNL     1      90.597  13.089  39.393  0.00  0.00    +0.000 OA
ENDROOT
BRANCH   1   2
ATOM      2  C   UNL     1      90.297  13.188  38.032  0.00  0.00    +0.000 A 
ATOM      3  C   UNL     1      89.335  12.362  37.491  0.00  0.00    +0.000 A 
ATOM      4  C   UNL     1      90.687  14.231  35.921  0.00  0.00    +0.000 A 
ATOM      5  C   UNL     1      90.979  14.121  37.281  0.00  0.00    +0.000 A 
ATOM      6  C   UNL     1      89.044  12.473  36.131  0.00  0.00    +0.000 A 
ATOM      7  C   UNL     1      89.719  13.407  35.347  0.00  0.00    +0.000 A 
BRANCH   3   8
ATOM      8  O   UNL     1      88.675  11.449  38.258  0.00  0.00    +0.000 OA
ATOM      9  H   UNL     1      88.543  10.643  37.730  0.00  0.00    +0.000 HD
ENDBRANCH   3   8
BRANCH   6  10
ATOM     10  O   UNL     1      88.098  11.676  35.559  0.00  0.00    +0.000 OA
ATOM     11  H   UNL     1      88.466  11.277  34.753  0.00  0.00    +0.000 HD
ENDBRANCH   6  10
BRANCH   4  13
ATOM     12  O   UNL     1      91.327  16.433  35.240  0.00  0.00    +0.000 OA
ATOM     13  C   UNL     1      91.390  15.207  35.103  0.00  0.00    +0.000 C 
BRANCH  13  14
ATOM     14  O   UNL     1      92.153  14.625  34.139  0.00  0.00    +0.000 OA
ATOM     15  H   UNL     1      93.056  15.007  34.107  0.00  0.00    +0.000 HD
ENDBRANCH  13  14
ENDBRANCH   4  13
ENDBRANCH   1   2
BRANCH   1  17
ATOM     16  O   UNL     1      88.600  14.039  40.129  0.00  0.00    +0.000 OA
ATOM     17  C   UNL     1      89.830  13.919  40.207  0.00  0.00    +0.000 C 
BRANCH  17  18
ATOM     18  C   UNL     1      90.665  14.620  41.170  0.00  0.00    +0.000 A 
ATOM     19  C   UNL     1      91.989  14.229  41.360  0.00  0.00    +0.000 A 
ATOM     20  C   UNL     1      90.139  15.683  41.907  0.00  0.00    +0.000 A 
ATOM     21  C   UNL     1      90.938  16.353  42.832  0.00  0.00    +0.000 A 
ATOM     22  C   UNL     1      92.790  14.899  42.286  0.00  0.00    +0.000 A 
ATOM     23  C   UNL     1      92.264  15.961  43.021  0.00  0.00    +0.000 A 
BRANCH  21  24
ATOM     24  O   UNL     1      90.413  17.387  43.545  0.00  0.00    +0.000 OA
ATOM     25  H   UNL     1      89.754  17.027  44.165  0.00  0.00    +0.000 HD
ENDBRANCH  21  24
BRANCH  22  26
ATOM     26  O   UNL     1      94.082  14.505  42.463  0.00  0.00    +0.000 OA
ATOM     27  H   UNL     1      94.648  14.975  41.826  0.00  0.00    +0.000 HD
ENDBRANCH  22  26
BRANCH  23  28
ATOM     28  O   UNL     1      93.046  16.616  43.926  0.00  0.00    +0.000 OA
ATOM     29  H   UNL     1      93.878  16.867  43.488  0.00  0.00    +0.000 HD
ENDBRANCH  23  28
ENDBRANCH  17  18
ENDBRANCH   1  17
TORSDOF 10
ENDMDL
MODEL 10
REMARK VINA RESULT:    -7.602      9.350     13.045
REMARK INTER + INTRA:         -11.464
REMARK INTER:                 -10.768
REMARK INTRA:                  -0.697
REMARK UNBOUND:                -0.751
REMARK  Name = 341
REMARK  10 active torsions:
REMARK  status: ('A' for Active; 'I' for Inactive)
REMARK    1  A    between atoms: O_1  and  C_10
REMARK    2  A    between atoms: O_1  and  C_19
REMARK    3  A    between atoms: O_2  and  C_12
REMARK    4  A    between atoms: O_3  and  C_15
REMARK    5  A    between atoms: O_4  and  C_20
REMARK    6  A    between atoms: O_5  and  C_21
REMARK    7  A    between atoms: O_6  and  C_22
REMARK    8  A    between atoms: O_8  and  C_23
REMARK    9  A    between atoms: C_11  and  C_19
REMARK   10  A    between atoms: C_13  and  C_23
REMARK                            x       y       z     vdW  Elec       q    Type
REMARK                         _______ _______ _______ _____ _____    ______ ____
ROOT
ATOM      1  O   UNL     1      90.567  13.083  39.414  0.00  0.00    +0.000 OA
ENDROOT
BRANCH   1   2
ATOM      2  C   UNL     1      90.269  13.190  38.053  0.00  0.00    +0.000 A 
ATOM      3  C   UNL     1      89.290  12.385  37.512  0.00  0.00    +0.000 A 
ATOM      4  C   UNL     1      90.681  14.225  35.943  0.00  0.00    +0.000 A 
ATOM      5  C   UNL     1      90.971  14.108  37.302  0.00  0.00    +0.000 A 
ATOM      6  C   UNL     1      89.001  12.503  36.152  0.00  0.00    +0.000 A 
ATOM      7  C   UNL     1      89.696  13.422  35.368  0.00  0.00    +0.000 A 
BRANCH   3   8
ATOM      8  O   UNL     1      88.611  11.485  38.279  0.00  0.00    +0.000 OA
ATOM      9  H   UNL     1      87.733  11.855  38.479  0.00  0.00    +0.000 HD
ENDBRANCH   3   8
BRANCH   6  10
ATOM     10  O   UNL     1      88.038  11.726  35.580  0.00  0.00    +0.000 OA
ATOM     11  H   UNL     1      87.406  11.450  36.265  0.00  0.00    +0.000 HD
ENDBRANCH   6  10
BRANCH   4  13
ATOM     12  O   UNL     1      91.364  16.414  35.260  0.00  0.00    +0.000 OA
ATOM     13  C   UNL     1      91.404  15.186  35.126  0.00  0.00    +0.000 C 
BRANCH  13  14
ATOM     14  O   UNL     1      92.159  14.589  34.164  0.00  0.00    +0.000 OA
ATOM     15  H   UNL     1      92.887  15.171  33.856  0.00  0.00    +0.000 HD
ENDBRANCH  13  14
ENDBRANCH   4  13
ENDBRANCH   1   2
BRANCH   1  17
ATOM     16  O   UNL     1      88.589  14.072  40.151  0.00  0.00    +0.000 OA
ATOM     17  C   UNL     1      89.817  13.928  40.229  0.00  0.00    +0.000 C 
BRANCH  17  18
ATOM     18  C   UNL     1      90.665  14.611  41.194  0.00  0.00    +0.000 A 
ATOM     19  C   UNL     1      90.134  15.618  41.998  0.00  0.00    +0.000 A 
ATOM     20  C   UNL     1      92.011  14.261  41.311  0.00  0.00    +0.000 A 
ATOM     21  C   UNL     1      92.824  14.919  42.233  0.00  0.00    +0.000 A 
ATOM     22  C   UNL     1      90.947  16.276  42.922  0.00  0.00    +0.000 A 
ATOM     23  C   UNL     1      92.292  15.926  43.039  0.00  0.00    +0.000 A 
BRANCH  21  24
ATOM     24  O   UNL     1      94.137  14.570  42.336  0.00  0.00    +0.000 OA
ATOM     25  H   UNL     1      94.421  14.196  41.484  0.00  0.00    +0.000 HD
ENDBRANCH  21  24
BRANCH  22  26
ATOM     26  O   UNL     1      90.416  17.259  43.701  0.00  0.00    +0.000 OA
ATOM     27  H   UNL     1      90.061  16.863  44.515  0.00  0.00    +0.000 HD
ENDBRANCH  22  26
BRANCH  23  28
ATOM     28  O   UNL     1      93.087  16.569  43.941  0.00  0.00    +0.000 OA
ATOM     29  H   UNL     1      92.575  17.293  44.341  0.00  0.00    +0.000 HD
ENDBRANCH  23  28
ENDBRANCH  17  18
ENDBRANCH   1  17
TORSDOF 10
ENDMDL
