MODEL 1
REMARK VINA RESULT:      -9.8      0.000      0.000
REMARK  Name = 439533
REMARK                            x       y       z     vdW  Elec       q    Type
REMARK                         _______ _______ _______ _____ _____    ______ ____
ROOT
ATOM      1  O   LIG    1       53.811  33.682 -13.051  0.00  0.00    -0.480 OA
ATOM      2  C   LIG    1       53.047  33.472 -14.167  0.00  0.00    +0.139 A 
ATOM      3  C   LIG    1       51.697  33.817 -14.072  0.00  0.00    +0.092 A 
ATOM      4  C   LIG    1       50.850  33.630 -15.166  0.00  0.00    +0.124 A 
ATOM      5  C   LIG    1       51.352  33.107 -16.357  0.00  0.00    +0.091 A 
ATOM      6  C   LIG    1       52.703  32.779 -16.465  0.00  0.00    +0.134 A 
ATOM     11  C   LIG    1       53.549  32.971 -15.370  0.00  0.00    +0.103 A 
ATOM     12  C   LIG    1       54.992  32.675 -15.479  0.00  0.00    +0.202 C 
ATOM     13  C   LIG    1       55.836  33.091 -14.294  0.00  0.00    +0.230 C 
ATOM     16  O   LIG    1       55.457  32.153 -16.486  0.00  0.00    -0.289 OA
ATOM     17  C   LIG    1       55.017  32.902 -13.017  0.00  0.00    +0.240 C 
ENDROOT
BRANCH  17  18
ATOM     18  C   LIG    1       55.792  33.326 -11.784  0.00  0.00    -0.001 A 
ATOM     19  C   LIG    1       57.173  33.493 -11.854  0.00  0.00    +0.011 A 
ATOM     20  C   LIG    1       57.885  33.883 -10.720  0.00  0.00    +0.049 A 
ATOM     21  C   LIG    1       57.213  34.107  -9.518  0.00  0.00    +0.158 A 
ATOM     22  C   LIG    1       55.830  33.939  -9.449  0.00  0.00    +0.159 A 
ATOM     27  C   LIG    1       55.119  33.548 -10.584  0.00  0.00    +0.056 A 
BRANCH  22  23
ATOM     23  O   LIG    1       55.164  34.153  -8.281  0.00  0.00    -0.503 OA
ATOM     24  H   LIG    1       54.568  33.400  -8.126  0.00  0.00    +0.292 HD
ENDBRANCH  22  23
BRANCH  21  25
ATOM     25  O   LIG    1       57.920  34.486  -8.416  0.00  0.00    -0.503 OA
ATOM     26  H   LIG    1       58.672  35.036  -8.696  0.00  0.00    +0.292 HD
ENDBRANCH  21  25
ENDBRANCH  17  18
BRANCH   6   7
ATOM      7  O   LIG    1       53.142  32.290 -17.658  0.00  0.00    -0.506 OA
ATOM      8  H   LIG    1       52.439  31.799 -18.108  0.00  0.00    +0.292 HD
ENDBRANCH   6   7
BRANCH   4   9
ATOM      9  O   LIG    1       49.532  33.956 -15.068  0.00  0.00    -0.507 OA
ATOM     10  H   LIG    1       49.454  34.916 -14.931  0.00  0.00    +0.292 HD
ENDBRANCH   4   9
BRANCH  13  14
ATOM     14  O   LIG    1       56.988  32.268 -14.262  0.00  0.00    -0.380 OA
ATOM     15  H   LIG    1       57.459  32.389 -15.104  0.00  0.00    +0.211 HD
ENDBRANCH  13  14
TORSDOF 6
ENDMDL
MODEL 2
REMARK VINA RESULT:      -9.4      1.865      3.481
REMARK  Name = 439533
REMARK                            x       y       z     vdW  Elec       q    Type
REMARK                         _______ _______ _______ _____ _____    ______ ____
ROOT
ATOM      1  O   LIG    1       55.074  32.681 -11.992  0.00  0.00    -0.480 OA
ATOM      2  C   LIG    1       54.224  32.878 -13.048  0.00  0.00    +0.139 A 
ATOM      3  C   LIG    1       54.424  32.069 -14.168  0.00  0.00    +0.092 A 
ATOM      4  C   LIG    1       53.602  32.211 -15.287  0.00  0.00    +0.124 A 
ATOM      5  C   LIG    1       52.575  33.154 -15.285  0.00  0.00    +0.091 A 
ATOM      6  C   LIG    1       52.359  33.953 -14.163  0.00  0.00    +0.134 A 
ATOM     11  C   LIG    1       53.180  33.806 -13.042  0.00  0.00    +0.103 A 
ATOM     12  C   LIG    1       52.937  34.607 -11.826  0.00  0.00    +0.202 C 
ATOM     13  C   LIG    1       53.772  34.234 -10.620  0.00  0.00    +0.230 C 
ATOM     16  O   LIG    1       52.089  35.491 -11.809  0.00  0.00    -0.289 OA
ATOM     17  C   LIG    1       55.158  33.800 -11.097  0.00  0.00    +0.240 C 
ENDROOT
BRANCH  17  18
ATOM     18  C   LIG    1       56.046  33.384  -9.940  0.00  0.00    -0.001 A 
ATOM     19  C   LIG    1       57.287  33.994  -9.761  0.00  0.00    +0.011 A 
ATOM     20  C   LIG    1       58.103  33.611  -8.697  0.00  0.00    +0.049 A 
ATOM     21  C   LIG    1       57.677  32.620  -7.813  0.00  0.00    +0.158 A 
ATOM     22  C   LIG    1       56.435  32.010  -7.993  0.00  0.00    +0.159 A 
ATOM     27  C   LIG    1       55.619  32.394  -9.058  0.00  0.00    +0.056 A 
BRANCH  22  23
ATOM     23  O   LIG    1       56.009  31.041  -7.137  0.00  0.00    -0.503 OA
ATOM     24  H   LIG    1       56.729  30.847  -6.511  0.00  0.00    +0.292 HD
ENDBRANCH  22  23
BRANCH  21  25
ATOM     25  O   LIG    1       58.483  32.253  -6.778  0.00  0.00    -0.503 OA
ATOM     26  H   LIG    1       58.780  33.053  -6.309  0.00  0.00    +0.292 HD
ENDBRANCH  21  25
ENDBRANCH  17  18
BRANCH   6   7
ATOM      7  O   LIG    1       51.330  34.844 -14.208  0.00  0.00    -0.506 OA
ATOM      8  H   LIG    1       50.840  34.760 -15.040  0.00  0.00    +0.292 HD
ENDBRANCH   6   7
BRANCH   4   9
ATOM      9  O   LIG    1       53.804  31.428 -16.382  0.00  0.00    -0.507 OA
ATOM     10  H   LIG    1       54.715  31.558 -16.699  0.00  0.00    +0.292 HD
ENDBRANCH   4   9
BRANCH  13  14
ATOM     14  O   LIG    1       53.877  35.375  -9.786  0.00  0.00    -0.380 OA
ATOM     15  H   LIG    1       53.640  36.152 -10.321  0.00  0.00    +0.211 HD
ENDBRANCH  13  14
TORSDOF 6
ENDMDL
MODEL 3
REMARK VINA RESULT:      -9.1      2.474      3.807
REMARK  Name = 439533
REMARK                            x       y       z     vdW  Elec       q    Type
REMARK                         _______ _______ _______ _____ _____    ______ ____
ROOT
ATOM      1  O   LIG    1       55.374  33.371 -13.445  0.00  0.00    -0.480 OA
ATOM      2  C   LIG    1       54.035  33.562 -13.659  0.00  0.00    +0.139 A 
ATOM      3  C   LIG    1       53.313  34.140 -12.613  0.00  0.00    +0.092 A 
ATOM      4  C   LIG    1       51.942  34.364 -12.751  0.00  0.00    +0.124 A 
ATOM      5  C   LIG    1       51.293  34.019 -13.936  0.00  0.00    +0.091 A 
ATOM      6  C   LIG    1       52.012  33.458 -14.991  0.00  0.00    +0.134 A 
ATOM     11  C   LIG    1       53.385  33.239 -14.852  0.00  0.00    +0.103 A 
ATOM     12  C   LIG    1       54.172  32.691 -15.975  0.00  0.00    +0.202 C 
ATOM     13  C   LIG    1       55.672  32.668 -15.771  0.00  0.00    +0.230 C 
ATOM     16  O   LIG    1       53.628  32.315 -17.006  0.00  0.00    -0.289 OA
ATOM     17  C   LIG    1       55.963  32.378 -14.299  0.00  0.00    +0.240 C 
ENDROOT
BRANCH  17  18
ATOM     18  C   LIG    1       57.453  32.365 -14.012  0.00  0.00    -0.001 A 
ATOM     19  C   LIG    1       57.943  32.970 -12.856  0.00  0.00    +0.011 A 
ATOM     20  C   LIG    1       59.313  32.958 -12.593  0.00  0.00    +0.049 A 
ATOM     21  C   LIG    1       60.189  32.340 -13.485  0.00  0.00    +0.158 A 
ATOM     22  C   LIG    1       59.696  31.735 -14.641  0.00  0.00    +0.159 A 
ATOM     27  C   LIG    1       58.326  31.748 -14.904  0.00  0.00    +0.056 A 
BRANCH  22  23
ATOM     23  O   LIG    1       60.542  31.130 -15.520  0.00  0.00    -0.503 OA
ATOM     24  H   LIG    1       61.233  30.671 -15.012  0.00  0.00    +0.292 HD
ENDBRANCH  22  23
BRANCH  21  25
ATOM     25  O   LIG    1       61.524  32.336 -13.218  0.00  0.00    -0.503 OA
ATOM     26  H   LIG    1       61.925  31.544 -13.616  0.00  0.00    +0.292 HD
ENDBRANCH  21  25
ENDBRANCH  17  18
BRANCH   6   7
ATOM      7  O   LIG    1       51.331  33.158 -16.132  0.00  0.00    -0.506 OA
ATOM      8  H   LIG    1       50.941  33.957 -16.519  0.00  0.00    +0.292 HD
ENDBRANCH   6   7
BRANCH   4   9
ATOM      9  O   LIG    1       51.238  34.918 -11.726  0.00  0.00    -0.507 OA
ATOM     10  H   LIG    1       51.853  35.145 -11.007  0.00  0.00    +0.292 HD
ENDBRANCH   4   9
BRANCH  13  14
ATOM     14  O   LIG    1       56.212  31.644 -16.587  0.00  0.00    -0.380 OA
ATOM     15  H   LIG    1       57.181  31.690 -16.514  0.00  0.00    +0.211 HD
ENDBRANCH  13  14
TORSDOF 6
ENDMDL
MODEL 4
REMARK VINA RESULT:      -9.0      1.259      6.553
REMARK  Name = 439533
REMARK                            x       y       z     vdW  Elec       q    Type
REMARK                         _______ _______ _______ _____ _____    ______ ____
ROOT
ATOM      1  O   LIG    1       55.159  33.598 -12.475  0.00  0.00    -0.480 OA
ATOM      2  C   LIG    1       56.442  33.482 -12.011  0.00  0.00    +0.139 A 
ATOM      3  C   LIG    1       56.663  33.867 -10.687  0.00  0.00    +0.092 A 
ATOM      4  C   LIG    1       57.944  33.783 -10.140  0.00  0.00    +0.124 A 
ATOM      5  C   LIG    1       59.004  33.307 -10.912  0.00  0.00    +0.091 A 
ATOM      6  C   LIG    1       58.787  32.904 -12.229  0.00  0.00    +0.134 A 
ATOM     11  C   LIG    1       57.502  32.985 -12.772  0.00  0.00    +0.103 A 
ATOM     12  C   LIG    1       57.241  32.518 -14.149  0.00  0.00    +0.202 C 
ATOM     13  C   LIG    1       55.786  32.485 -14.563  0.00  0.00    +0.230 C 
ATOM     16  O   LIG    1       58.157  32.156 -14.878  0.00  0.00    -0.289 OA
ATOM     17  C   LIG    1       55.062  33.660 -13.906  0.00  0.00    +0.240 C 
ENDROOT
BRANCH  17  18
ATOM     18  C   LIG    1       53.586  33.678 -14.256  0.00  0.00    -0.001 A 
ATOM     19  C   LIG    1       52.708  34.476 -13.526  0.00  0.00    +0.011 A 
ATOM     20  C   LIG    1       51.351  34.493 -13.848  0.00  0.00    +0.049 A 
ATOM     21  C   LIG    1       50.875  33.711 -14.901  0.00  0.00    +0.158 A 
ATOM     22  C   LIG    1       51.755  32.913 -15.631  0.00  0.00    +0.159 A 
ATOM     27  C   LIG    1       53.113  32.897 -15.308  0.00  0.00    +0.056 A 
BRANCH  22  23
ATOM     23  O   LIG    1       51.302  32.146 -16.660  0.00  0.00    -0.503 OA
ATOM     24  H   LIG    1       51.129  31.250 -16.321  0.00  0.00    +0.292 HD
ENDBRANCH  22  23
BRANCH  21  25
ATOM     25  O   LIG    1       49.548  33.735 -15.205  0.00  0.00    -0.503 OA
ATOM     26  H   LIG    1       49.300  34.636 -15.474  0.00  0.00    +0.292 HD
ENDBRANCH  21  25
ENDBRANCH  17  18
BRANCH   6   7
ATOM      7  O   LIG    1       59.854  32.429 -12.930  0.00  0.00    -0.506 OA
ATOM      8  H   LIG    1       60.609  32.275 -12.342  0.00  0.00    +0.292 HD
ENDBRANCH   6   7
BRANCH   4   9
ATOM      9  O   LIG    1       58.160  34.169  -8.853  0.00  0.00    -0.507 OA
ATOM     10  H   LIG    1       57.304  34.361  -8.433  0.00  0.00    +0.292 HD
ENDBRANCH   4   9
BRANCH  13  14
ATOM     14  O   LIG    1       55.727  32.602 -15.974  0.00  0.00    -0.380 OA
ATOM     15  H   LIG    1       56.532  32.193 -16.337  0.00  0.00    +0.211 HD
ENDBRANCH  13  14
TORSDOF 6
ENDMDL
MODEL 5
REMARK VINA RESULT:      -9.0      1.913      6.311
REMARK  Name = 439533
REMARK                            x       y       z     vdW  Elec       q    Type
REMARK                         _______ _______ _______ _____ _____    ______ ____
ROOT
ATOM      1  O   LIG    1       55.589  33.146 -13.523  0.00  0.00    -0.480 OA
ATOM      2  C   LIG    1       56.919  32.898 -13.316  0.00  0.00    +0.139 A 
ATOM      3  C   LIG    1       57.458  33.349 -12.110  0.00  0.00    +0.092 A 
ATOM      4  C   LIG    1       58.808  33.138 -11.825  0.00  0.00    +0.124 A 
ATOM      5  C   LIG    1       59.619  32.469 -12.741  0.00  0.00    +0.091 A 
ATOM      6  C   LIG    1       59.084  31.999 -13.940  0.00  0.00    +0.134 A 
ATOM     11  C   LIG    1       57.731  32.208 -14.220  0.00  0.00    +0.103 A 
ATOM     12  C   LIG    1       57.133  31.676 -15.462  0.00  0.00    +0.202 C 
ATOM     13  C   LIG    1       55.629  31.805 -15.571  0.00  0.00    +0.230 C 
ATOM     16  O   LIG    1       57.827  31.142 -16.319  0.00  0.00    -0.289 OA
ATOM     17  C   LIG    1       55.199  33.112 -14.905  0.00  0.00    +0.240 C 
ENDROOT
BRANCH  17  18
ATOM     18  C   LIG    1       53.694  33.298 -14.951  0.00  0.00    -0.001 A 
ATOM     19  C   LIG    1       52.978  32.897 -16.078  0.00  0.00    +0.011 A 
ATOM     20  C   LIG    1       51.595  33.068 -16.121  0.00  0.00    +0.049 A 
ATOM     21  C   LIG    1       50.930  33.640 -15.035  0.00  0.00    +0.158 A 
ATOM     22  C   LIG    1       51.647  34.041 -13.909  0.00  0.00    +0.159 A 
ATOM     27  C   LIG    1       53.032  33.869 -13.867  0.00  0.00    +0.056 A 
BRANCH  22  23
ATOM     23  O   LIG    1       51.009  34.600 -12.844  0.00  0.00    -0.503 OA
ATOM     24  H   LIG    1       50.134  34.184 -12.759  0.00  0.00    +0.292 HD
ENDBRANCH  22  23
BRANCH  21  25
ATOM     25  O   LIG    1       49.579  33.803 -15.089  0.00  0.00    -0.503 OA
ATOM     26  H   LIG    1       49.191  33.519 -14.243  0.00  0.00    +0.292 HD
ENDBRANCH  21  25
ENDBRANCH  17  18
BRANCH   6   7
ATOM      7  O   LIG    1       59.917  31.336 -14.789  0.00  0.00    -0.506 OA
ATOM      8  H   LIG    1       60.784  31.768 -14.825  0.00  0.00    +0.292 HD
ENDBRANCH   6   7
BRANCH   4   9
ATOM      9  O   LIG    1       59.333  33.588 -10.653  0.00  0.00    -0.507 OA
ATOM     10  H   LIG    1       59.371  34.560 -10.676  0.00  0.00    +0.292 HD
ENDBRANCH   4   9
BRANCH  13  14
ATOM     14  O   LIG    1       55.287  31.821 -16.945  0.00  0.00    -0.380 OA
ATOM     15  H   LIG    1       55.816  32.517 -17.372  0.00  0.00    +0.211 HD
ENDBRANCH  13  14
TORSDOF 6
ENDMDL
MODEL 6
REMARK VINA RESULT:      -8.9      1.640      6.812
REMARK  Name = 439533
REMARK                            x       y       z     vdW  Elec       q    Type
REMARK                         _______ _______ _______ _____ _____    ______ ____
ROOT
ATOM      1  O   LIG    1       54.694  32.574 -11.612  0.00  0.00    -0.480 OA
ATOM      2  C   LIG    1       55.208  32.682 -10.348  0.00  0.00    +0.139 A 
ATOM      3  C   LIG    1       54.369  32.304  -9.299  0.00  0.00    +0.092 A 
ATOM      4  C   LIG    1       54.818  32.389  -7.980  0.00  0.00    +0.124 A 
ATOM      5  C   LIG    1       56.109  32.842  -7.709  0.00  0.00    +0.091 A 
ATOM      6  C   LIG    1       56.959  33.204  -8.753  0.00  0.00    +0.134 A 
ATOM     11  C   LIG    1       56.508  33.114 -10.073  0.00  0.00    +0.103 A 
ATOM     12  C   LIG    1       57.409  33.446 -11.195  0.00  0.00    +0.202 C 
ATOM     13  C   LIG    1       56.872  33.139 -12.576  0.00  0.00    +0.230 C 
ATOM     16  O   LIG    1       58.525  33.910 -10.995  0.00  0.00    -0.289 OA
ATOM     17  C   LIG    1       55.364  33.391 -12.585  0.00  0.00    +0.240 C 
ENDROOT
BRANCH  17  18
ATOM     18  C   LIG    1       54.749  33.078 -13.935  0.00  0.00    -0.001 A 
ATOM     19  C   LIG    1       53.370  33.174 -14.111  0.00  0.00    +0.011 A 
ATOM     20  C   LIG    1       52.804  32.886 -15.352  0.00  0.00    +0.049 A 
ATOM     21  C   LIG    1       53.620  32.503 -16.418  0.00  0.00    +0.158 A 
ATOM     22  C   LIG    1       55.000  32.407 -16.241  0.00  0.00    +0.159 A 
ATOM     27  C   LIG    1       55.565  32.695 -14.998  0.00  0.00    +0.056 A 
BRANCH  22  23
ATOM     23  O   LIG    1       55.805  32.033 -17.273  0.00  0.00    -0.503 OA
ATOM     24  H   LIG    1       55.269  31.536 -17.915  0.00  0.00    +0.292 HD
ENDBRANCH  22  23
BRANCH  21  25
ATOM     25  O   LIG    1       53.056  32.223 -17.625  0.00  0.00    -0.503 OA
ATOM     26  H   LIG    1       52.190  32.663 -17.681  0.00  0.00    +0.292 HD
ENDBRANCH  21  25
ENDBRANCH  17  18
BRANCH   6   7
ATOM      7  O   LIG    1       58.215  33.621  -8.432  0.00  0.00    -0.506 OA
ATOM      8  H   LIG    1       58.323  33.675  -7.470  0.00  0.00    +0.292 HD
ENDBRANCH   6   7
BRANCH   4   9
ATOM      9  O   LIG    1       53.995  32.030  -6.957  0.00  0.00    -0.507 OA
ATOM     10  H   LIG    1       53.113  31.831  -7.317  0.00  0.00    +0.292 HD
ENDBRANCH   4   9
BRANCH  13  14
ATOM     14  O   LIG    1       57.516  33.998 -13.501  0.00  0.00    -0.380 OA
ATOM     15  H   LIG    1       57.818  33.452 -14.248  0.00  0.00    +0.211 HD
ENDBRANCH  13  14
TORSDOF 6
ENDMDL
MODEL 7
REMARK VINA RESULT:      -8.9      1.478      3.318
REMARK  Name = 439533
REMARK                            x       y       z     vdW  Elec       q    Type
REMARK                         _______ _______ _______ _____ _____    ______ ____
ROOT
ATOM      1  O   LIG    1       55.220  32.721 -13.168  0.00  0.00    -0.480 OA
ATOM      2  C   LIG    1       54.690  32.753 -14.430  0.00  0.00    +0.139 A 
ATOM      3  C   LIG    1       55.525  32.338 -15.468  0.00  0.00    +0.092 A 
ATOM      4  C   LIG    1       55.060  32.345 -16.784  0.00  0.00    +0.124 A 
ATOM      5  C   LIG    1       53.757  32.758 -17.063  0.00  0.00    +0.091 A 
ATOM      6  C   LIG    1       52.912  33.155 -16.029  0.00  0.00    +0.134 A 
ATOM     11  C   LIG    1       53.378  33.143 -14.712  0.00  0.00    +0.103 A 
ATOM     12  C   LIG    1       52.483  33.514 -13.597  0.00  0.00    +0.202 C 
ATOM     13  C   LIG    1       53.041  33.290 -12.209  0.00  0.00    +0.230 C 
ATOM     16  O   LIG    1       51.355  33.945 -13.808  0.00  0.00    -0.289 OA
ATOM     17  C   LIG    1       54.543  33.573 -12.231  0.00  0.00    +0.240 C 
ENDROOT
BRANCH  17  18
ATOM     18  C   LIG    1       55.179  33.343 -10.873  0.00  0.00    -0.001 A 
ATOM     19  C   LIG    1       54.668  32.364 -10.023  0.00  0.00    +0.011 A 
ATOM     20  C   LIG    1       55.253  32.153  -8.775  0.00  0.00    +0.049 A 
ATOM     21  C   LIG    1       56.350  32.919  -8.380  0.00  0.00    +0.158 A 
ATOM     22  C   LIG    1       56.860  33.898  -9.232  0.00  0.00    +0.159 A 
ATOM     27  C   LIG    1       56.274  34.110 -10.481  0.00  0.00    +0.056 A 
BRANCH  22  23
ATOM     23  O   LIG    1       57.930  34.653  -8.857  0.00  0.00    -0.503 OA
ATOM     24  H   LIG    1       58.594  34.618  -9.568  0.00  0.00    +0.292 HD
ENDBRANCH  22  23
BRANCH  21  25
ATOM     25  O   LIG    1       56.912  32.704  -7.158  0.00  0.00    -0.503 OA
ATOM     26  H   LIG    1       57.144  31.763  -7.077  0.00  0.00    +0.292 HD
ENDBRANCH  21  25
ENDBRANCH  17  18
BRANCH   6   7
ATOM      7  O   LIG    1       51.644  33.530 -16.357  0.00  0.00    -0.506 OA
ATOM      8  H   LIG    1       51.343  34.255 -15.789  0.00  0.00    +0.292 HD
ENDBRANCH   6   7
BRANCH   4   9
ATOM      9  O   LIG    1       55.880  31.951 -17.796  0.00  0.00    -0.507 OA
ATOM     10  H   LIG    1       56.519  31.303 -17.452  0.00  0.00    +0.292 HD
ENDBRANCH   4   9
BRANCH  13  14
ATOM     14  O   LIG    1       52.389  34.182 -11.322  0.00  0.00    -0.380 OA
ATOM     15  H   LIG    1       52.642  35.087 -11.577  0.00  0.00    +0.211 HD
ENDBRANCH  13  14
TORSDOF 6
ENDMDL
MODEL 8
REMARK VINA RESULT:      -8.7      1.403      7.073
REMARK  Name = 439533
REMARK                            x       y       z     vdW  Elec       q    Type
REMARK                         _______ _______ _______ _____ _____    ______ ____
ROOT
ATOM      1  O   LIG    1       55.331  33.414 -13.583  0.00  0.00    -0.480 OA
ATOM      2  C   LIG    1       56.468  33.364 -12.824  0.00  0.00    +0.139 A 
ATOM      3  C   LIG    1       57.661  33.106 -13.502  0.00  0.00    +0.092 A 
ATOM      4  C   LIG    1       58.864  33.034 -12.798  0.00  0.00    +0.124 A 
ATOM      5  C   LIG    1       58.878  33.229 -11.417  0.00  0.00    +0.091 A 
ATOM      6  C   LIG    1       57.694  33.505 -10.736  0.00  0.00    +0.134 A 
ATOM     11  C   LIG    1       56.491  33.580 -11.444  0.00  0.00    +0.103 A 
ATOM     12  C   LIG    1       55.234  33.920 -10.748  0.00  0.00    +0.202 C 
ATOM     13  C   LIG    1       54.034  34.150 -11.642  0.00  0.00    +0.230 C 
ATOM     16  O   LIG    1       55.195  34.032  -9.528  0.00  0.00    -0.289 OA
ATOM     17  C   LIG    1       54.122  33.200 -12.837  0.00  0.00    +0.240 C 
ENDROOT
BRANCH  17  18
ATOM     18  C   LIG    1       52.962  33.392 -13.795  0.00  0.00    -0.001 A 
ATOM     19  C   LIG    1       51.895  34.214 -13.438  0.00  0.00    +0.011 A 
ATOM     20  C   LIG    1       50.828  34.390 -14.319  0.00  0.00    +0.049 A 
ATOM     21  C   LIG    1       50.832  33.745 -15.557  0.00  0.00    +0.158 A 
ATOM     22  C   LIG    1       51.901  32.923 -15.912  0.00  0.00    +0.159 A 
ATOM     27  C   LIG    1       52.968  32.747 -15.030  0.00  0.00    +0.056 A 
BRANCH  22  23
ATOM     23  O   LIG    1       51.915  32.288 -17.116  0.00  0.00    -0.503 OA
ATOM     24  H   LIG    1       51.835  31.331 -16.958  0.00  0.00    +0.292 HD
ENDBRANCH  22  23
BRANCH  21  25
ATOM     25  O   LIG    1       49.784  33.924 -16.408  0.00  0.00    -0.503 OA
ATOM     26  H   LIG    1       49.791  33.214 -17.073  0.00  0.00    +0.292 HD
ENDBRANCH  21  25
ENDBRANCH  17  18
BRANCH   6   7
ATOM      7  O   LIG    1       57.769  33.706  -9.391  0.00  0.00    -0.506 OA
ATOM      8  H   LIG    1       58.123  34.587  -9.195  0.00  0.00    +0.292 HD
ENDBRANCH   6   7
BRANCH   4   9
ATOM      9  O   LIG    1       60.024  32.772 -13.460  0.00  0.00    -0.507 OA
ATOM     10  H   LIG    1       59.917  31.951 -13.972  0.00  0.00    +0.292 HD
ENDBRANCH   4   9
BRANCH  13  14
ATOM     14  O   LIG    1       52.865  33.879 -10.888  0.00  0.00    -0.380 OA
ATOM     15  H   LIG    1       53.145  33.635  -9.989  0.00  0.00    +0.211 HD
ENDBRANCH  13  14
TORSDOF 6
ENDMDL
MODEL 9
REMARK VINA RESULT:      -8.5     27.710     31.546
REMARK  Name = 439533
REMARK                            x       y       z     vdW  Elec       q    Type
REMARK                         _______ _______ _______ _____ _____    ______ ____
ROOT
ATOM      1  O   LIG    1       35.466  18.361 -33.300  0.00  0.00    -0.480 OA
ATOM      2  C   LIG    1       34.305  17.695 -33.590  0.00  0.00    +0.139 A 
ATOM      3  C   LIG    1       33.117  18.410 -33.421  0.00  0.00    +0.092 A 
ATOM      4  C   LIG    1       31.891  17.801 -33.692  0.00  0.00    +0.124 A 
ATOM      5  C   LIG    1       31.850  16.481 -34.141  0.00  0.00    +0.091 A 
ATOM      6  C   LIG    1       33.033  15.768 -34.330  0.00  0.00    +0.134 A 
ATOM     11  C   LIG    1       34.260  16.381 -34.062  0.00  0.00    +0.103 A 
ATOM     12  C   LIG    1       35.525  15.659 -34.301  0.00  0.00    +0.202 C 
ATOM     13  C   LIG    1       36.786  16.482 -34.149  0.00  0.00    +0.230 C 
ATOM     16  O   LIG    1       35.528  14.479 -34.631  0.00  0.00    -0.289 OA
ATOM     17  C   LIG    1       36.578  17.496 -33.023  0.00  0.00    +0.240 C 
ENDROOT
BRANCH  17  18
ATOM     18  C   LIG    1       37.796  18.378 -32.828  0.00  0.00    -0.001 A 
ATOM     19  C   LIG    1       38.917  18.205 -33.637  0.00  0.00    +0.011 A 
ATOM     20  C   LIG    1       40.037  19.016 -33.458  0.00  0.00    +0.049 A 
ATOM     21  C   LIG    1       40.032  20.002 -32.471  0.00  0.00    +0.158 A 
ATOM     22  C   LIG    1       38.909  20.175 -31.662  0.00  0.00    +0.159 A 
ATOM     27  C   LIG    1       37.790  19.362 -31.841  0.00  0.00    +0.056 A 
BRANCH  22  23
ATOM     23  O   LIG    1       38.894  21.133 -30.694  0.00  0.00    -0.503 OA
ATOM     24  H   LIG    1       39.643  20.973 -30.094  0.00  0.00    +0.292 HD
ENDBRANCH  22  23
BRANCH  21  25
ATOM     25  O   LIG    1       41.132  20.788 -32.304  0.00  0.00    -0.503 OA
ATOM     26  H   LIG    1       41.750  20.629 -33.039  0.00  0.00    +0.292 HD
ENDBRANCH  21  25
ENDBRANCH  17  18
BRANCH   6   7
ATOM      7  O   LIG    1       32.935  14.489 -34.788  0.00  0.00    -0.506 OA
ATOM      8  H   LIG    1       32.746  13.877 -34.061  0.00  0.00    +0.292 HD
ENDBRANCH   6   7
BRANCH   4   9
ATOM      9  O   LIG    1       30.734  18.496 -33.517  0.00  0.00    -0.507 OA
ATOM     10  H   LIG    1       30.823  19.065 -32.733  0.00  0.00    +0.292 HD
ENDBRANCH   4   9
BRANCH  13  14
ATOM     14  O   LIG    1       37.850  15.604 -33.825  0.00  0.00    -0.380 OA
ATOM     15  H   LIG    1       38.240  15.295 -34.661  0.00  0.00    +0.211 HD
ENDBRANCH  13  14
TORSDOF 6
ENDMDL
