REMARK  21 active torsions:
REMARK  status: ('A' for Active; 'I' for Inactive)
REMARK    1  A    between atoms: C_2  and  O_11 
REMARK    2  A    between atoms: C_3  and  O_7 
REMARK    3  A    between atoms: C_4  and  O_42 
REMARK    4  A    between atoms: C_5  and  O_9 
REMARK    5  A    between atoms: C_6  and  C_26 
REMARK    6  A    between atoms: O_11  and  C_12 
REMARK    7  A    between atoms: C_12  and  C_14 
REMARK    8  A    between atoms: C_16  and  O_20 
REMARK    9  A    between atoms: C_17  and  O_22 
REMARK   10  A    between atoms: C_18  and  O_24 
REMARK   11  A    between atoms: C_26  and  O_27 
REMARK   12  A    between atoms: O_27  and  C_28 
REMARK   13  A    between atoms: C_28  and  C_30 
REMARK   14  A    between atoms: C_32  and  O_36 
REMARK   15  A    between atoms: C_33  and  O_38 
REMARK   16  A    between atoms: C_34  and  O_40 
REMARK   17  A    between atoms: O_42  and  C_43 
REMARK   18  A    between atoms: C_43  and  C_45 
REMARK   19  A    between atoms: C_47  and  O_51 
REMARK   20  A    between atoms: C_48  and  O_53 
REMARK   21  A    between atoms: C_49  and  O_55 
ROOT
ATOM      1  O   UNL     1      -0.400  -0.497   0.051  0.00  0.00    -0.330 OA
ATOM      2  C   UNL     1       0.226   0.510  -0.741  0.00  0.00     0.344 C 
ATOM      3  C   UNL     1       1.737   0.513  -0.508  0.00  0.00     0.226 C 
ATOM      4  C   UNL     1       2.337  -0.875  -0.734  0.00  0.00     0.242 C 
ATOM      5  C   UNL     1       1.541  -1.950   0.006  0.00  0.00     0.190 C 
ATOM      6  C   UNL     1       0.044  -1.813  -0.285  0.00  0.00     0.192 C 
ENDROOT
BRANCH   6   7
ATOM      7  C   UNL     1      -0.782  -2.800   0.533  0.00  0.00     0.266 C 
BRANCH   7   8
ATOM      8  O   UNL     1      -2.150  -2.609   0.221  0.00  0.00    -0.458 OA
BRANCH   8   9
ATOM      9  C   UNL     1      -3.036  -3.418   0.871  0.00  0.00     0.340 C 
ATOM     10  O   UNL     1      -2.749  -4.281   1.687  0.00  0.00    -0.245 OA
BRANCH   9  11
ATOM     11  C   UNL     1      -4.431  -3.121   0.457  0.00  0.00     0.066 A 
ATOM     12  C   UNL     1      -4.780  -1.830   0.060  0.00  0.00     0.064 A 
ATOM     13  C   UNL     1      -6.089  -1.551  -0.331  0.00  0.00     0.163 A 
ATOM     14  C   UNL     1      -7.049  -2.562  -0.326  0.00  0.00     0.201 A 
ATOM     15  C   UNL     1      -6.700  -3.853   0.071  0.00  0.00     0.163 A 
ATOM     16  C   UNL     1      -5.391  -4.132   0.462  0.00  0.00     0.064 A 
BRANCH  13  17
ATOM     17  O   UNL     1      -6.418  -0.286  -0.717  0.00  0.00    -0.503 OA
ATOM     18  H   UNL     1      -5.629   0.280  -0.658  0.00  0.00     0.292 HD
ENDBRANCH  13  17
BRANCH  14  19
ATOM     19  O   UNL     1      -8.330  -2.290  -0.707  0.00  0.00    -0.501 OA
ATOM     20  H   UNL     1      -8.385  -1.348  -0.946  0.00  0.00     0.292 HD
ENDBRANCH  14  19
BRANCH  15  21
ATOM     21  O   UNL     1      -7.628  -4.851   0.080  0.00  0.00    -0.503 OA
ATOM     22  H   UNL     1      -7.207  -5.673   0.383  0.00  0.00     0.292 HD
ENDBRANCH  15  21
ENDBRANCH   9  11
ENDBRANCH   8   9
ENDBRANCH   7   8
ENDBRANCH   6   7
BRANCH   5  23
ATOM     23  O   UNL     1       1.986  -3.237  -0.411  0.00  0.00    -0.385 OA
ATOM     24  H   UNL     1       1.807  -3.324  -1.363  0.00  0.00     0.210 HD
ENDBRANCH   5  23
BRANCH   4  25
ATOM     25  O   UNL     1       3.677  -0.899  -0.240  0.00  0.00    -0.452 OA
BRANCH  25  26
ATOM     26  C   UNL     1       4.643  -0.557  -1.132  0.00  0.00     0.340 C 
ATOM     27  O   UNL     1       4.468  -0.237  -2.297  0.00  0.00    -0.245 OA
BRANCH  26  28
ATOM     28  C   UNL     1       5.984  -0.624  -0.498  0.00  0.00     0.066 A 
ATOM     29  C   UNL     1       6.224  -1.532   0.533  0.00  0.00     0.064 A 
ATOM     30  C   UNL     1       7.485  -1.597   1.126  0.00  0.00     0.163 A 
ATOM     31  C   UNL     1       8.505  -0.752   0.690  0.00  0.00     0.201 A 
ATOM     32  C   UNL     1       8.265   0.157  -0.341  0.00  0.00     0.163 A 
ATOM     33  C   UNL     1       7.004   0.221  -0.935  0.00  0.00     0.064 A 
BRANCH  30  34
ATOM     34  O   UNL     1       7.707  -2.489   2.132  0.00  0.00    -0.503 OA
ATOM     35  H   UNL     1       6.889  -2.988   2.301  0.00  0.00     0.292 HD
ENDBRANCH  30  34
BRANCH  31  36
ATOM     36  O   UNL     1       9.737  -0.813   1.271  0.00  0.00    -0.501 OA
ATOM     37  H   UNL     1       9.716  -1.497   1.963  0.00  0.00     0.292 HD
ENDBRANCH  31  36
BRANCH  32  38
ATOM     38  O   UNL     1       9.253   0.988  -0.777  0.00  0.00    -0.503 OA
ATOM     39  H   UNL     1       8.905   1.546  -1.494  0.00  0.00     0.292 HD
ENDBRANCH  32  38
ENDBRANCH  26  28
ENDBRANCH  25  26
ENDBRANCH   4  25
BRANCH   2  40
ATOM     40  O   UNL     1      -0.278   1.794  -0.374  0.00  0.00    -0.429 OA
BRANCH  40  41
ATOM     41  C   UNL     1      -1.617   1.969  -0.523  0.00  0.00     0.342 C 
ATOM     42  O   UNL     1      -2.412   1.138  -0.935  0.00  0.00    -0.245 OA
BRANCH  41  43
ATOM     43  C   UNL     1      -2.013   3.340  -0.111  0.00  0.00     0.066 A 
ATOM     44  C   UNL     1      -3.349   3.732  -0.185  0.00  0.00     0.064 A 
ATOM     45  C   UNL     1      -3.720   5.021   0.200  0.00  0.00     0.163 A 
ATOM     46  C   UNL     1      -2.755   5.917   0.659  0.00  0.00     0.201 A 
ATOM     47  C   UNL     1      -1.418   5.524   0.733  0.00  0.00     0.163 A 
ATOM     48  C   UNL     1      -1.047   4.236   0.348  0.00  0.00     0.064 A 
BRANCH  45  49
ATOM     49  O   UNL     1      -5.029   5.391   0.122  0.00  0.00    -0.503 OA
ATOM     50  H   UNL     1      -5.551   4.644  -0.216  0.00  0.00     0.292 HD
ENDBRANCH  45  49
BRANCH  46  51
ATOM     51  O   UNL     1      -3.118   7.175   1.036  0.00  0.00    -0.501 OA
ATOM     52  H   UNL     1      -2.320   7.651   1.325  0.00  0.00     0.292 HD
ENDBRANCH  46  51
BRANCH  47  53
ATOM     53  O   UNL     1      -0.466   6.390   1.179  0.00  0.00    -0.503 OA
ATOM     54  H   UNL     1       0.400   5.948   1.163  0.00  0.00     0.292 HD
ENDBRANCH  47  53
ENDBRANCH  41  43
ENDBRANCH  40  41
ENDBRANCH   2  40
BRANCH   3  55
ATOM     55  O   UNL     1       2.328   1.439  -1.420  0.00  0.00    -0.382 OA
ATOM     56  H   UNL     1       2.140   1.134  -2.324  0.00  0.00     0.210 HD
ENDBRANCH   3  55
TORSDOF 21
