REMARK  Name = 4485
REMARK  10 active torsions:
REMARK  status: ('A' for Active; 'I' for Inactive)
REMARK    1  A    between atoms: O_1  and  C_17
REMARK    2  A    between atoms: O_1  and  C_24
REMARK    3  A    between atoms: O_2  and  C_18
REMARK    4  A    between atoms: O_2  and  C_25
REMARK    5  A    between atoms: N_8  and  C_15
REMARK    6  A    between atoms: C_9  and  C_12
REMARK    7  A    between atoms: C_10  and  C_17
REMARK    8  A    between atoms: C_11  and  C_18
REMARK    9  A    between atoms: C_13  and  C_19
REMARK   10  A    between atoms: C_14  and  C_20
REMARK                            x       y       z     vdW  Elec       q    Type
REMARK                         _______ _______ _______ _____ _____    ______ ____
ROOT
ATOM      1  C   UNL     1       1.850  -0.194  -0.010  0.00  0.00    +0.065 C 
ATOM      2  C   UNL     1       2.442  -1.263   0.570  0.00  0.00    +0.016 C 
ATOM      3  C   UNL     1       3.893  -1.355   0.959  0.00  0.00    +0.061 C 
ATOM      4  N   UNL     1       1.688  -2.391   0.855  0.00  0.00    -0.321 N 
ATOM      5  H   UNL     1       2.162  -3.171   1.296  0.00  0.00    +0.152 HD
ATOM      6  C   UNL     1       0.361  -2.568   0.498  0.00  0.00    +0.016 C 
ATOM      7  C   UNL     1      -0.207  -3.925   0.818  0.00  0.00    +0.061 C 
ATOM      8  C   UNL     1      -0.311  -1.557  -0.095  0.00  0.00    +0.065 C 
ATOM      9  C   UNL     1       0.349  -0.194  -0.325  0.00  0.00    +0.102 C 
ENDROOT
BRANCH   9  10
ATOM     10  C   UNL     1      -0.346   0.857   0.493  0.00  0.00    +0.042 A 
ATOM     11  C   UNL     1       0.148   1.141   1.763  0.00  0.00    +0.011 A 
ATOM     12  C   UNL     1      -0.475   2.112   2.547  0.00  0.00    +0.001 A 
ATOM     13  C   UNL     1      -1.590   2.793   2.058  0.00  0.00    +0.007 A 
ATOM     14  C   UNL     1      -2.081   2.504   0.784  0.00  0.00    +0.084 A 
ATOM     15  C   UNL     1      -1.457   1.533   0.000  0.00  0.00    +0.277 A 
BRANCH  15  16
ATOM     16  N   UNL     1      -1.974   1.256  -1.295  0.00  0.00    +0.080 N 
ATOM     17  O   UNL     1      -1.411   0.383  -1.998  0.00  0.00    +0.041 OA
ATOM     18  O   UNL     1      -2.977   1.893  -1.697  0.00  0.00    -0.576 OA
ENDBRANCH  15  16
ENDBRANCH   9  10
BRANCH   1  19
ATOM     19  C   UNL     1       2.610   0.996  -0.425  0.00  0.00    +0.337 C 
ATOM     20  O   UNL     1       2.807   1.952   0.302  0.00  0.00    -0.245 OA
BRANCH  19  21
ATOM     21  O   UNL     1       3.019   0.817  -1.704  0.00  0.00    -0.465 OA
ATOM     22  C   UNL     1       3.778   1.899  -2.256  0.00  0.00    +0.280 C 
ENDBRANCH  19  21
ENDBRANCH   1  19
BRANCH   8  23
ATOM     23  C   UNL     1      -1.687  -1.715  -0.594  0.00  0.00    +0.337 C 
ATOM     24  O   UNL     1      -1.951  -2.078  -1.725  0.00  0.00    -0.245 OA
BRANCH  23  25
ATOM     25  O   UNL     1      -2.544  -1.395   0.406  0.00  0.00    -0.465 OA
ATOM     26  C   UNL     1      -3.932  -1.502   0.073  0.00  0.00    +0.280 C 
ENDBRANCH  23  25
ENDBRANCH   8  23
TORSDOF 6
