MODEL 1
REMARK VINA RESULT:      -8.4      0.000      0.000
REMARK SMILES O=C(OC[C@H]1O[C@@H](OC(=O)c2cc(O)c(O)c(O)c2)[C@H](OC(=O)c2cc(O)c(O)c(O)c2)[C@@H](O)[C@@H]1O)c1cc(O)c(O)c(O)c1
REMARK SMILES IDX 6 1 33 2 35 3 20 4 5 5 7 6 4 7 3 8 2 9 1 10 37 11 45 12
REMARK SMILES IDX 38 13 43 14 39 15 41 16 44 17 40 19 42 21 8 23 9 24 10 25
REMARK SMILES IDX 11 26 19 27 12 28 17 29 13 30 15 31 18 32 14 34 16 36 36 38
REMARK SMILES IDX 21 40 22 41 23 42 24 43 32 44 25 45 30 46 26 47 28 48 31 49
REMARK SMILES IDX 27 51 29 53 34 55
REMARK H PARENT 44 18 40 20 42 22 18 33 14 35 16 37 36 39 31 50 27 52 29 54
REMARK H PARENT 34 56
REMARK Flexibility Score: inf
ROOT
ATOM      1  O   UNL     1     181.569 183.761 171.398  1.00  0.00    -0.330 OA
ATOM      2  C   UNL     1     181.978 182.124 173.721  1.00  0.00     0.193 C 
ATOM      3  C   UNL     1     182.713 183.448 173.511  1.00  0.00     0.179 C 
ATOM      4  C   UNL     1     181.485 181.548 172.395  1.00  0.00     0.277 C 
ATOM      5  C   UNL     1     181.886 184.394 172.637  1.00  0.00     0.192 C 
ATOM      6  C   UNL     1     180.752 182.605 171.567  1.00  0.00     0.355 C 
ENDROOT
BRANCH   5   7
ATOM      7  C   UNL     1     182.648 185.676 172.316  1.00  0.00     0.268 C 
BRANCH   7   8
ATOM      8  O   UNL     1     183.962 185.332 171.914  1.00  0.00    -0.459 OA
BRANCH   8   9
ATOM      9  C   UNL     1     184.957 186.170 172.321  1.00  0.00     0.338 C 
ATOM     10  O   UNL     1     185.178 187.286 171.877  1.00  0.00    -0.246 OA
BRANCH   9  11
ATOM     11  C   UNL     1     185.767 185.549 173.400  1.00  0.00     0.067 A 
ATOM     12  C   UNL     1     185.729 186.074 174.691  1.00  0.00     0.066 A 
ATOM     13  C   UNL     1     186.563 184.437 173.123  1.00  0.00     0.066 A 
ATOM     14  C   UNL     1     186.487 185.490 175.706  1.00  0.00     0.162 A 
ATOM     15  C   UNL     1     187.320 183.852 174.137  1.00  0.00     0.162 A 
ATOM     16  C   UNL     1     187.282 184.378 175.428  1.00  0.00     0.200 A 
BRANCH  14  17
ATOM     17  O   UNL     1     186.441 186.012 176.963  1.00  0.00    -0.504 OA
ATOM     18  H   UNL     1     187.347 186.208 177.259  1.00  0.00     0.293 HD
ENDBRANCH  14  17
BRANCH  15  19
ATOM     19  O   UNL     1     188.094 182.767 173.853  1.00  0.00    -0.504 OA
ATOM     20  H   UNL     1     188.757 183.015 173.186  1.00  0.00     0.293 HD
ENDBRANCH  15  19
BRANCH  16  21
ATOM     21  O   UNL     1     188.026 183.807 176.419  1.00  0.00    -0.502 OA
ATOM     22  H   UNL     1     188.853 183.476 176.030  1.00  0.00     0.293 HD
ENDBRANCH  16  21
ENDBRANCH   9  11
ENDBRANCH   8   9
ENDBRANCH   7   8
ENDBRANCH   5   7
BRANCH   6  23
ATOM     23  O   UNL     1     180.450 182.035 170.294  1.00  0.00    -0.428 OA
BRANCH  23  24
ATOM     24  C   UNL     1     179.217 182.315 169.797  1.00  0.00     0.340 C 
ATOM     25  O   UNL     1     178.728 183.427 169.664  1.00  0.00    -0.246 OA
BRANCH  24  26
ATOM     26  C   UNL     1     178.508 181.065 169.425  1.00  0.00     0.067 A 
ATOM     27  C   UNL     1     179.146 180.111 168.631  1.00  0.00     0.066 A 
ATOM     28  C   UNL     1     177.206 180.842 169.871  1.00  0.00     0.066 A 
ATOM     29  C   UNL     1     178.481 178.935 168.284  1.00  0.00     0.162 A 
ATOM     30  C   UNL     1     176.541 179.666 169.524  1.00  0.00     0.162 A 
ATOM     31  C   UNL     1     177.179 178.713 168.730  1.00  0.00     0.200 A 
BRANCH  29  32
ATOM     32  O   UNL     1     179.115 178.012 167.509  1.00  0.00    -0.504 OA
ATOM     33  H   UNL     1     178.734 177.134 167.683  1.00  0.00     0.293 HD
ENDBRANCH  29  32
BRANCH  30  34
ATOM     34  O   UNL     1     175.269 179.461 169.966  1.00  0.00    -0.504 OA
ATOM     35  H   UNL     1     175.142 178.512 170.140  1.00  0.00     0.293 HD
ENDBRANCH  30  34
BRANCH  31  36
ATOM     36  O   UNL     1     176.528 177.564 168.389  1.00  0.00    -0.502 OA
ATOM     37  H   UNL     1     176.003 177.735 167.588  1.00  0.00     0.293 HD
ENDBRANCH  31  36
ENDBRANCH  24  26
ENDBRANCH  23  24
ENDBRANCH   6  23
BRANCH   3  38
ATOM     38  O   UNL     1     182.951 184.061 174.776  1.00  0.00    -0.387 OA
ATOM     39  H   UNL     1     183.729 184.637 174.687  1.00  0.00     0.211 HD
ENDBRANCH   3  38
BRANCH   4  40
ATOM     40  O   UNL     1     180.580 180.474 172.651  1.00  0.00    -0.449 OA
BRANCH  40  41
ATOM     41  C   UNL     1     181.052 179.226 172.389  1.00  0.00     0.339 C 
ATOM     42  O   UNL     1     182.220 178.873 172.436  1.00  0.00    -0.246 OA
BRANCH  41  43
ATOM     43  C   UNL     1     179.938 178.313 172.029  1.00  0.00     0.067 A 
ATOM     44  C   UNL     1     180.184 177.190 171.240  1.00  0.00     0.066 A 
ATOM     45  C   UNL     1     178.646 178.576 172.483  1.00  0.00     0.066 A 
ATOM     46  C   UNL     1     179.139 176.330 170.904  1.00  0.00     0.162 A 
ATOM     47  C   UNL     1     177.600 177.717 172.147  1.00  0.00     0.162 A 
ATOM     48  C   UNL     1     177.847 176.594 171.358  1.00  0.00     0.200 A 
BRANCH  46  49
ATOM     49  O   UNL     1     179.392 175.236 170.132  1.00  0.00    -0.504 OA
ATOM     50  H   UNL     1     179.145 174.434 170.626  1.00  0.00     0.293 HD
ENDBRANCH  46  49
BRANCH  47  51
ATOM     51  O   UNL     1     176.342 177.985 172.598  1.00  0.00    -0.504 OA
ATOM     52  H   UNL     1     176.400 178.592 173.356  1.00  0.00     0.293 HD
ENDBRANCH  47  51
BRANCH  48  53
ATOM     53  O   UNL     1     176.823 175.754 171.029  1.00  0.00    -0.502 OA
ATOM     54  H   UNL     1     176.429 175.412 171.851  1.00  0.00     0.293 HD
ENDBRANCH  48  53
ENDBRANCH  41  43
ENDBRANCH  40  41
ENDBRANCH   4  40
BRANCH   2  55
ATOM     55  O   UNL     1     182.888 181.205 174.329  1.00  0.00    -0.386 OA
ATOM     56  H   UNL     1     183.620 181.048 173.708  1.00  0.00     0.211 HD
ENDBRANCH   2  55
TORSDOF 21
ENDMDL
MODEL 2
REMARK VINA RESULT:      -8.3      0.129      1.758
REMARK SMILES O=C(OC[C@H]1O[C@@H](OC(=O)c2cc(O)c(O)c(O)c2)[C@H](OC(=O)c2cc(O)c(O)c(O)c2)[C@@H](O)[C@@H]1O)c1cc(O)c(O)c(O)c1
REMARK SMILES IDX 6 1 33 2 35 3 20 4 5 5 7 6 4 7 3 8 2 9 1 10 37 11 45 12
REMARK SMILES IDX 38 13 43 14 39 15 41 16 44 17 40 19 42 21 8 23 9 24 10 25
REMARK SMILES IDX 11 26 19 27 12 28 17 29 13 30 15 31 18 32 14 34 16 36 36 38
REMARK SMILES IDX 21 40 22 41 23 42 24 43 32 44 25 45 30 46 26 47 28 48 31 49
REMARK SMILES IDX 27 51 29 53 34 55
REMARK H PARENT 44 18 40 20 42 22 18 33 14 35 16 37 36 39 31 50 27 52 29 54
REMARK H PARENT 34 56
REMARK Flexibility Score: inf
ROOT
ATOM      1  O   UNL     1     181.615 183.801 171.443  1.00  0.00    -0.330 OA
ATOM      2  C   UNL     1     182.021 182.151 173.758  1.00  0.00     0.193 C 
ATOM      3  C   UNL     1     182.746 183.482 173.562  1.00  0.00     0.179 C 
ATOM      4  C   UNL     1     181.541 181.580 172.423  1.00  0.00     0.277 C 
ATOM      5  C   UNL     1     181.919 184.427 172.689  1.00  0.00     0.192 C 
ATOM      6  C   UNL     1     180.807 182.637 171.599  1.00  0.00     0.355 C 
ENDROOT
BRANCH   5   7
ATOM      7  C   UNL     1     182.673 185.718 172.382  1.00  0.00     0.268 C 
BRANCH   7   8
ATOM      8  O   UNL     1     183.913 185.385 171.786  1.00  0.00    -0.459 OA
BRANCH   8   9
ATOM      9  C   UNL     1     184.975 186.172 172.122  1.00  0.00     0.338 C 
ATOM     10  O   UNL     1     185.273 187.232 171.594  1.00  0.00    -0.246 OA
BRANCH   9  11
ATOM     11  C   UNL     1     185.752 185.571 173.236  1.00  0.00     0.067 A 
ATOM     12  C   UNL     1     186.522 184.431 173.014  1.00  0.00     0.066 A 
ATOM     13  C   UNL     1     185.714 186.151 174.505  1.00  0.00     0.066 A 
ATOM     14  C   UNL     1     187.254 183.868 174.060  1.00  0.00     0.162 A 
ATOM     15  C   UNL     1     186.445 185.589 175.550  1.00  0.00     0.162 A 
ATOM     16  C   UNL     1     187.215 184.448 175.327  1.00  0.00     0.200 A 
BRANCH  14  17
ATOM     17  O   UNL     1     188.004 182.754 173.830  1.00  0.00    -0.504 OA
ATOM     18  H   UNL     1     188.714 182.706 174.493  1.00  0.00     0.293 HD
ENDBRANCH  14  17
BRANCH  15  19
ATOM     19  O   UNL     1     186.398 186.164 176.784  1.00  0.00    -0.504 OA
ATOM     20  H   UNL     1     185.662 186.799 176.811  1.00  0.00     0.293 HD
ENDBRANCH  15  19
BRANCH  16  21
ATOM     21  O   UNL     1     187.930 183.897 176.351  1.00  0.00    -0.502 OA
ATOM     22  H   UNL     1     188.773 184.375 176.428  1.00  0.00     0.293 HD
ENDBRANCH  16  21
ENDBRANCH   9  11
ENDBRANCH   8   9
ENDBRANCH   7   8
ENDBRANCH   5   7
BRANCH   6  23
ATOM     23  O   UNL     1     180.518 182.074 170.319  1.00  0.00    -0.428 OA
BRANCH  23  24
ATOM     24  C   UNL     1     179.293 182.365 169.806  1.00  0.00     0.340 C 
ATOM     25  O   UNL     1     178.816 183.480 169.667  1.00  0.00    -0.246 OA
BRANCH  24  26
ATOM     26  C   UNL     1     178.578 181.120 169.426  1.00  0.00     0.067 A 
ATOM     27  C   UNL     1     179.205 180.177 168.610  1.00  0.00     0.066 A 
ATOM     28  C   UNL     1     177.282 180.892 169.886  1.00  0.00     0.066 A 
ATOM     29  C   UNL     1     178.534 179.007 168.255  1.00  0.00     0.162 A 
ATOM     30  C   UNL     1     176.612 179.721 169.531  1.00  0.00     0.162 A 
ATOM     31  C   UNL     1     177.238 178.779 168.715  1.00  0.00     0.200 A 
BRANCH  29  32
ATOM     32  O   UNL     1     179.157 178.094 167.458  1.00  0.00    -0.504 OA
ATOM     33  H   UNL     1     179.282 178.477 166.573  1.00  0.00     0.293 HD
ENDBRANCH  29  32
BRANCH  30  34
ATOM     34  O   UNL     1     175.346 179.511 169.987  1.00  0.00    -0.504 OA
ATOM     35  H   UNL     1     174.747 179.405 169.228  1.00  0.00     0.293 HD
ENDBRANCH  30  34
BRANCH  31  36
ATOM     36  O   UNL     1     176.582 177.636 168.367  1.00  0.00    -0.502 OA
ATOM     37  H   UNL     1     176.748 177.462 167.424  1.00  0.00     0.293 HD
ENDBRANCH  31  36
ENDBRANCH  24  26
ENDBRANCH  23  24
ENDBRANCH   6  23
BRANCH   3  38
ATOM     38  O   UNL     1     182.971 184.088 174.833  1.00  0.00    -0.387 OA
ATOM     39  H   UNL     1     182.420 183.626 175.487  1.00  0.00     0.211 HD
ENDBRANCH   3  38
BRANCH   4  40
ATOM     40  O   UNL     1     180.643 180.498 172.665  1.00  0.00    -0.449 OA
BRANCH  40  41
ATOM     41  C   UNL     1     181.129 179.254 172.405  1.00  0.00     0.339 C 
ATOM     42  O   UNL     1     182.298 178.909 172.475  1.00  0.00    -0.246 OA
BRANCH  41  43
ATOM     43  C   UNL     1     180.029 178.337 172.013  1.00  0.00     0.067 A 
ATOM     44  C   UNL     1     178.734 178.562 172.479  1.00  0.00     0.066 A 
ATOM     45  C   UNL     1     180.291 177.254 171.175  1.00  0.00     0.066 A 
ATOM     46  C   UNL     1     177.700 177.702 172.108  1.00  0.00     0.162 A 
ATOM     47  C   UNL     1     179.257 176.394 170.804  1.00  0.00     0.162 A 
ATOM     48  C   UNL     1     177.962 176.618 171.271  1.00  0.00     0.200 A 
BRANCH  46  49
ATOM     49  O   UNL     1     176.439 177.931 172.571  1.00  0.00    -0.504 OA
ATOM     50  H   UNL     1     175.806 177.429 172.029  1.00  0.00     0.293 HD
ENDBRANCH  46  49
BRANCH  47  51
ATOM     51  O   UNL     1     179.526 175.339 169.984  1.00  0.00    -0.504 OA
ATOM     52  H   UNL     1     180.318 175.540 169.458  1.00  0.00     0.293 HD
ENDBRANCH  47  51
BRANCH  48  53
ATOM     53  O   UNL     1     176.952 175.775 170.909  1.00  0.00    -0.502 OA
ATOM     54  H   UNL     1     176.138 176.299 170.806  1.00  0.00     0.293 HD
ENDBRANCH  48  53
ENDBRANCH  41  43
ENDBRANCH  40  41
ENDBRANCH   4  40
BRANCH   2  55
ATOM     55  O   UNL     1     182.934 181.235 174.365  1.00  0.00    -0.386 OA
ATOM     56  H   UNL     1     183.290 180.657 173.670  1.00  0.00     0.211 HD
ENDBRANCH   2  55
TORSDOF 21
ENDMDL
MODEL 3
REMARK VINA RESULT:      -8.2      4.897      8.784
REMARK SMILES O=C(OC[C@H]1O[C@@H](OC(=O)c2cc(O)c(O)c(O)c2)[C@H](OC(=O)c2cc(O)c(O)c(O)c2)[C@@H](O)[C@@H]1O)c1cc(O)c(O)c(O)c1
REMARK SMILES IDX 6 1 33 2 35 3 20 4 5 5 7 6 4 7 3 8 2 9 1 10 37 11 45 12
REMARK SMILES IDX 38 13 43 14 39 15 41 16 44 17 40 19 42 21 8 23 9 24 10 25
REMARK SMILES IDX 11 26 19 27 12 28 17 29 13 30 15 31 18 32 14 34 16 36 36 38
REMARK SMILES IDX 21 40 22 41 23 42 24 43 32 44 25 45 30 46 26 47 28 48 31 49
REMARK SMILES IDX 27 51 29 53 34 55
REMARK H PARENT 44 18 40 20 42 22 18 33 14 35 16 37 36 39 31 50 27 52 29 54
REMARK H PARENT 34 56
REMARK Flexibility Score: inf
ROOT
ATOM      1  O   UNL     1     182.324 184.499 171.505  1.00  0.00    -0.330 OA
ATOM      2  C   UNL     1     179.800 185.793 171.953  1.00  0.00     0.193 C 
ATOM      3  C   UNL     1     180.174 184.471 172.622  1.00  0.00     0.179 C 
ATOM      4  C   UNL     1     180.620 186.023 170.685  1.00  0.00     0.277 C 
ATOM      5  C   UNL     1     181.692 184.350 172.776  1.00  0.00     0.192 C 
ATOM      6  C   UNL     1     182.109 185.788 170.935  1.00  0.00     0.355 C 
ENDROOT
BRANCH   5   7
ATOM      7  C   UNL     1     182.097 182.989 173.334  1.00  0.00     0.268 C 
BRANCH   7   8
ATOM      8  O   UNL     1     182.080 183.059 174.748  1.00  0.00    -0.459 OA
BRANCH   8   9
ATOM      9  C   UNL     1     183.130 182.475 175.394  1.00  0.00     0.338 C 
ATOM     10  O   UNL     1     183.088 181.433 176.029  1.00  0.00    -0.246 OA
BRANCH   9  11
ATOM     11  C   UNL     1     184.368 183.279 175.231  1.00  0.00     0.067 A 
ATOM     12  C   UNL     1     184.382 184.622 175.604  1.00  0.00     0.066 A 
ATOM     13  C   UNL     1     185.519 182.689 174.707  1.00  0.00     0.066 A 
ATOM     14  C   UNL     1     185.545 185.377 175.454  1.00  0.00     0.162 A 
ATOM     15  C   UNL     1     186.682 183.442 174.556  1.00  0.00     0.162 A 
ATOM     16  C   UNL     1     186.695 184.786 174.930  1.00  0.00     0.200 A 
BRANCH  14  17
ATOM     17  O   UNL     1     185.547 186.688 175.823  1.00  0.00    -0.504 OA
ATOM     18  H   UNL     1     186.431 186.924 176.156  1.00  0.00     0.293 HD
ENDBRANCH  14  17
BRANCH  15  19
ATOM     19  O   UNL     1     187.798 182.854 174.043  1.00  0.00    -0.504 OA
ATOM     20  H   UNL     1     187.686 182.744 173.083  1.00  0.00     0.293 HD
ENDBRANCH  15  19
BRANCH  16  21
ATOM     21  O   UNL     1     187.833 185.524 174.781  1.00  0.00    -0.502 OA
ATOM     22  H   UNL     1     188.372 185.118 174.081  1.00  0.00     0.293 HD
ENDBRANCH  16  21
ENDBRANCH   9  11
ENDBRANCH   8   9
ENDBRANCH   7   8
ENDBRANCH   5   7
BRANCH   6  23
ATOM     23  O   UNL     1     182.787 185.881 169.681  1.00  0.00    -0.428 OA
BRANCH  23  24
ATOM     24  C   UNL     1     183.879 185.085 169.537  1.00  0.00     0.340 C 
ATOM     25  O   UNL     1     183.904 183.986 169.008  1.00  0.00    -0.246 OA
BRANCH  24  26
ATOM     26  C   UNL     1     185.078 185.735 170.125  1.00  0.00     0.067 A 
ATOM     27  C   UNL     1     185.229 187.120 170.048  1.00  0.00     0.066 A 
ATOM     28  C   UNL     1     186.052 184.961 170.755  1.00  0.00     0.066 A 
ATOM     29  C   UNL     1     186.355 187.730 170.603  1.00  0.00     0.162 A 
ATOM     30  C   UNL     1     187.177 185.571 171.309  1.00  0.00     0.162 A 
ATOM     31  C   UNL     1     187.328 186.956 171.233  1.00  0.00     0.200 A 
BRANCH  29  32
ATOM     32  O   UNL     1     186.490 189.083 170.522  1.00  0.00    -0.504 OA
ATOM     33  H   UNL     1     187.416 189.321 170.703  1.00  0.00     0.293 HD
ENDBRANCH  29  32
BRANCH  30  34
ATOM     34  O   UNL     1     188.121 184.803 171.921  1.00  0.00    -0.504 OA
ATOM     35  H   UNL     1     187.801 184.550 172.804  1.00  0.00     0.293 HD
ENDBRANCH  30  34
BRANCH  31  36
ATOM     36  O   UNL     1     188.429 187.552 171.773  1.00  0.00    -0.502 OA
ATOM     37  H   UNL     1     188.851 188.097 171.086  1.00  0.00     0.293 HD
ENDBRANCH  31  36
ENDBRANCH  24  26
ENDBRANCH  23  24
ENDBRANCH   6  23
BRANCH   3  38
ATOM     38  O   UNL     1     179.563 184.403 173.909  1.00  0.00    -0.387 OA
ATOM     39  H   UNL     1     179.892 185.150 174.436  1.00  0.00     0.211 HD
ENDBRANCH   3  38
BRANCH   4  40
ATOM     40  O   UNL     1     180.447 187.369 170.245  1.00  0.00    -0.449 OA
BRANCH  40  41
ATOM     41  C   UNL     1     179.670 187.538 169.142  1.00  0.00     0.339 C 
ATOM     42  O   UNL     1     179.832 187.000 168.057  1.00  0.00    -0.246 OA
BRANCH  41  43
ATOM     43  C   UNL     1     178.563 188.487 169.424  1.00  0.00     0.067 A 
ATOM     44  C   UNL     1     177.432 188.501 168.609  1.00  0.00     0.066 A 
ATOM     45  C   UNL     1     178.653 189.361 170.507  1.00  0.00     0.066 A 
ATOM     46  C   UNL     1     176.390 189.389 168.876  1.00  0.00     0.162 A 
ATOM     47  C   UNL     1     177.613 190.250 170.774  1.00  0.00     0.162 A 
ATOM     48  C   UNL     1     176.481 190.264 169.959  1.00  0.00     0.200 A 
BRANCH  46  49
ATOM     49  O   UNL     1     175.290 189.394 168.072  1.00  0.00    -0.504 OA
ATOM     50  H   UNL     1     174.521 189.691 168.588  1.00  0.00     0.293 HD
ENDBRANCH  46  49
BRANCH  47  51
ATOM     51  O   UNL     1     177.713 191.099 171.835  1.00  0.00    -0.504 OA
ATOM     52  H   UNL     1     177.166 190.761 172.565  1.00  0.00     0.293 HD
ENDBRANCH  47  51
BRANCH  48  53
ATOM     53  O   UNL     1     175.464 191.135 170.219  1.00  0.00    -0.502 OA
ATOM     54  H   UNL     1     174.625 190.640 170.206  1.00  0.00     0.293 HD
ENDBRANCH  48  53
ENDBRANCH  41  43
ENDBRANCH  40  41
ENDBRANCH   4  40
BRANCH   2  55
ATOM     55  O   UNL     1     178.412 185.742 171.619  1.00  0.00    -0.386 OA
ATOM     56  H   UNL     1     177.900 185.749 172.446  1.00  0.00     0.211 HD
ENDBRANCH   2  55
TORSDOF 21
ENDMDL
MODEL 4
REMARK VINA RESULT:      -8.0      1.905      4.228
REMARK SMILES O=C(OC[C@H]1O[C@@H](OC(=O)c2cc(O)c(O)c(O)c2)[C@H](OC(=O)c2cc(O)c(O)c(O)c2)[C@@H](O)[C@@H]1O)c1cc(O)c(O)c(O)c1
REMARK SMILES IDX 6 1 33 2 35 3 20 4 5 5 7 6 4 7 3 8 2 9 1 10 37 11 45 12
REMARK SMILES IDX 38 13 43 14 39 15 41 16 44 17 40 19 42 21 8 23 9 24 10 25
REMARK SMILES IDX 11 26 19 27 12 28 17 29 13 30 15 31 18 32 14 34 16 36 36 38
REMARK SMILES IDX 21 40 22 41 23 42 24 43 32 44 25 45 30 46 26 47 28 48 31 49
REMARK SMILES IDX 27 51 29 53 34 55
REMARK H PARENT 44 18 40 20 42 22 18 33 14 35 16 37 36 39 31 50 27 52 29 54
REMARK H PARENT 34 56
REMARK Flexibility Score: inf
ROOT
ATOM      1  O   UNL     1     181.829 181.082 173.038  1.00  0.00    -0.330 OA
ATOM      2  C   UNL     1     179.994 181.851 170.968  1.00  0.00     0.193 C 
ATOM      3  C   UNL     1     180.504 182.836 172.019  1.00  0.00     0.179 C 
ATOM      4  C   UNL     1     180.113 180.408 171.458  1.00  0.00     0.277 C 
ATOM      5  C   UNL     1     181.883 182.416 172.533  1.00  0.00     0.192 C 
ATOM      6  C   UNL     1     181.502 180.128 172.031  1.00  0.00     0.355 C 
ENDROOT
BRANCH   5   7
ATOM      7  C   UNL     1     182.362 183.318 173.666  1.00  0.00     0.268 C 
BRANCH   7   8
ATOM      8  O   UNL     1     182.686 184.586 173.127  1.00  0.00    -0.459 OA
BRANCH   8   9
ATOM      9  C   UNL     1     183.905 184.693 172.524  1.00  0.00     0.338 C 
ATOM     10  O   UNL     1     184.100 184.807 171.323  1.00  0.00    -0.246 OA
BRANCH   9  11
ATOM     11  C   UNL     1     184.999 184.651 173.526  1.00  0.00     0.067 A 
ATOM     12  C   UNL     1     184.996 185.539 174.601  1.00  0.00     0.066 A 
ATOM     13  C   UNL     1     186.030 183.719 173.395  1.00  0.00     0.066 A 
ATOM     14  C   UNL     1     186.022 185.498 175.544  1.00  0.00     0.162 A 
ATOM     15  C   UNL     1     187.056 183.678 174.338  1.00  0.00     0.162 A 
ATOM     16  C   UNL     1     187.052 184.567 175.412  1.00  0.00     0.200 A 
BRANCH  14  17
ATOM     17  O   UNL     1     186.007 186.372 176.590  1.00  0.00    -0.504 OA
ATOM     18  H   UNL     1     186.269 185.901 177.400  1.00  0.00     0.293 HD
ENDBRANCH  14  17
BRANCH  15  19
ATOM     19  O   UNL     1     188.057 182.764 174.198  1.00  0.00    -0.504 OA
ATOM     20  H   UNL     1     187.896 182.021 174.805  1.00  0.00     0.293 HD
ENDBRANCH  15  19
BRANCH  16  21
ATOM     21  O   UNL     1     188.058 184.528 176.334  1.00  0.00    -0.502 OA
ATOM     22  H   UNL     1     187.889 185.215 177.001  1.00  0.00     0.293 HD
ENDBRANCH  16  21
ENDBRANCH   9  11
ENDBRANCH   8   9
ENDBRANCH   7   8
ENDBRANCH   5   7
BRANCH   6  23
ATOM     23  O   UNL     1     181.491 178.816 172.593  1.00  0.00    -0.428 OA
BRANCH  23  24
ATOM     24  C   UNL     1     182.466 177.975 172.158  1.00  0.00     0.340 C 
ATOM     25  O   UNL     1     183.607 178.290 171.858  1.00  0.00    -0.246 OA
BRANCH  24  26
ATOM     26  C   UNL     1     181.959 176.582 172.085  1.00  0.00     0.067 A 
ATOM     27  C   UNL     1     182.555 175.667 171.215  1.00  0.00     0.066 A 
ATOM     28  C   UNL     1     180.889 176.185 172.887  1.00  0.00     0.066 A 
ATOM     29  C   UNL     1     182.080 174.357 171.149  1.00  0.00     0.162 A 
ATOM     30  C   UNL     1     180.415 174.876 172.820  1.00  0.00     0.162 A 
ATOM     31  C   UNL     1     181.011 173.962 171.951  1.00  0.00     0.200 A 
BRANCH  29  32
ATOM     32  O   UNL     1     182.670 173.474 170.296  1.00  0.00    -0.504 OA
ATOM     33  H   UNL     1     183.196 173.966 169.642  1.00  0.00     0.293 HD
ENDBRANCH  29  32
BRANCH  30  34
ATOM     34  O   UNL     1     179.370 174.502 173.610  1.00  0.00    -0.504 OA
ATOM     35  H   UNL     1     178.888 175.297 173.896  1.00  0.00     0.293 HD
ENDBRANCH  30  34
BRANCH  31  36
ATOM     36  O   UNL     1     180.545 172.682 171.885  1.00  0.00    -0.502 OA
ATOM     37  H   UNL     1     180.318 172.485 170.960  1.00  0.00     0.293 HD
ENDBRANCH  31  36
ENDBRANCH  24  26
ENDBRANCH  23  24
ENDBRANCH   6  23
BRANCH   3  38
ATOM     38  O   UNL     1     180.592 184.137 171.442  1.00  0.00    -0.387 OA
ATOM     39  H   UNL     1     180.233 184.774 172.083  1.00  0.00     0.211 HD
ENDBRANCH   3  38
BRANCH   4  40
ATOM     40  O   UNL     1     179.891 179.516 170.366  1.00  0.00    -0.449 OA
BRANCH  40  41
ATOM     41  C   UNL     1     178.650 178.966 170.292  1.00  0.00     0.339 C 
ATOM     42  O   UNL     1     177.591 179.554 170.450  1.00  0.00    -0.246 OA
BRANCH  41  43
ATOM     43  C   UNL     1     178.739 177.517 169.983  1.00  0.00     0.067 A 
ATOM     44  C   UNL     1     177.869 176.618 170.600  1.00  0.00     0.066 A 
ATOM     45  C   UNL     1     179.690 177.055 169.074  1.00  0.00     0.066 A 
ATOM     46  C   UNL     1     177.950 175.256 170.307  1.00  0.00     0.162 A 
ATOM     47  C   UNL     1     179.772 175.694 168.782  1.00  0.00     0.162 A 
ATOM     48  C   UNL     1     178.902 174.795 169.398  1.00  0.00     0.200 A 
BRANCH  46  49
ATOM     49  O   UNL     1     177.095 174.388 170.916  1.00  0.00    -0.504 OA
ATOM     50  H   UNL     1     176.211 174.482 170.521  1.00  0.00     0.293 HD
ENDBRANCH  46  49
BRANCH  47  51
ATOM     51  O   UNL     1     180.706 175.255 167.891  1.00  0.00    -0.504 OA
ATOM     52  H   UNL     1     180.403 175.456 166.989  1.00  0.00     0.293 HD
ENDBRANCH  47  51
BRANCH  48  53
ATOM     53  O   UNL     1     178.984 173.463 169.114  1.00  0.00    -0.502 OA
ATOM     54  H   UNL     1     179.549 173.351 168.328  1.00  0.00     0.293 HD
ENDBRANCH  48  53
ENDBRANCH  41  43
ENDBRANCH  40  41
ENDBRANCH   4  40
BRANCH   2  55
ATOM     55  O   UNL     1     178.622 182.152 170.708  1.00  0.00    -0.386 OA
ATOM     56  H   UNL     1     178.559 183.090 170.461  1.00  0.00     0.211 HD
ENDBRANCH   2  55
TORSDOF 21
ENDMDL
MODEL 5
REMARK VINA RESULT:      -8.0      4.867      8.827
REMARK SMILES O=C(OC[C@H]1O[C@@H](OC(=O)c2cc(O)c(O)c(O)c2)[C@H](OC(=O)c2cc(O)c(O)c(O)c2)[C@@H](O)[C@@H]1O)c1cc(O)c(O)c(O)c1
REMARK SMILES IDX 6 1 33 2 35 3 20 4 5 5 7 6 4 7 3 8 2 9 1 10 37 11 45 12
REMARK SMILES IDX 38 13 43 14 39 15 41 16 44 17 40 19 42 21 8 23 9 24 10 25
REMARK SMILES IDX 11 26 19 27 12 28 17 29 13 30 15 31 18 32 14 34 16 36 36 38
REMARK SMILES IDX 21 40 22 41 23 42 24 43 32 44 25 45 30 46 26 47 28 48 31 49
REMARK SMILES IDX 27 51 29 53 34 55
REMARK H PARENT 44 18 40 20 42 22 18 33 14 35 16 37 36 39 31 50 27 52 29 54
REMARK H PARENT 34 56
REMARK Flexibility Score: inf
ROOT
ATOM      1  O   UNL     1     182.298 184.321 171.498  1.00  0.00    -0.330 OA
ATOM      2  C   UNL     1     179.839 185.753 171.889  1.00  0.00     0.193 C 
ATOM      3  C   UNL     1     180.150 184.444 172.615  1.00  0.00     0.179 C 
ATOM      4  C   UNL     1     180.668 185.888 170.612  1.00  0.00     0.277 C 
ATOM      5  C   UNL     1     181.661 184.258 172.774  1.00  0.00     0.192 C 
ATOM      6  C   UNL     1     182.145 185.593 170.873  1.00  0.00     0.355 C 
ENDROOT
BRANCH   5   7
ATOM      7  C   UNL     1     182.000 182.904 173.390  1.00  0.00     0.268 C 
BRANCH   7   8
ATOM      8  O   UNL     1     182.080 183.056 174.796  1.00  0.00    -0.459 OA
BRANCH   8   9
ATOM      9  C   UNL     1     183.147 182.466 175.407  1.00  0.00     0.338 C 
ATOM     10  O   UNL     1     183.123 181.413 176.025  1.00  0.00    -0.246 OA
BRANCH   9  11
ATOM     11  C   UNL     1     184.377 183.278 175.231  1.00  0.00     0.067 A 
ATOM     12  C   UNL     1     184.389 184.619 175.613  1.00  0.00     0.066 A 
ATOM     13  C   UNL     1     185.524 182.699 174.686  1.00  0.00     0.066 A 
ATOM     14  C   UNL     1     185.545 185.382 175.450  1.00  0.00     0.162 A 
ATOM     15  C   UNL     1     186.680 183.461 174.524  1.00  0.00     0.162 A 
ATOM     16  C   UNL     1     186.690 184.802 174.906  1.00  0.00     0.200 A 
BRANCH  14  17
ATOM     17  O   UNL     1     185.544 186.691 175.828  1.00  0.00    -0.504 OA
ATOM     18  H   UNL     1     185.939 187.227 175.119  1.00  0.00     0.293 HD
ENDBRANCH  14  17
BRANCH  15  19
ATOM     19  O   UNL     1     187.792 182.883 173.990  1.00  0.00    -0.504 OA
ATOM     20  H   UNL     1     188.502 183.546 173.942  1.00  0.00     0.293 HD
ENDBRANCH  15  19
BRANCH  16  21
ATOM     21  O   UNL     1     187.821 185.548 174.744  1.00  0.00    -0.502 OA
ATOM     22  H   UNL     1     188.410 185.082 174.126  1.00  0.00     0.293 HD
ENDBRANCH  16  21
ENDBRANCH   9  11
ENDBRANCH   8   9
ENDBRANCH   7   8
ENDBRANCH   5   7
BRANCH   6  23
ATOM     23  O   UNL     1     182.823 185.599 169.617  1.00  0.00    -0.428 OA
BRANCH  23  24
ATOM     24  C   UNL     1     183.961 184.858 169.554  1.00  0.00     0.340 C 
ATOM     25  O   UNL     1     184.064 183.734 169.090  1.00  0.00    -0.246 OA
BRANCH  24  26
ATOM     26  C   UNL     1     185.102 185.604 170.142  1.00  0.00     0.067 A 
ATOM     27  C   UNL     1     185.123 186.999 170.093  1.00  0.00     0.066 A 
ATOM     28  C   UNL     1     186.152 184.912 170.745  1.00  0.00     0.066 A 
ATOM     29  C   UNL     1     186.195 187.699 170.647  1.00  0.00     0.162 A 
ATOM     30  C   UNL     1     187.223 185.613 171.299  1.00  0.00     0.162 A 
ATOM     31  C   UNL     1     187.244 187.006 171.250  1.00  0.00     0.200 A 
BRANCH  29  32
ATOM     32  O   UNL     1     186.203 189.060 170.594  1.00  0.00    -0.504 OA
ATOM     33  H   UNL     1     185.777 189.413 171.394  1.00  0.00     0.293 HD
ENDBRANCH  29  32
BRANCH  30  34
ATOM     34  O   UNL     1     188.241 184.924 171.885  1.00  0.00    -0.504 OA
ATOM     35  H   UNL     1     188.228 184.005 171.567  1.00  0.00     0.293 HD
ENDBRANCH  30  34
BRANCH  31  36
ATOM     36  O   UNL     1     188.292 187.691 171.790  1.00  0.00    -0.502 OA
ATOM     37  H   UNL     1     189.003 187.058 171.989  1.00  0.00     0.293 HD
ENDBRANCH  31  36
ENDBRANCH  24  26
ENDBRANCH  23  24
ENDBRANCH   6  23
BRANCH   3  38
ATOM     38  O   UNL     1     179.538 184.462 173.902  1.00  0.00    -0.387 OA
ATOM     39  H   UNL     1     180.093 185.001 174.490  1.00  0.00     0.211 HD
ENDBRANCH   3  38
BRANCH   4  40
ATOM     40  O   UNL     1     180.559 187.222 170.115  1.00  0.00    -0.449 OA
BRANCH  40  41
ATOM     41  C   UNL     1     179.767 187.384 169.021  1.00  0.00     0.339 C 
ATOM     42  O   UNL     1     178.563 187.190 168.968  1.00  0.00    -0.246 OA
BRANCH  41  43
ATOM     43  C   UNL     1     180.570 187.844 167.860  1.00  0.00     0.067 A 
ATOM     44  C   UNL     1     181.829 188.408 168.062  1.00  0.00     0.066 A 
ATOM     45  C   UNL     1     180.068 187.707 166.566  1.00  0.00     0.066 A 
ATOM     46  C   UNL     1     182.586 188.837 166.972  1.00  0.00     0.162 A 
ATOM     47  C   UNL     1     180.823 188.136 165.475  1.00  0.00     0.162 A 
ATOM     48  C   UNL     1     182.082 188.700 165.678  1.00  0.00     0.200 A 
BRANCH  46  49
ATOM     49  O   UNL     1     183.814 189.387 167.182  1.00  0.00    -0.504 OA
ATOM     50  H   UNL     1     183.727 190.356 167.212  1.00  0.00     0.293 HD
ENDBRANCH  46  49
BRANCH  47  51
ATOM     51  O   UNL     1     180.320 187.995 164.217  1.00  0.00    -0.504 OA
ATOM     52  H   UNL     1     180.409 187.067 163.940  1.00  0.00     0.293 HD
ENDBRANCH  47  51
BRANCH  48  53
ATOM     53  O   UNL     1     182.820 189.121 164.610  1.00  0.00    -0.502 OA
ATOM     54  H   UNL     1     182.720 188.471 163.893  1.00  0.00     0.293 HD
ENDBRANCH  48  53
ENDBRANCH  41  43
ENDBRANCH  40  41
ENDBRANCH   4  40
BRANCH   2  55
ATOM     55  O   UNL     1     178.450 185.755 171.556  1.00  0.00    -0.386 OA
ATOM     56  H   UNL     1     178.133 186.673 171.583  1.00  0.00     0.211 HD
ENDBRANCH   2  55
TORSDOF 21
ENDMDL
MODEL 6
REMARK VINA RESULT:      -8.0      2.258      9.692
REMARK SMILES O=C(OC[C@H]1O[C@@H](OC(=O)c2cc(O)c(O)c(O)c2)[C@H](OC(=O)c2cc(O)c(O)c(O)c2)[C@@H](O)[C@@H]1O)c1cc(O)c(O)c(O)c1
REMARK SMILES IDX 6 1 33 2 35 3 20 4 5 5 7 6 4 7 3 8 2 9 1 10 37 11 45 12
REMARK SMILES IDX 38 13 43 14 39 15 41 16 44 17 40 19 42 21 8 23 9 24 10 25
REMARK SMILES IDX 11 26 19 27 12 28 17 29 13 30 15 31 18 32 14 34 16 36 36 38
REMARK SMILES IDX 21 40 22 41 23 42 24 43 32 44 25 45 30 46 26 47 28 48 31 49
REMARK SMILES IDX 27 51 29 53 34 55
REMARK H PARENT 44 18 40 20 42 22 18 33 14 35 16 37 36 39 31 50 27 52 29 54
REMARK H PARENT 34 56
REMARK Flexibility Score: inf
ROOT
ATOM      1  O   UNL     1     181.209 180.954 172.830  1.00  0.00    -0.330 OA
ATOM      2  C   UNL     1     181.473 182.499 170.423  1.00  0.00     0.193 C 
ATOM      3  C   UNL     1     180.394 181.430 170.598  1.00  0.00     0.179 C 
ATOM      4  C   UNL     1     182.647 182.260 171.372  1.00  0.00     0.277 C 
ATOM      5  C   UNL     1     180.036 181.257 172.075  1.00  0.00     0.192 C 
ATOM      6  C   UNL     1     182.166 182.010 172.801  1.00  0.00     0.355 C 
ENDROOT
BRANCH   5   7
ATOM      7  C   UNL     1     179.046 180.115 172.286  1.00  0.00     0.268 C 
BRANCH   7   8
ATOM      8  O   UNL     1     179.315 179.104 171.332  1.00  0.00    -0.459 OA
BRANCH   8   9
ATOM      9  C   UNL     1     179.588 177.863 171.829  1.00  0.00     0.338 C 
ATOM     10  O   UNL     1     178.852 177.202 172.546  1.00  0.00    -0.246 OA
BRANCH   9  11
ATOM     11  C   UNL     1     180.925 177.394 171.384  1.00  0.00     0.067 A 
ATOM     12  C   UNL     1     182.073 178.077 171.785  1.00  0.00     0.066 A 
ATOM     13  C   UNL     1     181.033 176.268 170.567  1.00  0.00     0.066 A 
ATOM     14  C   UNL     1     183.329 177.635 171.370  1.00  0.00     0.162 A 
ATOM     15  C   UNL     1     182.289 175.826 170.152  1.00  0.00     0.162 A 
ATOM     16  C   UNL     1     183.436 176.510 170.554  1.00  0.00     0.200 A 
BRANCH  14  17
ATOM     17  O   UNL     1     184.443 178.310 171.770  1.00  0.00    -0.504 OA
ATOM     18  H   UNL     1     184.384 178.483 172.726  1.00  0.00     0.293 HD
ENDBRANCH  14  17
BRANCH  15  19
ATOM     19  O   UNL     1     182.381 174.726 169.354  1.00  0.00    -0.504 OA
ATOM     20  H   UNL     1     183.307 174.607 169.082  1.00  0.00     0.293 HD
ENDBRANCH  15  19
BRANCH  16  21
ATOM     21  O   UNL     1     184.665 176.078 170.146  1.00  0.00    -0.502 OA
ATOM     22  H   UNL     1     184.695 175.110 170.237  1.00  0.00     0.293 HD
ENDBRANCH  16  21
ENDBRANCH   9  11
ENDBRANCH   8   9
ENDBRANCH   7   8
ENDBRANCH   5   7
BRANCH   6  23
ATOM     23  O   UNL     1     183.300 181.657 173.593  1.00  0.00    -0.428 OA
BRANCH  23  24
ATOM     24  C   UNL     1     183.438 182.330 174.765  1.00  0.00     0.340 C 
ATOM     25  O   UNL     1     182.700 182.248 175.735  1.00  0.00    -0.246 OA
BRANCH  24  26
ATOM     26  C   UNL     1     184.632 183.211 174.724  1.00  0.00     0.067 A 
ATOM     27  C   UNL     1     185.883 182.675 174.412  1.00  0.00     0.066 A 
ATOM     28  C   UNL     1     184.505 184.573 174.993  1.00  0.00     0.066 A 
ATOM     29  C   UNL     1     187.005 183.504 174.371  1.00  0.00     0.162 A 
ATOM     30  C   UNL     1     185.627 185.400 174.951  1.00  0.00     0.162 A 
ATOM     31  C   UNL     1     186.876 184.866 174.640  1.00  0.00     0.200 A 
BRANCH  29  32
ATOM     32  O   UNL     1     188.220 182.969 174.065  1.00  0.00    -0.504 OA
ATOM     33  H   UNL     1     188.114 182.018 173.890  1.00  0.00     0.293 HD
ENDBRANCH  29  32
BRANCH  30  34
ATOM     34  O   UNL     1     185.487 186.729 175.216  1.00  0.00    -0.504 OA
ATOM     35  H   UNL     1     186.316 187.066 175.600  1.00  0.00     0.293 HD
ENDBRANCH  30  34
BRANCH  31  36
ATOM     36  O   UNL     1     187.973 185.675 174.601  1.00  0.00    -0.502 OA
ATOM     37  H   UNL     1     187.764 186.450 174.053  1.00  0.00     0.293 HD
ENDBRANCH  31  36
ENDBRANCH  24  26
ENDBRANCH  23  24
ENDBRANCH   6  23
BRANCH   3  38
ATOM     38  O   UNL     1     179.229 181.814 169.871  1.00  0.00    -0.387 OA
ATOM     39  H   UNL     1     179.476 181.906 168.936  1.00  0.00     0.211 HD
ENDBRANCH   3  38
BRANCH   4  40
ATOM     40  O   UNL     1     183.493 183.409 171.379  1.00  0.00    -0.449 OA
BRANCH  40  41
ATOM     41  C   UNL     1     184.614 183.325 170.614  1.00  0.00     0.339 C 
ATOM     42  O   UNL     1     184.864 182.454 169.795  1.00  0.00    -0.246 OA
BRANCH  41  43
ATOM     43  C   UNL     1     185.529 184.458 170.903  1.00  0.00     0.067 A 
ATOM     44  C   UNL     1     186.898 184.326 170.674  1.00  0.00     0.066 A 
ATOM     45  C   UNL     1     185.018 185.657 171.400  1.00  0.00     0.066 A 
ATOM     46  C   UNL     1     187.757 185.392 170.942  1.00  0.00     0.162 A 
ATOM     47  C   UNL     1     185.876 186.723 171.669  1.00  0.00     0.162 A 
ATOM     48  C   UNL     1     187.245 186.590 171.440  1.00  0.00     0.200 A 
BRANCH  46  49
ATOM     49  O   UNL     1     189.093 185.250 170.715  1.00  0.00    -0.504 OA
ATOM     50  H   UNL     1     189.223 184.740 169.897  1.00  0.00     0.293 HD
ENDBRANCH  46  49
BRANCH  47  51
ATOM     51  O   UNL     1     185.364 187.889 172.153  1.00  0.00    -0.504 OA
ATOM     52  H   UNL     1     186.086 188.424 172.524  1.00  0.00     0.293 HD
ENDBRANCH  47  51
BRANCH  48  53
ATOM     53  O   UNL     1     188.085 187.632 171.705  1.00  0.00    -0.502 OA
ATOM     54  H   UNL     1     188.788 187.316 172.299  1.00  0.00     0.293 HD
ENDBRANCH  48  53
ENDBRANCH  41  43
ENDBRANCH  40  41
ENDBRANCH   4  40
BRANCH   2  55
ATOM     55  O   UNL     1     181.935 182.444 169.073  1.00  0.00    -0.386 OA
ATOM     56  H   UNL     1     181.909 183.344 168.707  1.00  0.00     0.211 HD
ENDBRANCH   2  55
TORSDOF 21
ENDMDL
MODEL 7
REMARK VINA RESULT:      -8.0      4.843      9.058
REMARK SMILES O=C(OC[C@H]1O[C@@H](OC(=O)c2cc(O)c(O)c(O)c2)[C@H](OC(=O)c2cc(O)c(O)c(O)c2)[C@@H](O)[C@@H]1O)c1cc(O)c(O)c(O)c1
REMARK SMILES IDX 6 1 33 2 35 3 20 4 5 5 7 6 4 7 3 8 2 9 1 10 37 11 45 12
REMARK SMILES IDX 38 13 43 14 39 15 41 16 44 17 40 19 42 21 8 23 9 24 10 25
REMARK SMILES IDX 11 26 19 27 12 28 17 29 13 30 15 31 18 32 14 34 16 36 36 38
REMARK SMILES IDX 21 40 22 41 23 42 24 43 32 44 25 45 30 46 26 47 28 48 31 49
REMARK SMILES IDX 27 51 29 53 34 55
REMARK H PARENT 44 18 40 20 42 22 18 33 14 35 16 37 36 39 31 50 27 52 29 54
REMARK H PARENT 34 56
REMARK Flexibility Score: inf
ROOT
ATOM      1  O   UNL     1     182.788 184.001 172.460  1.00  0.00    -0.330 OA
ATOM      2  C   UNL     1     180.706 185.891 171.878  1.00  0.00     0.193 C 
ATOM      3  C   UNL     1     180.436 184.571 172.600  1.00  0.00     0.179 C 
ATOM      4  C   UNL     1     181.997 185.822 171.063  1.00  0.00     0.277 C 
ATOM      5  C   UNL     1     181.681 184.102 173.356  1.00  0.00     0.192 C 
ATOM      6  C   UNL     1     183.149 185.257 171.892  1.00  0.00     0.355 C 
ENDROOT
BRANCH   5   7
ATOM      7  C   UNL     1     181.474 182.729 173.989  1.00  0.00     0.268 C 
BRANCH   7   8
ATOM      8  O   UNL     1     182.729 182.081 174.079  1.00  0.00    -0.459 OA
BRANCH   8   9
ATOM      9  C   UNL     1     183.391 182.209 175.265  1.00  0.00     0.338 C 
ATOM     10  O   UNL     1     183.075 181.681 176.320  1.00  0.00    -0.246 OA
BRANCH   9  11
ATOM     11  C   UNL     1     184.575 183.093 175.120  1.00  0.00     0.067 A 
ATOM     12  C   UNL     1     185.742 182.605 174.533  1.00  0.00     0.066 A 
ATOM     13  C   UNL     1     184.520 184.413 175.568  1.00  0.00     0.066 A 
ATOM     14  C   UNL     1     186.854 183.435 174.394  1.00  0.00     0.162 A 
ATOM     15  C   UNL     1     185.631 185.243 175.429  1.00  0.00     0.162 A 
ATOM     16  C   UNL     1     186.798 184.755 174.842  1.00  0.00     0.200 A 
BRANCH  14  17
ATOM     17  O   UNL     1     187.988 182.947 173.818  1.00  0.00    -0.504 OA
ATOM     18  H   UNL     1     187.824 182.798 172.870  1.00  0.00     0.293 HD
ENDBRANCH  14  17
BRANCH  15  19
ATOM     19  O   UNL     1     185.564 186.530 175.872  1.00  0.00    -0.504 OA
ATOM     20  H   UNL     1     184.677 186.883 175.688  1.00  0.00     0.293 HD
ENDBRANCH  15  19
BRANCH  16  21
ATOM     21  O   UNL     1     187.886 185.567 174.708  1.00  0.00    -0.502 OA
ATOM     22  H   UNL     1     188.053 185.999 175.563  1.00  0.00     0.293 HD
ENDBRANCH  16  21
ENDBRANCH   9  11
ENDBRANCH   8   9
ENDBRANCH   7   8
ENDBRANCH   5   7
BRANCH   6  23
ATOM     23  O   UNL     1     184.274 185.092 171.029  1.00  0.00    -0.428 OA
BRANCH  23  24
ATOM     24  C   UNL     1     185.427 185.685 171.436  1.00  0.00     0.340 C 
ATOM     25  O   UNL     1     185.529 186.544 172.298  1.00  0.00    -0.246 OA
BRANCH  24  26
ATOM     26  C   UNL     1     186.585 185.148 170.679  1.00  0.00     0.067 A 
ATOM     27  C   UNL     1     187.826 185.782 170.760  1.00  0.00     0.066 A 
ATOM     28  C   UNL     1     186.435 184.008 169.890  1.00  0.00     0.066 A 
ATOM     29  C   UNL     1     188.915 185.275 170.050  1.00  0.00     0.162 A 
ATOM     30  C   UNL     1     187.524 183.502 169.181  1.00  0.00     0.162 A 
ATOM     31  C   UNL     1     188.764 184.135 169.262  1.00  0.00     0.200 A 
BRANCH  29  32
ATOM     32  O   UNL     1     190.121 185.903 170.138  1.00  0.00    -0.504 OA
ATOM     33  H   UNL     1     189.975 186.854 170.281  1.00  0.00     0.293 HD
ENDBRANCH  29  32
BRANCH  30  34
ATOM     34  O   UNL     1     187.363 182.387 168.414  1.00  0.00    -0.504 OA
ATOM     35  H   UNL     1     187.423 181.600 168.981  1.00  0.00     0.293 HD
ENDBRANCH  30  34
BRANCH  31  36
ATOM     36  O   UNL     1     189.828 183.641 168.567  1.00  0.00    -0.502 OA
ATOM     37  H   UNL     1     190.639 184.055 168.911  1.00  0.00     0.293 HD
ENDBRANCH  31  36
ENDBRANCH  24  26
ENDBRANCH  23  24
ENDBRANCH   6  23
BRANCH   3  38
ATOM     38  O   UNL     1     179.363 184.748 173.521  1.00  0.00    -0.387 OA
ATOM     39  H   UNL     1     178.576 184.314 173.151  1.00  0.00     0.211 HD
ENDBRANCH   3  38
BRANCH   4  40
ATOM     40  O   UNL     1     182.357 187.135 170.633  1.00  0.00    -0.449 OA
BRANCH  40  41
ATOM     41  C   UNL     1     182.420 187.322 169.287  1.00  0.00     0.339 C 
ATOM     42  O   UNL     1     181.472 187.359 168.519  1.00  0.00    -0.246 OA
BRANCH  41  43
ATOM     43  C   UNL     1     183.830 187.482 168.850  1.00  0.00     0.067 A 
ATOM     44  C   UNL     1     184.627 188.476 169.416  1.00  0.00     0.066 A 
ATOM     45  C   UNL     1     184.358 186.636 167.875  1.00  0.00     0.066 A 
ATOM     46  C   UNL     1     185.953 188.625 169.008  1.00  0.00     0.162 A 
ATOM     47  C   UNL     1     185.683 186.784 167.466  1.00  0.00     0.162 A 
ATOM     48  C   UNL     1     186.480 187.778 168.033  1.00  0.00     0.200 A 
BRANCH  46  49
ATOM     49  O   UNL     1     186.722 189.600 169.568  1.00  0.00    -0.504 OA
ATOM     50  H   UNL     1     186.151 190.345 169.828  1.00  0.00     0.293 HD
ENDBRANCH  46  49
BRANCH  47  51
ATOM     51  O   UNL     1     186.187 185.950 166.513  1.00  0.00    -0.504 OA
ATOM     52  H   UNL     1     187.010 185.551 166.844  1.00  0.00     0.293 HD
ENDBRANCH  47  51
BRANCH  48  53
ATOM     53  O   UNL     1     187.776 187.924 167.631  1.00  0.00    -0.502 OA
ATOM     54  H   UNL     1     187.817 188.656 166.990  1.00  0.00     0.293 HD
ENDBRANCH  48  53
ENDBRANCH  41  43
ENDBRANCH  40  41
ENDBRANCH   4  40
BRANCH   2  55
ATOM     55  O   UNL     1     179.605 186.149 171.004  1.00  0.00    -0.386 OA
ATOM     56  H   UNL     1     179.614 185.479 170.300  1.00  0.00     0.211 HD
ENDBRANCH   2  55
TORSDOF 21
ENDMDL
MODEL 8
REMARK VINA RESULT:      -8.0      5.018     10.311
REMARK SMILES O=C(OC[C@H]1O[C@@H](OC(=O)c2cc(O)c(O)c(O)c2)[C@H](OC(=O)c2cc(O)c(O)c(O)c2)[C@@H](O)[C@@H]1O)c1cc(O)c(O)c(O)c1
REMARK SMILES IDX 6 1 33 2 35 3 20 4 5 5 7 6 4 7 3 8 2 9 1 10 37 11 45 12
REMARK SMILES IDX 38 13 43 14 39 15 41 16 44 17 40 19 42 21 8 23 9 24 10 25
REMARK SMILES IDX 11 26 19 27 12 28 17 29 13 30 15 31 18 32 14 34 16 36 36 38
REMARK SMILES IDX 21 40 22 41 23 42 24 43 32 44 25 45 30 46 26 47 28 48 31 49
REMARK SMILES IDX 27 51 29 53 34 55
REMARK H PARENT 44 18 40 20 42 22 18 33 14 35 16 37 36 39 31 50 27 52 29 54
REMARK H PARENT 34 56
REMARK Flexibility Score: inf
ROOT
ATOM      1  O   UNL     1     182.130 186.021 170.395  1.00  0.00    -0.330 OA
ATOM      2  C   UNL     1     180.447 184.573 172.217  1.00  0.00     0.193 C 
ATOM      3  C   UNL     1     179.934 185.749 171.386  1.00  0.00     0.179 C 
ATOM      4  C   UNL     1     181.966 184.631 172.379  1.00  0.00     0.277 C 
ATOM      5  C   UNL     1     180.740 185.891 170.093  1.00  0.00     0.192 C 
ATOM      6  C   UNL     1     182.660 184.864 171.037  1.00  0.00     0.355 C 
ENDROOT
BRANCH   5   7
ATOM      7  C   UNL     1     180.324 187.128 169.301  1.00  0.00     0.268 C 
BRANCH   7   8
ATOM      8  O   UNL     1     179.494 187.930 170.122  1.00  0.00    -0.459 OA
BRANCH   8   9
ATOM      9  C   UNL     1     179.120 189.135 169.606  1.00  0.00     0.338 C 
ATOM     10  O   UNL     1     179.822 190.132 169.537  1.00  0.00    -0.246 OA
BRANCH   9  11
ATOM     11  C   UNL     1     177.716 189.095 169.125  1.00  0.00     0.067 A 
ATOM     12  C   UNL     1     177.280 188.034 168.333  1.00  0.00     0.066 A 
ATOM     13  C   UNL     1     176.831 190.118 169.468  1.00  0.00     0.066 A 
ATOM     14  C   UNL     1     175.960 187.994 167.883  1.00  0.00     0.162 A 
ATOM     15  C   UNL     1     175.512 190.079 169.018  1.00  0.00     0.162 A 
ATOM     16  C   UNL     1     175.077 189.017 168.226  1.00  0.00     0.200 A 
BRANCH  14  17
ATOM     17  O   UNL     1     175.546 186.951 167.110  1.00  0.00    -0.504 OA
ATOM     18  H   UNL     1     175.462 187.251 166.189  1.00  0.00     0.293 HD
ENDBRANCH  14  17
BRANCH  15  19
ATOM     19  O   UNL     1     174.658 191.084 169.360  1.00  0.00    -0.504 OA
ATOM     20  H   UNL     1     173.842 190.699 169.722  1.00  0.00     0.293 HD
ENDBRANCH  15  19
BRANCH  16  21
ATOM     21  O   UNL     1     173.786 188.979 167.785  1.00  0.00    -0.502 OA
ATOM     22  H   UNL     1     173.795 188.828 166.824  1.00  0.00     0.293 HD
ENDBRANCH  16  21
ENDBRANCH   9  11
ENDBRANCH   8   9
ENDBRANCH   7   8
ENDBRANCH   5   7
BRANCH   6  23
ATOM     23  O   UNL     1     184.053 185.047 171.288  1.00  0.00    -0.428 OA
BRANCH  23  24
ATOM     24  C   UNL     1     184.878 184.100 170.769  1.00  0.00     0.340 C 
ATOM     25  O   UNL     1     184.550 182.984 170.397  1.00  0.00    -0.246 OA
BRANCH  24  26
ATOM     26  C   UNL     1     186.275 184.601 170.710  1.00  0.00     0.067 A 
ATOM     27  C   UNL     1     187.251 183.866 170.035  1.00  0.00     0.066 A 
ATOM     28  C   UNL     1     186.611 185.806 171.325  1.00  0.00     0.066 A 
ATOM     29  C   UNL     1     188.562 184.339 169.977  1.00  0.00     0.162 A 
ATOM     30  C   UNL     1     187.921 186.278 171.267  1.00  0.00     0.162 A 
ATOM     31  C   UNL     1     188.897 185.544 170.593  1.00  0.00     0.200 A 
BRANCH  29  32
ATOM     32  O   UNL     1     189.506 183.613 169.316  1.00  0.00    -0.504 OA
ATOM     33  H   UNL     1     190.256 183.445 169.913  1.00  0.00     0.293 HD
ENDBRANCH  29  32
BRANCH  30  34
ATOM     34  O   UNL     1     188.236 187.457 171.873  1.00  0.00    -0.504 OA
ATOM     35  H   UNL     1     188.321 187.309 172.830  1.00  0.00     0.293 HD
ENDBRANCH  30  34
BRANCH  31  36
ATOM     36  O   UNL     1     190.180 186.004 170.538  1.00  0.00    -0.502 OA
ATOM     37  H   UNL     1     190.300 186.663 171.244  1.00  0.00     0.293 HD
ENDBRANCH  31  36
ENDBRANCH  24  26
ENDBRANCH  23  24
ENDBRANCH   6  23
BRANCH   3  38
ATOM     38  O   UNL     1     178.562 185.537 171.066  1.00  0.00    -0.387 OA
ATOM     39  H   UNL     1     178.430 185.781 170.134  1.00  0.00     0.211 HD
ENDBRANCH   3  38
BRANCH   4  40
ATOM     40  O   UNL     1     182.433 183.393 172.914  1.00  0.00    -0.449 OA
BRANCH  40  41
ATOM     41  C   UNL     1     182.656 183.373 174.256  1.00  0.00     0.339 C 
ATOM     42  O   UNL     1     181.854 183.038 175.114  1.00  0.00    -0.246 OA
BRANCH  41  43
ATOM     43  C   UNL     1     184.038 183.821 174.561  1.00  0.00     0.067 A 
ATOM     44  C   UNL     1     184.246 184.960 175.338  1.00  0.00     0.066 A 
ATOM     45  C   UNL     1     185.128 183.100 174.074  1.00  0.00     0.066 A 
ATOM     46  C   UNL     1     185.545 185.379 175.628  1.00  0.00     0.162 A 
ATOM     47  C   UNL     1     186.427 183.519 174.363  1.00  0.00     0.162 A 
ATOM     48  C   UNL     1     186.635 184.658 175.140  1.00  0.00     0.200 A 
BRANCH  46  49
ATOM     49  O   UNL     1     185.735 186.494 176.387  1.00  0.00    -0.504 OA
ATOM     50  H   UNL     1     185.537 186.283 177.317  1.00  0.00     0.293 HD
ENDBRANCH  46  49
BRANCH  47  51
ATOM     51  O   UNL     1     187.483 182.805 173.882  1.00  0.00    -0.504 OA
ATOM     52  H   UNL     1     187.625 182.027 174.448  1.00  0.00     0.293 HD
ENDBRANCH  47  51
BRANCH  48  53
ATOM     53  O   UNL     1     187.905 185.069 175.421  1.00  0.00    -0.502 OA
ATOM     54  H   UNL     1     188.422 184.294 175.706  1.00  0.00     0.293 HD
ENDBRANCH  48  53
ENDBRANCH  41  43
ENDBRANCH  40  41
ENDBRANCH   4  40
BRANCH   2  55
ATOM     55  O   UNL     1     179.830 184.640 173.504  1.00  0.00    -0.386 OA
ATOM     56  H   UNL     1     178.936 185.006 173.393  1.00  0.00     0.211 HD
ENDBRANCH   2  55
TORSDOF 21
ENDMDL
MODEL 9
REMARK VINA RESULT:      -8.0      1.921      4.234
REMARK SMILES O=C(OC[C@H]1O[C@@H](OC(=O)c2cc(O)c(O)c(O)c2)[C@H](OC(=O)c2cc(O)c(O)c(O)c2)[C@@H](O)[C@@H]1O)c1cc(O)c(O)c(O)c1
REMARK SMILES IDX 6 1 33 2 35 3 20 4 5 5 7 6 4 7 3 8 2 9 1 10 37 11 45 12
REMARK SMILES IDX 38 13 43 14 39 15 41 16 44 17 40 19 42 21 8 23 9 24 10 25
REMARK SMILES IDX 11 26 19 27 12 28 17 29 13 30 15 31 18 32 14 34 16 36 36 38
REMARK SMILES IDX 21 40 22 41 23 42 24 43 32 44 25 45 30 46 26 47 28 48 31 49
REMARK SMILES IDX 27 51 29 53 34 55
REMARK H PARENT 44 18 40 20 42 22 18 33 14 35 16 37 36 39 31 50 27 52 29 54
REMARK H PARENT 34 56
REMARK Flexibility Score: inf
ROOT
ATOM      1  O   UNL     1     182.631 181.033 173.900  1.00  0.00    -0.330 OA
ATOM      2  C   UNL     1     180.985 182.841 172.394  1.00  0.00     0.193 C 
ATOM      3  C   UNL     1     181.657 183.244 173.706  1.00  0.00     0.179 C 
ATOM      4  C   UNL     1     180.835 181.324 172.291  1.00  0.00     0.277 C 
ATOM      5  C   UNL     1     182.931 182.428 173.936  1.00  0.00     0.192 C 
ATOM      6  C   UNL     1     182.144 180.611 172.628  1.00  0.00     0.355 C 
ENDROOT
BRANCH   5   7
ATOM      7  C   UNL     1     183.557 182.729 175.295  1.00  0.00     0.268 C 
BRANCH   7   8
ATOM      8  O   UNL     1     184.495 183.777 175.138  1.00  0.00    -0.459 OA
BRANCH   8   9
ATOM      9  C   UNL     1     185.621 183.477 174.428  1.00  0.00     0.338 C 
ATOM     10  O   UNL     1     186.215 182.411 174.448  1.00  0.00    -0.246 OA
BRANCH   9  11
ATOM     11  C   UNL     1     186.053 184.634 173.603  1.00  0.00     0.067 A 
ATOM     12  C   UNL     1     187.164 185.386 173.984  1.00  0.00     0.066 A 
ATOM     13  C   UNL     1     185.351 184.966 172.444  1.00  0.00     0.066 A 
ATOM     14  C   UNL     1     187.573 186.470 173.208  1.00  0.00     0.162 A 
ATOM     15  C   UNL     1     185.759 186.050 171.668  1.00  0.00     0.162 A 
ATOM     16  C   UNL     1     186.870 186.802 172.050  1.00  0.00     0.200 A 
BRANCH  14  17
ATOM     17  O   UNL     1     188.660 187.197 173.590  1.00  0.00    -0.504 OA
ATOM     18  H   UNL     1     189.257 186.628 174.106  1.00  0.00     0.293 HD
ENDBRANCH  14  17
BRANCH  15  19
ATOM     19  O   UNL     1     185.064 186.364 170.539  1.00  0.00    -0.504 OA
ATOM     20  H   UNL     1     184.480 187.120 170.726  1.00  0.00     0.293 HD
ENDBRANCH  15  19
BRANCH  16  21
ATOM     21  O   UNL     1     187.268 187.864 171.291  1.00  0.00    -0.502 OA
ATOM     22  H   UNL     1     186.522 188.135 170.729  1.00  0.00     0.293 HD
ENDBRANCH  16  21
ENDBRANCH   9  11
ENDBRANCH   8   9
ENDBRANCH   7   8
ENDBRANCH   5   7
BRANCH   6  23
ATOM     23  O   UNL     1     181.888 179.207 172.650  1.00  0.00    -0.428 OA
BRANCH  23  24
ATOM     24  C   UNL     1     182.840 178.422 172.080  1.00  0.00     0.340 C 
ATOM     25  O   UNL     1     183.962 178.774 171.750  1.00  0.00    -0.246 OA
BRANCH  24  26
ATOM     26  C   UNL     1     182.334 177.038 171.897  1.00  0.00     0.067 A 
ATOM     27  C   UNL     1     182.747 176.284 170.798  1.00  0.00     0.066 A 
ATOM     28  C   UNL     1     181.448 176.491 172.825  1.00  0.00     0.066 A 
ATOM     29  C   UNL     1     182.273 174.983 170.629  1.00  0.00     0.162 A 
ATOM     30  C   UNL     1     180.974 175.191 172.654  1.00  0.00     0.162 A 
ATOM     31  C   UNL     1     181.387 174.437 171.556  1.00  0.00     0.200 A 
BRANCH  29  32
ATOM     32  O   UNL     1     182.684 174.256 169.552  1.00  0.00    -0.504 OA
ATOM     33  H   UNL     1     182.584 173.309 169.750  1.00  0.00     0.293 HD
ENDBRANCH  29  32
BRANCH  30  34
ATOM     34  O   UNL     1     180.109 174.669 173.568  1.00  0.00    -0.504 OA
ATOM     35  H   UNL     1     179.404 175.316 173.744  1.00  0.00     0.293 HD
ENDBRANCH  30  34
BRANCH  31  36
ATOM     36  O   UNL     1     180.922 173.166 171.389  1.00  0.00    -0.502 OA
ATOM     37  H   UNL     1     180.742 173.026 170.443  1.00  0.00     0.293 HD
ENDBRANCH  31  36
ENDBRANCH  24  26
ENDBRANCH  23  24
ENDBRANCH   6  23
BRANCH   3  38
ATOM     38  O   UNL     1     181.986 184.630 173.662  1.00  0.00    -0.387 OA
ATOM     39  H   UNL     1     181.509 185.074 174.384  1.00  0.00     0.211 HD
ENDBRANCH   3  38
BRANCH   4  40
ATOM     40  O   UNL     1     180.464 180.973 170.959  1.00  0.00    -0.449 OA
BRANCH  40  41
ATOM     41  C   UNL     1     179.134 180.796 170.740  1.00  0.00     0.339 C 
ATOM     42  O   UNL     1     178.344 181.652 170.372  1.00  0.00    -0.246 OA
BRANCH  41  43
ATOM     43  C   UNL     1     178.743 179.389 171.010  1.00  0.00     0.067 A 
ATOM     44  C   UNL     1     179.092 178.384 170.110  1.00  0.00     0.066 A 
ATOM     45  C   UNL     1     178.032 179.074 172.168  1.00  0.00     0.066 A 
ATOM     46  C   UNL     1     178.728 177.061 170.365  1.00  0.00     0.162 A 
ATOM     47  C   UNL     1     177.668 177.752 172.423  1.00  0.00     0.162 A 
ATOM     48  C   UNL     1     178.016 176.746 171.523  1.00  0.00     0.200 A 
BRANCH  46  49
ATOM     49  O   UNL     1     179.073 176.087 169.477  1.00  0.00    -0.504 OA
ATOM     50  H   UNL     1     179.909 176.335 169.043  1.00  0.00     0.293 HD
ENDBRANCH  46  49
BRANCH  47  51
ATOM     51  O   UNL     1     176.973 177.457 173.558  1.00  0.00    -0.504 OA
ATOM     52  H   UNL     1     176.598 176.563 173.478  1.00  0.00     0.293 HD
ENDBRANCH  47  51
BRANCH  48  53
ATOM     53  O   UNL     1     177.658 175.453 171.772  1.00  0.00    -0.502 OA
ATOM     54  H   UNL     1     177.460 175.021 170.923  1.00  0.00     0.293 HD
ENDBRANCH  48  53
ENDBRANCH  41  43
ENDBRANCH  40  41
ENDBRANCH   4  40
BRANCH   2  55
ATOM     55  O   UNL     1     179.693 183.451 172.353  1.00  0.00    -0.386 OA
ATOM     56  H   UNL     1     179.059 182.793 172.023  1.00  0.00     0.211 HD
ENDBRANCH   2  55
TORSDOF 21
ENDMDL
MODEL 10
REMARK VINA RESULT:      -8.0      4.991      9.019
REMARK SMILES O=C(OC[C@H]1O[C@@H](OC(=O)c2cc(O)c(O)c(O)c2)[C@H](OC(=O)c2cc(O)c(O)c(O)c2)[C@@H](O)[C@@H]1O)c1cc(O)c(O)c(O)c1
REMARK SMILES IDX 6 1 33 2 35 3 20 4 5 5 7 6 4 7 3 8 2 9 1 10 37 11 45 12
REMARK SMILES IDX 38 13 43 14 39 15 41 16 44 17 40 19 42 21 8 23 9 24 10 25
REMARK SMILES IDX 11 26 19 27 12 28 17 29 13 30 15 31 18 32 14 34 16 36 36 38
REMARK SMILES IDX 21 40 22 41 23 42 24 43 32 44 25 45 30 46 26 47 28 48 31 49
REMARK SMILES IDX 27 51 29 53 34 55
REMARK H PARENT 44 18 40 20 42 22 18 33 14 35 16 37 36 39 31 50 27 52 29 54
REMARK H PARENT 34 56
REMARK Flexibility Score: inf
ROOT
ATOM      1  O   UNL     1     182.158 186.027 170.310  1.00  0.00    -0.330 OA
ATOM      2  C   UNL     1     180.465 184.574 172.118  1.00  0.00     0.193 C 
ATOM      3  C   UNL     1     179.960 185.760 171.296  1.00  0.00     0.179 C 
ATOM      4  C   UNL     1     181.983 184.621 172.282  1.00  0.00     0.277 C 
ATOM      5  C   UNL     1     180.768 185.908 170.005  1.00  0.00     0.192 C 
ATOM      6  C   UNL     1     182.681 184.862 170.943  1.00  0.00     0.355 C 
ENDROOT
BRANCH   5   7
ATOM      7  C   UNL     1     180.361 187.153 169.223  1.00  0.00     0.268 C 
BRANCH   7   8
ATOM      8  O   UNL     1     181.330 188.161 169.445  1.00  0.00    -0.459 OA
BRANCH   8   9
ATOM      9  C   UNL     1     181.771 188.828 168.340  1.00  0.00     0.338 C 
ATOM     10  O   UNL     1     181.105 189.087 167.349  1.00  0.00    -0.246 OA
BRANCH   9  11
ATOM     11  C   UNL     1     183.197 189.212 168.485  1.00  0.00     0.067 A 
ATOM     12  C   UNL     1     183.855 189.862 167.441  1.00  0.00     0.066 A 
ATOM     13  C   UNL     1     183.881 188.927 169.668  1.00  0.00     0.066 A 
ATOM     14  C   UNL     1     185.194 190.226 167.577  1.00  0.00     0.162 A 
ATOM     15  C   UNL     1     185.219 189.291 169.805  1.00  0.00     0.162 A 
ATOM     16  C   UNL     1     185.876 189.941 168.760  1.00  0.00     0.200 A 
BRANCH  14  17
ATOM     17  O   UNL     1     185.825 190.861 166.550  1.00  0.00    -0.504 OA
ATOM     18  H   UNL     1     185.605 190.411 165.715  1.00  0.00     0.293 HD
ENDBRANCH  14  17
BRANCH  15  19
ATOM     19  O   UNL     1     185.875 189.006 170.965  1.00  0.00    -0.504 OA
ATOM     20  H   UNL     1     185.385 188.317 171.445  1.00  0.00     0.293 HD
ENDBRANCH  15  19
BRANCH  16  21
ATOM     21  O   UNL     1     187.187 190.295 168.893  1.00  0.00    -0.502 OA
ATOM     22  H   UNL     1     187.511 190.601 168.029  1.00  0.00     0.293 HD
ENDBRANCH  16  21
ENDBRANCH   9  11
ENDBRANCH   8   9
ENDBRANCH   7   8
ENDBRANCH   5   7
BRANCH   6  23
ATOM     23  O   UNL     1     184.075 185.034 171.197  1.00  0.00    -0.428 OA
BRANCH  23  24
ATOM     24  C   UNL     1     184.895 184.088 170.668  1.00  0.00     0.340 C 
ATOM     25  O   UNL     1     184.561 182.980 170.280  1.00  0.00    -0.246 OA
BRANCH  24  26
ATOM     26  C   UNL     1     186.295 184.580 170.621  1.00  0.00     0.067 A 
ATOM     27  C   UNL     1     187.270 183.846 169.943  1.00  0.00     0.066 A 
ATOM     28  C   UNL     1     186.636 185.778 171.250  1.00  0.00     0.066 A 
ATOM     29  C   UNL     1     188.584 184.311 169.896  1.00  0.00     0.162 A 
ATOM     30  C   UNL     1     187.950 186.241 171.202  1.00  0.00     0.162 A 
ATOM     31  C   UNL     1     188.924 185.507 170.526  1.00  0.00     0.200 A 
BRANCH  29  32
ATOM     32  O   UNL     1     189.527 183.585 169.232  1.00  0.00    -0.504 OA
ATOM     33  H   UNL     1     189.889 184.123 168.506  1.00  0.00     0.293 HD
ENDBRANCH  29  32
BRANCH  30  34
ATOM     34  O   UNL     1     188.269 187.412 171.822  1.00  0.00    -0.504 OA
ATOM     35  H   UNL     1     189.101 187.296 172.312  1.00  0.00     0.293 HD
ENDBRANCH  30  34
BRANCH  31  36
ATOM     36  O   UNL     1     190.210 185.960 170.481  1.00  0.00    -0.502 OA
ATOM     37  H   UNL     1     190.202 186.922 170.620  1.00  0.00     0.293 HD
ENDBRANCH  31  36
ENDBRANCH  24  26
ENDBRANCH  23  24
ENDBRANCH   6  23
BRANCH   3  38
ATOM     38  O   UNL     1     178.586 185.558 170.972  1.00  0.00    -0.387 OA
ATOM     39  H   UNL     1     178.494 185.621 170.006  1.00  0.00     0.211 HD
ENDBRANCH   3  38
BRANCH   4  40
ATOM     40  O   UNL     1     182.442 183.376 172.808  1.00  0.00    -0.449 OA
BRANCH  40  41
ATOM     41  C   UNL     1     182.645 183.338 174.152  1.00  0.00     0.339 C 
ATOM     42  O   UNL     1     181.836 182.977 174.992  1.00  0.00    -0.246 OA
BRANCH  41  43
ATOM     43  C   UNL     1     184.015 183.804 174.486  1.00  0.00     0.067 A 
ATOM     44  C   UNL     1     184.192 184.937 175.279  1.00  0.00     0.066 A 
ATOM     45  C   UNL     1     185.124 183.106 174.010  1.00  0.00     0.066 A 
ATOM     46  C   UNL     1     185.478 185.373 175.596  1.00  0.00     0.162 A 
ATOM     47  C   UNL     1     186.411 183.542 174.326  1.00  0.00     0.162 A 
ATOM     48  C   UNL     1     186.588 184.675 175.119  1.00  0.00     0.200 A 
BRANCH  46  49
ATOM     49  O   UNL     1     185.639 186.482 176.371  1.00  0.00    -0.504 OA
ATOM     50  H   UNL     1     186.549 186.812 176.270  1.00  0.00     0.293 HD
ENDBRANCH  46  49
BRANCH  47  51
ATOM     51  O   UNL     1     187.486 182.850 173.854  1.00  0.00    -0.504 OA
ATOM     52  H   UNL     1     187.819 182.265 174.555  1.00  0.00     0.293 HD
ENDBRANCH  47  51
BRANCH  48  53
ATOM     53  O   UNL     1     187.847 185.102 175.426  1.00  0.00    -0.502 OA
ATOM     54  H   UNL     1     187.821 185.525 176.303  1.00  0.00     0.293 HD
ENDBRANCH  48  53
ENDBRANCH  41  43
ENDBRANCH  40  41
ENDBRANCH   4  40
BRANCH   2  55
ATOM     55  O   UNL     1     179.846 184.633 173.405  1.00  0.00    -0.386 OA
ATOM     56  H   UNL     1     179.467 185.521 173.518  1.00  0.00     0.211 HD
ENDBRANCH   2  55
TORSDOF 21
ENDMDL
