REMARK VINA RESULT:      -8.3      0.129      1.758
REMARK SMILES O=C(OC[C@H]1O[C@@H](OC(=O)c2cc(O)c(O)c(O)c2)[C@H](OC(=O)c2cc(O)c(O)c(O)c2)[C@@H](O)[C@@H]1O)c1cc(O)c(O)c(O)c1
REMARK SMILES IDX 6 1 33 2 35 3 20 4 5 5 7 6 4 7 3 8 2 9 1 10 37 11 45 12
REMARK SMILES IDX 38 13 43 14 39 15 41 16 44 17 40 19 42 21 8 23 9 24 10 25
REMARK SMILES IDX 11 26 19 27 12 28 17 29 13 30 15 31 18 32 14 34 16 36 36 38
REMARK SMILES IDX 21 40 22 41 23 42 24 43 32 44 25 45 30 46 26 47 28 48 31 49
REMARK SMILES IDX 27 51 29 53 34 55
REMARK H PARENT 44 18 40 20 42 22 18 33 14 35 16 37 36 39 31 50 27 52 29 54
REMARK H PARENT 34 56
REMARK Flexibility Score: inf
ROOT
ATOM      1  O   UNL     1     181.615 183.801 171.443  1.00  0.00    -0.330 OA
ATOM      2  C   UNL     1     182.021 182.151 173.758  1.00  0.00     0.193 C 
ATOM      3  C   UNL     1     182.746 183.482 173.562  1.00  0.00     0.179 C 
ATOM      4  C   UNL     1     181.541 181.580 172.423  1.00  0.00     0.277 C 
ATOM      5  C   UNL     1     181.919 184.427 172.689  1.00  0.00     0.192 C 
ATOM      6  C   UNL     1     180.807 182.637 171.599  1.00  0.00     0.355 C 
ENDROOT
BRANCH   5   7
ATOM      7  C   UNL     1     182.673 185.718 172.382  1.00  0.00     0.268 C 
BRANCH   7   8
ATOM      8  O   UNL     1     183.913 185.385 171.786  1.00  0.00    -0.459 OA
BRANCH   8   9
ATOM      9  C   UNL     1     184.975 186.172 172.122  1.00  0.00     0.338 C 
ATOM     10  O   UNL     1     185.273 187.232 171.594  1.00  0.00    -0.246 OA
BRANCH   9  11
ATOM     11  C   UNL     1     185.752 185.571 173.236  1.00  0.00     0.067 A 
ATOM     12  C   UNL     1     186.522 184.431 173.014  1.00  0.00     0.066 A 
ATOM     13  C   UNL     1     185.714 186.151 174.505  1.00  0.00     0.066 A 
ATOM     14  C   UNL     1     187.254 183.868 174.060  1.00  0.00     0.162 A 
ATOM     15  C   UNL     1     186.445 185.589 175.550  1.00  0.00     0.162 A 
ATOM     16  C   UNL     1     187.215 184.448 175.327  1.00  0.00     0.200 A 
BRANCH  14  17
ATOM     17  O   UNL     1     188.004 182.754 173.830  1.00  0.00    -0.504 OA
ATOM     18  H   UNL     1     188.714 182.706 174.493  1.00  0.00     0.293 HD
ENDBRANCH  14  17
BRANCH  15  19
ATOM     19  O   UNL     1     186.398 186.164 176.784  1.00  0.00    -0.504 OA
ATOM     20  H   UNL     1     185.662 186.799 176.811  1.00  0.00     0.293 HD
ENDBRANCH  15  19
BRANCH  16  21
ATOM     21  O   UNL     1     187.930 183.897 176.351  1.00  0.00    -0.502 OA
ATOM     22  H   UNL     1     188.773 184.375 176.428  1.00  0.00     0.293 HD
ENDBRANCH  16  21
ENDBRANCH   9  11
ENDBRANCH   8   9
ENDBRANCH   7   8
ENDBRANCH   5   7
BRANCH   6  23
ATOM     23  O   UNL     1     180.518 182.074 170.319  1.00  0.00    -0.428 OA
BRANCH  23  24
ATOM     24  C   UNL     1     179.293 182.365 169.806  1.00  0.00     0.340 C 
ATOM     25  O   UNL     1     178.816 183.480 169.667  1.00  0.00    -0.246 OA
BRANCH  24  26
ATOM     26  C   UNL     1     178.578 181.120 169.426  1.00  0.00     0.067 A 
ATOM     27  C   UNL     1     179.205 180.177 168.610  1.00  0.00     0.066 A 
ATOM     28  C   UNL     1     177.282 180.892 169.886  1.00  0.00     0.066 A 
ATOM     29  C   UNL     1     178.534 179.007 168.255  1.00  0.00     0.162 A 
ATOM     30  C   UNL     1     176.612 179.721 169.531  1.00  0.00     0.162 A 
ATOM     31  C   UNL     1     177.238 178.779 168.715  1.00  0.00     0.200 A 
BRANCH  29  32
ATOM     32  O   UNL     1     179.157 178.094 167.458  1.00  0.00    -0.504 OA
ATOM     33  H   UNL     1     179.282 178.477 166.573  1.00  0.00     0.293 HD
ENDBRANCH  29  32
BRANCH  30  34
ATOM     34  O   UNL     1     175.346 179.511 169.987  1.00  0.00    -0.504 OA
ATOM     35  H   UNL     1     174.747 179.405 169.228  1.00  0.00     0.293 HD
ENDBRANCH  30  34
BRANCH  31  36
ATOM     36  O   UNL     1     176.582 177.636 168.367  1.00  0.00    -0.502 OA
ATOM     37  H   UNL     1     176.748 177.462 167.424  1.00  0.00     0.293 HD
ENDBRANCH  31  36
ENDBRANCH  24  26
ENDBRANCH  23  24
ENDBRANCH   6  23
BRANCH   3  38
ATOM     38  O   UNL     1     182.971 184.088 174.833  1.00  0.00    -0.387 OA
ATOM     39  H   UNL     1     182.420 183.626 175.487  1.00  0.00     0.211 HD
ENDBRANCH   3  38
BRANCH   4  40
ATOM     40  O   UNL     1     180.643 180.498 172.665  1.00  0.00    -0.449 OA
BRANCH  40  41
ATOM     41  C   UNL     1     181.129 179.254 172.405  1.00  0.00     0.339 C 
ATOM     42  O   UNL     1     182.298 178.909 172.475  1.00  0.00    -0.246 OA
BRANCH  41  43
ATOM     43  C   UNL     1     180.029 178.337 172.013  1.00  0.00     0.067 A 
ATOM     44  C   UNL     1     178.734 178.562 172.479  1.00  0.00     0.066 A 
ATOM     45  C   UNL     1     180.291 177.254 171.175  1.00  0.00     0.066 A 
ATOM     46  C   UNL     1     177.700 177.702 172.108  1.00  0.00     0.162 A 
ATOM     47  C   UNL     1     179.257 176.394 170.804  1.00  0.00     0.162 A 
ATOM     48  C   UNL     1     177.962 176.618 171.271  1.00  0.00     0.200 A 
BRANCH  46  49
ATOM     49  O   UNL     1     176.439 177.931 172.571  1.00  0.00    -0.504 OA
ATOM     50  H   UNL     1     175.806 177.429 172.029  1.00  0.00     0.293 HD
ENDBRANCH  46  49
BRANCH  47  51
ATOM     51  O   UNL     1     179.526 175.339 169.984  1.00  0.00    -0.504 OA
ATOM     52  H   UNL     1     180.318 175.540 169.458  1.00  0.00     0.293 HD
ENDBRANCH  47  51
BRANCH  48  53
ATOM     53  O   UNL     1     176.952 175.775 170.909  1.00  0.00    -0.502 OA
ATOM     54  H   UNL     1     176.138 176.299 170.806  1.00  0.00     0.293 HD
ENDBRANCH  48  53
ENDBRANCH  41  43
ENDBRANCH  40  41
ENDBRANCH   4  40
BRANCH   2  55
ATOM     55  O   UNL     1     182.934 181.235 174.365  1.00  0.00    -0.386 OA
ATOM     56  H   UNL     1     183.290 180.657 173.670  1.00  0.00     0.211 HD
ENDBRANCH   2  55
TORSDOF 21
