REMARK VINA RESULT:      -8.4      0.000      0.000
REMARK SMILES O=C(OC[C@H]1O[C@@H](OC(=O)c2cc(O)c(O)c(O)c2)[C@H](OC(=O)c2cc(O)c(O)c(O)c2)[C@@H](O)[C@@H]1O)c1cc(O)c(O)c(O)c1
REMARK SMILES IDX 6 1 33 2 35 3 20 4 5 5 7 6 4 7 3 8 2 9 1 10 37 11 45 12
REMARK SMILES IDX 38 13 43 14 39 15 41 16 44 17 40 19 42 21 8 23 9 24 10 25
REMARK SMILES IDX 11 26 19 27 12 28 17 29 13 30 15 31 18 32 14 34 16 36 36 38
REMARK SMILES IDX 21 40 22 41 23 42 24 43 32 44 25 45 30 46 26 47 28 48 31 49
REMARK SMILES IDX 27 51 29 53 34 55
REMARK H PARENT 44 18 40 20 42 22 18 33 14 35 16 37 36 39 31 50 27 52 29 54
REMARK H PARENT 34 56
REMARK Flexibility Score: inf
ROOT
ATOM      1  O   UNL     1     181.569 183.761 171.398  1.00  0.00    -0.330 OA
ATOM      2  C   UNL     1     181.978 182.124 173.721  1.00  0.00     0.193 C 
ATOM      3  C   UNL     1     182.713 183.448 173.511  1.00  0.00     0.179 C 
ATOM      4  C   UNL     1     181.485 181.548 172.395  1.00  0.00     0.277 C 
ATOM      5  C   UNL     1     181.886 184.394 172.637  1.00  0.00     0.192 C 
ATOM      6  C   UNL     1     180.752 182.605 171.567  1.00  0.00     0.355 C 
ENDROOT
BRANCH   5   7
ATOM      7  C   UNL     1     182.648 185.676 172.316  1.00  0.00     0.268 C 
BRANCH   7   8
ATOM      8  O   UNL     1     183.962 185.332 171.914  1.00  0.00    -0.459 OA
BRANCH   8   9
ATOM      9  C   UNL     1     184.957 186.170 172.321  1.00  0.00     0.338 C 
ATOM     10  O   UNL     1     185.178 187.286 171.877  1.00  0.00    -0.246 OA
BRANCH   9  11
ATOM     11  C   UNL     1     185.767 185.549 173.400  1.00  0.00     0.067 A 
ATOM     12  C   UNL     1     185.729 186.074 174.691  1.00  0.00     0.066 A 
ATOM     13  C   UNL     1     186.563 184.437 173.123  1.00  0.00     0.066 A 
ATOM     14  C   UNL     1     186.487 185.490 175.706  1.00  0.00     0.162 A 
ATOM     15  C   UNL     1     187.320 183.852 174.137  1.00  0.00     0.162 A 
ATOM     16  C   UNL     1     187.282 184.378 175.428  1.00  0.00     0.200 A 
BRANCH  14  17
ATOM     17  O   UNL     1     186.441 186.012 176.963  1.00  0.00    -0.504 OA
ATOM     18  H   UNL     1     187.347 186.208 177.259  1.00  0.00     0.293 HD
ENDBRANCH  14  17
BRANCH  15  19
ATOM     19  O   UNL     1     188.094 182.767 173.853  1.00  0.00    -0.504 OA
ATOM     20  H   UNL     1     188.757 183.015 173.186  1.00  0.00     0.293 HD
ENDBRANCH  15  19
BRANCH  16  21
ATOM     21  O   UNL     1     188.026 183.807 176.419  1.00  0.00    -0.502 OA
ATOM     22  H   UNL     1     188.853 183.476 176.030  1.00  0.00     0.293 HD
ENDBRANCH  16  21
ENDBRANCH   9  11
ENDBRANCH   8   9
ENDBRANCH   7   8
ENDBRANCH   5   7
BRANCH   6  23
ATOM     23  O   UNL     1     180.450 182.035 170.294  1.00  0.00    -0.428 OA
BRANCH  23  24
ATOM     24  C   UNL     1     179.217 182.315 169.797  1.00  0.00     0.340 C 
ATOM     25  O   UNL     1     178.728 183.427 169.664  1.00  0.00    -0.246 OA
BRANCH  24  26
ATOM     26  C   UNL     1     178.508 181.065 169.425  1.00  0.00     0.067 A 
ATOM     27  C   UNL     1     179.146 180.111 168.631  1.00  0.00     0.066 A 
ATOM     28  C   UNL     1     177.206 180.842 169.871  1.00  0.00     0.066 A 
ATOM     29  C   UNL     1     178.481 178.935 168.284  1.00  0.00     0.162 A 
ATOM     30  C   UNL     1     176.541 179.666 169.524  1.00  0.00     0.162 A 
ATOM     31  C   UNL     1     177.179 178.713 168.730  1.00  0.00     0.200 A 
BRANCH  29  32
ATOM     32  O   UNL     1     179.115 178.012 167.509  1.00  0.00    -0.504 OA
ATOM     33  H   UNL     1     178.734 177.134 167.683  1.00  0.00     0.293 HD
ENDBRANCH  29  32
BRANCH  30  34
ATOM     34  O   UNL     1     175.269 179.461 169.966  1.00  0.00    -0.504 OA
ATOM     35  H   UNL     1     175.142 178.512 170.140  1.00  0.00     0.293 HD
ENDBRANCH  30  34
BRANCH  31  36
ATOM     36  O   UNL     1     176.528 177.564 168.389  1.00  0.00    -0.502 OA
ATOM     37  H   UNL     1     176.003 177.735 167.588  1.00  0.00     0.293 HD
ENDBRANCH  31  36
ENDBRANCH  24  26
ENDBRANCH  23  24
ENDBRANCH   6  23
BRANCH   3  38
ATOM     38  O   UNL     1     182.951 184.061 174.776  1.00  0.00    -0.387 OA
ATOM     39  H   UNL     1     183.729 184.637 174.687  1.00  0.00     0.211 HD
ENDBRANCH   3  38
BRANCH   4  40
ATOM     40  O   UNL     1     180.580 180.474 172.651  1.00  0.00    -0.449 OA
BRANCH  40  41
ATOM     41  C   UNL     1     181.052 179.226 172.389  1.00  0.00     0.339 C 
ATOM     42  O   UNL     1     182.220 178.873 172.436  1.00  0.00    -0.246 OA
BRANCH  41  43
ATOM     43  C   UNL     1     179.938 178.313 172.029  1.00  0.00     0.067 A 
ATOM     44  C   UNL     1     180.184 177.190 171.240  1.00  0.00     0.066 A 
ATOM     45  C   UNL     1     178.646 178.576 172.483  1.00  0.00     0.066 A 
ATOM     46  C   UNL     1     179.139 176.330 170.904  1.00  0.00     0.162 A 
ATOM     47  C   UNL     1     177.600 177.717 172.147  1.00  0.00     0.162 A 
ATOM     48  C   UNL     1     177.847 176.594 171.358  1.00  0.00     0.200 A 
BRANCH  46  49
ATOM     49  O   UNL     1     179.392 175.236 170.132  1.00  0.00    -0.504 OA
ATOM     50  H   UNL     1     179.145 174.434 170.626  1.00  0.00     0.293 HD
ENDBRANCH  46  49
BRANCH  47  51
ATOM     51  O   UNL     1     176.342 177.985 172.598  1.00  0.00    -0.504 OA
ATOM     52  H   UNL     1     176.400 178.592 173.356  1.00  0.00     0.293 HD
ENDBRANCH  47  51
BRANCH  48  53
ATOM     53  O   UNL     1     176.823 175.754 171.029  1.00  0.00    -0.502 OA
ATOM     54  H   UNL     1     176.429 175.412 171.851  1.00  0.00     0.293 HD
ENDBRANCH  48  53
ENDBRANCH  41  43
ENDBRANCH  40  41
ENDBRANCH   4  40
BRANCH   2  55
ATOM     55  O   UNL     1     182.888 181.205 174.329  1.00  0.00    -0.386 OA
ATOM     56  H   UNL     1     183.620 181.048 173.708  1.00  0.00     0.211 HD
ENDBRANCH   2  55
TORSDOF 21
