REMARK VINA RESULT:      -8.0      2.258      9.692
REMARK SMILES O=C(OC[C@H]1O[C@@H](OC(=O)c2cc(O)c(O)c(O)c2)[C@H](OC(=O)c2cc(O)c(O)c(O)c2)[C@@H](O)[C@@H]1O)c1cc(O)c(O)c(O)c1
REMARK SMILES IDX 6 1 33 2 35 3 20 4 5 5 7 6 4 7 3 8 2 9 1 10 37 11 45 12
REMARK SMILES IDX 38 13 43 14 39 15 41 16 44 17 40 19 42 21 8 23 9 24 10 25
REMARK SMILES IDX 11 26 19 27 12 28 17 29 13 30 15 31 18 32 14 34 16 36 36 38
REMARK SMILES IDX 21 40 22 41 23 42 24 43 32 44 25 45 30 46 26 47 28 48 31 49
REMARK SMILES IDX 27 51 29 53 34 55
REMARK H PARENT 44 18 40 20 42 22 18 33 14 35 16 37 36 39 31 50 27 52 29 54
REMARK H PARENT 34 56
REMARK Flexibility Score: inf
ROOT
ATOM      1  O   UNL     1     181.209 180.954 172.830  1.00  0.00    -0.330 OA
ATOM      2  C   UNL     1     181.473 182.499 170.423  1.00  0.00     0.193 C 
ATOM      3  C   UNL     1     180.394 181.430 170.598  1.00  0.00     0.179 C 
ATOM      4  C   UNL     1     182.647 182.260 171.372  1.00  0.00     0.277 C 
ATOM      5  C   UNL     1     180.036 181.257 172.075  1.00  0.00     0.192 C 
ATOM      6  C   UNL     1     182.166 182.010 172.801  1.00  0.00     0.355 C 
ENDROOT
BRANCH   5   7
ATOM      7  C   UNL     1     179.046 180.115 172.286  1.00  0.00     0.268 C 
BRANCH   7   8
ATOM      8  O   UNL     1     179.315 179.104 171.332  1.00  0.00    -0.459 OA
BRANCH   8   9
ATOM      9  C   UNL     1     179.588 177.863 171.829  1.00  0.00     0.338 C 
ATOM     10  O   UNL     1     178.852 177.202 172.546  1.00  0.00    -0.246 OA
BRANCH   9  11
ATOM     11  C   UNL     1     180.925 177.394 171.384  1.00  0.00     0.067 A 
ATOM     12  C   UNL     1     182.073 178.077 171.785  1.00  0.00     0.066 A 
ATOM     13  C   UNL     1     181.033 176.268 170.567  1.00  0.00     0.066 A 
ATOM     14  C   UNL     1     183.329 177.635 171.370  1.00  0.00     0.162 A 
ATOM     15  C   UNL     1     182.289 175.826 170.152  1.00  0.00     0.162 A 
ATOM     16  C   UNL     1     183.436 176.510 170.554  1.00  0.00     0.200 A 
BRANCH  14  17
ATOM     17  O   UNL     1     184.443 178.310 171.770  1.00  0.00    -0.504 OA
ATOM     18  H   UNL     1     184.384 178.483 172.726  1.00  0.00     0.293 HD
ENDBRANCH  14  17
BRANCH  15  19
ATOM     19  O   UNL     1     182.381 174.726 169.354  1.00  0.00    -0.504 OA
ATOM     20  H   UNL     1     183.307 174.607 169.082  1.00  0.00     0.293 HD
ENDBRANCH  15  19
BRANCH  16  21
ATOM     21  O   UNL     1     184.665 176.078 170.146  1.00  0.00    -0.502 OA
ATOM     22  H   UNL     1     184.695 175.110 170.237  1.00  0.00     0.293 HD
ENDBRANCH  16  21
ENDBRANCH   9  11
ENDBRANCH   8   9
ENDBRANCH   7   8
ENDBRANCH   5   7
BRANCH   6  23
ATOM     23  O   UNL     1     183.300 181.657 173.593  1.00  0.00    -0.428 OA
BRANCH  23  24
ATOM     24  C   UNL     1     183.438 182.330 174.765  1.00  0.00     0.340 C 
ATOM     25  O   UNL     1     182.700 182.248 175.735  1.00  0.00    -0.246 OA
BRANCH  24  26
ATOM     26  C   UNL     1     184.632 183.211 174.724  1.00  0.00     0.067 A 
ATOM     27  C   UNL     1     185.883 182.675 174.412  1.00  0.00     0.066 A 
ATOM     28  C   UNL     1     184.505 184.573 174.993  1.00  0.00     0.066 A 
ATOM     29  C   UNL     1     187.005 183.504 174.371  1.00  0.00     0.162 A 
ATOM     30  C   UNL     1     185.627 185.400 174.951  1.00  0.00     0.162 A 
ATOM     31  C   UNL     1     186.876 184.866 174.640  1.00  0.00     0.200 A 
BRANCH  29  32
ATOM     32  O   UNL     1     188.220 182.969 174.065  1.00  0.00    -0.504 OA
ATOM     33  H   UNL     1     188.114 182.018 173.890  1.00  0.00     0.293 HD
ENDBRANCH  29  32
BRANCH  30  34
ATOM     34  O   UNL     1     185.487 186.729 175.216  1.00  0.00    -0.504 OA
ATOM     35  H   UNL     1     186.316 187.066 175.600  1.00  0.00     0.293 HD
ENDBRANCH  30  34
BRANCH  31  36
ATOM     36  O   UNL     1     187.973 185.675 174.601  1.00  0.00    -0.502 OA
ATOM     37  H   UNL     1     187.764 186.450 174.053  1.00  0.00     0.293 HD
ENDBRANCH  31  36
ENDBRANCH  24  26
ENDBRANCH  23  24
ENDBRANCH   6  23
BRANCH   3  38
ATOM     38  O   UNL     1     179.229 181.814 169.871  1.00  0.00    -0.387 OA
ATOM     39  H   UNL     1     179.476 181.906 168.936  1.00  0.00     0.211 HD
ENDBRANCH   3  38
BRANCH   4  40
ATOM     40  O   UNL     1     183.493 183.409 171.379  1.00  0.00    -0.449 OA
BRANCH  40  41
ATOM     41  C   UNL     1     184.614 183.325 170.614  1.00  0.00     0.339 C 
ATOM     42  O   UNL     1     184.864 182.454 169.795  1.00  0.00    -0.246 OA
BRANCH  41  43
ATOM     43  C   UNL     1     185.529 184.458 170.903  1.00  0.00     0.067 A 
ATOM     44  C   UNL     1     186.898 184.326 170.674  1.00  0.00     0.066 A 
ATOM     45  C   UNL     1     185.018 185.657 171.400  1.00  0.00     0.066 A 
ATOM     46  C   UNL     1     187.757 185.392 170.942  1.00  0.00     0.162 A 
ATOM     47  C   UNL     1     185.876 186.723 171.669  1.00  0.00     0.162 A 
ATOM     48  C   UNL     1     187.245 186.590 171.440  1.00  0.00     0.200 A 
BRANCH  46  49
ATOM     49  O   UNL     1     189.093 185.250 170.715  1.00  0.00    -0.504 OA
ATOM     50  H   UNL     1     189.223 184.740 169.897  1.00  0.00     0.293 HD
ENDBRANCH  46  49
BRANCH  47  51
ATOM     51  O   UNL     1     185.364 187.889 172.153  1.00  0.00    -0.504 OA
ATOM     52  H   UNL     1     186.086 188.424 172.524  1.00  0.00     0.293 HD
ENDBRANCH  47  51
BRANCH  48  53
ATOM     53  O   UNL     1     188.085 187.632 171.705  1.00  0.00    -0.502 OA
ATOM     54  H   UNL     1     188.788 187.316 172.299  1.00  0.00     0.293 HD
ENDBRANCH  48  53
ENDBRANCH  41  43
ENDBRANCH  40  41
ENDBRANCH   4  40
BRANCH   2  55
ATOM     55  O   UNL     1     181.935 182.444 169.073  1.00  0.00    -0.386 OA
ATOM     56  H   UNL     1     181.909 183.344 168.707  1.00  0.00     0.211 HD
ENDBRANCH   2  55
TORSDOF 21
