REMARK VINA RESULT:      -8.0      1.905      4.228
REMARK SMILES O=C(OC[C@H]1O[C@@H](OC(=O)c2cc(O)c(O)c(O)c2)[C@H](OC(=O)c2cc(O)c(O)c(O)c2)[C@@H](O)[C@@H]1O)c1cc(O)c(O)c(O)c1
REMARK SMILES IDX 6 1 33 2 35 3 20 4 5 5 7 6 4 7 3 8 2 9 1 10 37 11 45 12
REMARK SMILES IDX 38 13 43 14 39 15 41 16 44 17 40 19 42 21 8 23 9 24 10 25
REMARK SMILES IDX 11 26 19 27 12 28 17 29 13 30 15 31 18 32 14 34 16 36 36 38
REMARK SMILES IDX 21 40 22 41 23 42 24 43 32 44 25 45 30 46 26 47 28 48 31 49
REMARK SMILES IDX 27 51 29 53 34 55
REMARK H PARENT 44 18 40 20 42 22 18 33 14 35 16 37 36 39 31 50 27 52 29 54
REMARK H PARENT 34 56
REMARK Flexibility Score: inf
ROOT
ATOM      1  O   UNL     1     181.829 181.082 173.038  1.00  0.00    -0.330 OA
ATOM      2  C   UNL     1     179.994 181.851 170.968  1.00  0.00     0.193 C 
ATOM      3  C   UNL     1     180.504 182.836 172.019  1.00  0.00     0.179 C 
ATOM      4  C   UNL     1     180.113 180.408 171.458  1.00  0.00     0.277 C 
ATOM      5  C   UNL     1     181.883 182.416 172.533  1.00  0.00     0.192 C 
ATOM      6  C   UNL     1     181.502 180.128 172.031  1.00  0.00     0.355 C 
ENDROOT
BRANCH   5   7
ATOM      7  C   UNL     1     182.362 183.318 173.666  1.00  0.00     0.268 C 
BRANCH   7   8
ATOM      8  O   UNL     1     182.686 184.586 173.127  1.00  0.00    -0.459 OA
BRANCH   8   9
ATOM      9  C   UNL     1     183.905 184.693 172.524  1.00  0.00     0.338 C 
ATOM     10  O   UNL     1     184.100 184.807 171.323  1.00  0.00    -0.246 OA
BRANCH   9  11
ATOM     11  C   UNL     1     184.999 184.651 173.526  1.00  0.00     0.067 A 
ATOM     12  C   UNL     1     184.996 185.539 174.601  1.00  0.00     0.066 A 
ATOM     13  C   UNL     1     186.030 183.719 173.395  1.00  0.00     0.066 A 
ATOM     14  C   UNL     1     186.022 185.498 175.544  1.00  0.00     0.162 A 
ATOM     15  C   UNL     1     187.056 183.678 174.338  1.00  0.00     0.162 A 
ATOM     16  C   UNL     1     187.052 184.567 175.412  1.00  0.00     0.200 A 
BRANCH  14  17
ATOM     17  O   UNL     1     186.007 186.372 176.590  1.00  0.00    -0.504 OA
ATOM     18  H   UNL     1     186.269 185.901 177.400  1.00  0.00     0.293 HD
ENDBRANCH  14  17
BRANCH  15  19
ATOM     19  O   UNL     1     188.057 182.764 174.198  1.00  0.00    -0.504 OA
ATOM     20  H   UNL     1     187.896 182.021 174.805  1.00  0.00     0.293 HD
ENDBRANCH  15  19
BRANCH  16  21
ATOM     21  O   UNL     1     188.058 184.528 176.334  1.00  0.00    -0.502 OA
ATOM     22  H   UNL     1     187.889 185.215 177.001  1.00  0.00     0.293 HD
ENDBRANCH  16  21
ENDBRANCH   9  11
ENDBRANCH   8   9
ENDBRANCH   7   8
ENDBRANCH   5   7
BRANCH   6  23
ATOM     23  O   UNL     1     181.491 178.816 172.593  1.00  0.00    -0.428 OA
BRANCH  23  24
ATOM     24  C   UNL     1     182.466 177.975 172.158  1.00  0.00     0.340 C 
ATOM     25  O   UNL     1     183.607 178.290 171.858  1.00  0.00    -0.246 OA
BRANCH  24  26
ATOM     26  C   UNL     1     181.959 176.582 172.085  1.00  0.00     0.067 A 
ATOM     27  C   UNL     1     182.555 175.667 171.215  1.00  0.00     0.066 A 
ATOM     28  C   UNL     1     180.889 176.185 172.887  1.00  0.00     0.066 A 
ATOM     29  C   UNL     1     182.080 174.357 171.149  1.00  0.00     0.162 A 
ATOM     30  C   UNL     1     180.415 174.876 172.820  1.00  0.00     0.162 A 
ATOM     31  C   UNL     1     181.011 173.962 171.951  1.00  0.00     0.200 A 
BRANCH  29  32
ATOM     32  O   UNL     1     182.670 173.474 170.296  1.00  0.00    -0.504 OA
ATOM     33  H   UNL     1     183.196 173.966 169.642  1.00  0.00     0.293 HD
ENDBRANCH  29  32
BRANCH  30  34
ATOM     34  O   UNL     1     179.370 174.502 173.610  1.00  0.00    -0.504 OA
ATOM     35  H   UNL     1     178.888 175.297 173.896  1.00  0.00     0.293 HD
ENDBRANCH  30  34
BRANCH  31  36
ATOM     36  O   UNL     1     180.545 172.682 171.885  1.00  0.00    -0.502 OA
ATOM     37  H   UNL     1     180.318 172.485 170.960  1.00  0.00     0.293 HD
ENDBRANCH  31  36
ENDBRANCH  24  26
ENDBRANCH  23  24
ENDBRANCH   6  23
BRANCH   3  38
ATOM     38  O   UNL     1     180.592 184.137 171.442  1.00  0.00    -0.387 OA
ATOM     39  H   UNL     1     180.233 184.774 172.083  1.00  0.00     0.211 HD
ENDBRANCH   3  38
BRANCH   4  40
ATOM     40  O   UNL     1     179.891 179.516 170.366  1.00  0.00    -0.449 OA
BRANCH  40  41
ATOM     41  C   UNL     1     178.650 178.966 170.292  1.00  0.00     0.339 C 
ATOM     42  O   UNL     1     177.591 179.554 170.450  1.00  0.00    -0.246 OA
BRANCH  41  43
ATOM     43  C   UNL     1     178.739 177.517 169.983  1.00  0.00     0.067 A 
ATOM     44  C   UNL     1     177.869 176.618 170.600  1.00  0.00     0.066 A 
ATOM     45  C   UNL     1     179.690 177.055 169.074  1.00  0.00     0.066 A 
ATOM     46  C   UNL     1     177.950 175.256 170.307  1.00  0.00     0.162 A 
ATOM     47  C   UNL     1     179.772 175.694 168.782  1.00  0.00     0.162 A 
ATOM     48  C   UNL     1     178.902 174.795 169.398  1.00  0.00     0.200 A 
BRANCH  46  49
ATOM     49  O   UNL     1     177.095 174.388 170.916  1.00  0.00    -0.504 OA
ATOM     50  H   UNL     1     176.211 174.482 170.521  1.00  0.00     0.293 HD
ENDBRANCH  46  49
BRANCH  47  51
ATOM     51  O   UNL     1     180.706 175.255 167.891  1.00  0.00    -0.504 OA
ATOM     52  H   UNL     1     180.403 175.456 166.989  1.00  0.00     0.293 HD
ENDBRANCH  47  51
BRANCH  48  53
ATOM     53  O   UNL     1     178.984 173.463 169.114  1.00  0.00    -0.502 OA
ATOM     54  H   UNL     1     179.549 173.351 168.328  1.00  0.00     0.293 HD
ENDBRANCH  48  53
ENDBRANCH  41  43
ENDBRANCH  40  41
ENDBRANCH   4  40
BRANCH   2  55
ATOM     55  O   UNL     1     178.622 182.152 170.708  1.00  0.00    -0.386 OA
ATOM     56  H   UNL     1     178.559 183.090 170.461  1.00  0.00     0.211 HD
ENDBRANCH   2  55
TORSDOF 21
