REMARK VINA RESULT:      -8.0      5.018     10.311
REMARK SMILES O=C(OC[C@H]1O[C@@H](OC(=O)c2cc(O)c(O)c(O)c2)[C@H](OC(=O)c2cc(O)c(O)c(O)c2)[C@@H](O)[C@@H]1O)c1cc(O)c(O)c(O)c1
REMARK SMILES IDX 6 1 33 2 35 3 20 4 5 5 7 6 4 7 3 8 2 9 1 10 37 11 45 12
REMARK SMILES IDX 38 13 43 14 39 15 41 16 44 17 40 19 42 21 8 23 9 24 10 25
REMARK SMILES IDX 11 26 19 27 12 28 17 29 13 30 15 31 18 32 14 34 16 36 36 38
REMARK SMILES IDX 21 40 22 41 23 42 24 43 32 44 25 45 30 46 26 47 28 48 31 49
REMARK SMILES IDX 27 51 29 53 34 55
REMARK H PARENT 44 18 40 20 42 22 18 33 14 35 16 37 36 39 31 50 27 52 29 54
REMARK H PARENT 34 56
REMARK Flexibility Score: inf
ROOT
ATOM      1  O   UNL     1     182.130 186.021 170.395  1.00  0.00    -0.330 OA
ATOM      2  C   UNL     1     180.447 184.573 172.217  1.00  0.00     0.193 C 
ATOM      3  C   UNL     1     179.934 185.749 171.386  1.00  0.00     0.179 C 
ATOM      4  C   UNL     1     181.966 184.631 172.379  1.00  0.00     0.277 C 
ATOM      5  C   UNL     1     180.740 185.891 170.093  1.00  0.00     0.192 C 
ATOM      6  C   UNL     1     182.660 184.864 171.037  1.00  0.00     0.355 C 
ENDROOT
BRANCH   5   7
ATOM      7  C   UNL     1     180.324 187.128 169.301  1.00  0.00     0.268 C 
BRANCH   7   8
ATOM      8  O   UNL     1     179.494 187.930 170.122  1.00  0.00    -0.459 OA
BRANCH   8   9
ATOM      9  C   UNL     1     179.120 189.135 169.606  1.00  0.00     0.338 C 
ATOM     10  O   UNL     1     179.822 190.132 169.537  1.00  0.00    -0.246 OA
BRANCH   9  11
ATOM     11  C   UNL     1     177.716 189.095 169.125  1.00  0.00     0.067 A 
ATOM     12  C   UNL     1     177.280 188.034 168.333  1.00  0.00     0.066 A 
ATOM     13  C   UNL     1     176.831 190.118 169.468  1.00  0.00     0.066 A 
ATOM     14  C   UNL     1     175.960 187.994 167.883  1.00  0.00     0.162 A 
ATOM     15  C   UNL     1     175.512 190.079 169.018  1.00  0.00     0.162 A 
ATOM     16  C   UNL     1     175.077 189.017 168.226  1.00  0.00     0.200 A 
BRANCH  14  17
ATOM     17  O   UNL     1     175.546 186.951 167.110  1.00  0.00    -0.504 OA
ATOM     18  H   UNL     1     175.462 187.251 166.189  1.00  0.00     0.293 HD
ENDBRANCH  14  17
BRANCH  15  19
ATOM     19  O   UNL     1     174.658 191.084 169.360  1.00  0.00    -0.504 OA
ATOM     20  H   UNL     1     173.842 190.699 169.722  1.00  0.00     0.293 HD
ENDBRANCH  15  19
BRANCH  16  21
ATOM     21  O   UNL     1     173.786 188.979 167.785  1.00  0.00    -0.502 OA
ATOM     22  H   UNL     1     173.795 188.828 166.824  1.00  0.00     0.293 HD
ENDBRANCH  16  21
ENDBRANCH   9  11
ENDBRANCH   8   9
ENDBRANCH   7   8
ENDBRANCH   5   7
BRANCH   6  23
ATOM     23  O   UNL     1     184.053 185.047 171.288  1.00  0.00    -0.428 OA
BRANCH  23  24
ATOM     24  C   UNL     1     184.878 184.100 170.769  1.00  0.00     0.340 C 
ATOM     25  O   UNL     1     184.550 182.984 170.397  1.00  0.00    -0.246 OA
BRANCH  24  26
ATOM     26  C   UNL     1     186.275 184.601 170.710  1.00  0.00     0.067 A 
ATOM     27  C   UNL     1     187.251 183.866 170.035  1.00  0.00     0.066 A 
ATOM     28  C   UNL     1     186.611 185.806 171.325  1.00  0.00     0.066 A 
ATOM     29  C   UNL     1     188.562 184.339 169.977  1.00  0.00     0.162 A 
ATOM     30  C   UNL     1     187.921 186.278 171.267  1.00  0.00     0.162 A 
ATOM     31  C   UNL     1     188.897 185.544 170.593  1.00  0.00     0.200 A 
BRANCH  29  32
ATOM     32  O   UNL     1     189.506 183.613 169.316  1.00  0.00    -0.504 OA
ATOM     33  H   UNL     1     190.256 183.445 169.913  1.00  0.00     0.293 HD
ENDBRANCH  29  32
BRANCH  30  34
ATOM     34  O   UNL     1     188.236 187.457 171.873  1.00  0.00    -0.504 OA
ATOM     35  H   UNL     1     188.321 187.309 172.830  1.00  0.00     0.293 HD
ENDBRANCH  30  34
BRANCH  31  36
ATOM     36  O   UNL     1     190.180 186.004 170.538  1.00  0.00    -0.502 OA
ATOM     37  H   UNL     1     190.300 186.663 171.244  1.00  0.00     0.293 HD
ENDBRANCH  31  36
ENDBRANCH  24  26
ENDBRANCH  23  24
ENDBRANCH   6  23
BRANCH   3  38
ATOM     38  O   UNL     1     178.562 185.537 171.066  1.00  0.00    -0.387 OA
ATOM     39  H   UNL     1     178.430 185.781 170.134  1.00  0.00     0.211 HD
ENDBRANCH   3  38
BRANCH   4  40
ATOM     40  O   UNL     1     182.433 183.393 172.914  1.00  0.00    -0.449 OA
BRANCH  40  41
ATOM     41  C   UNL     1     182.656 183.373 174.256  1.00  0.00     0.339 C 
ATOM     42  O   UNL     1     181.854 183.038 175.114  1.00  0.00    -0.246 OA
BRANCH  41  43
ATOM     43  C   UNL     1     184.038 183.821 174.561  1.00  0.00     0.067 A 
ATOM     44  C   UNL     1     184.246 184.960 175.338  1.00  0.00     0.066 A 
ATOM     45  C   UNL     1     185.128 183.100 174.074  1.00  0.00     0.066 A 
ATOM     46  C   UNL     1     185.545 185.379 175.628  1.00  0.00     0.162 A 
ATOM     47  C   UNL     1     186.427 183.519 174.363  1.00  0.00     0.162 A 
ATOM     48  C   UNL     1     186.635 184.658 175.140  1.00  0.00     0.200 A 
BRANCH  46  49
ATOM     49  O   UNL     1     185.735 186.494 176.387  1.00  0.00    -0.504 OA
ATOM     50  H   UNL     1     185.537 186.283 177.317  1.00  0.00     0.293 HD
ENDBRANCH  46  49
BRANCH  47  51
ATOM     51  O   UNL     1     187.483 182.805 173.882  1.00  0.00    -0.504 OA
ATOM     52  H   UNL     1     187.625 182.027 174.448  1.00  0.00     0.293 HD
ENDBRANCH  47  51
BRANCH  48  53
ATOM     53  O   UNL     1     187.905 185.069 175.421  1.00  0.00    -0.502 OA
ATOM     54  H   UNL     1     188.422 184.294 175.706  1.00  0.00     0.293 HD
ENDBRANCH  48  53
ENDBRANCH  41  43
ENDBRANCH  40  41
ENDBRANCH   4  40
BRANCH   2  55
ATOM     55  O   UNL     1     179.830 184.640 173.504  1.00  0.00    -0.386 OA
ATOM     56  H   UNL     1     178.936 185.006 173.393  1.00  0.00     0.211 HD
ENDBRANCH   2  55
TORSDOF 21
