REMARK VINA RESULT:      -8.0      1.921      4.234
REMARK SMILES O=C(OC[C@H]1O[C@@H](OC(=O)c2cc(O)c(O)c(O)c2)[C@H](OC(=O)c2cc(O)c(O)c(O)c2)[C@@H](O)[C@@H]1O)c1cc(O)c(O)c(O)c1
REMARK SMILES IDX 6 1 33 2 35 3 20 4 5 5 7 6 4 7 3 8 2 9 1 10 37 11 45 12
REMARK SMILES IDX 38 13 43 14 39 15 41 16 44 17 40 19 42 21 8 23 9 24 10 25
REMARK SMILES IDX 11 26 19 27 12 28 17 29 13 30 15 31 18 32 14 34 16 36 36 38
REMARK SMILES IDX 21 40 22 41 23 42 24 43 32 44 25 45 30 46 26 47 28 48 31 49
REMARK SMILES IDX 27 51 29 53 34 55
REMARK H PARENT 44 18 40 20 42 22 18 33 14 35 16 37 36 39 31 50 27 52 29 54
REMARK H PARENT 34 56
REMARK Flexibility Score: inf
ROOT
ATOM      1  O   UNL     1     182.631 181.033 173.900  1.00  0.00    -0.330 OA
ATOM      2  C   UNL     1     180.985 182.841 172.394  1.00  0.00     0.193 C 
ATOM      3  C   UNL     1     181.657 183.244 173.706  1.00  0.00     0.179 C 
ATOM      4  C   UNL     1     180.835 181.324 172.291  1.00  0.00     0.277 C 
ATOM      5  C   UNL     1     182.931 182.428 173.936  1.00  0.00     0.192 C 
ATOM      6  C   UNL     1     182.144 180.611 172.628  1.00  0.00     0.355 C 
ENDROOT
BRANCH   5   7
ATOM      7  C   UNL     1     183.557 182.729 175.295  1.00  0.00     0.268 C 
BRANCH   7   8
ATOM      8  O   UNL     1     184.495 183.777 175.138  1.00  0.00    -0.459 OA
BRANCH   8   9
ATOM      9  C   UNL     1     185.621 183.477 174.428  1.00  0.00     0.338 C 
ATOM     10  O   UNL     1     186.215 182.411 174.448  1.00  0.00    -0.246 OA
BRANCH   9  11
ATOM     11  C   UNL     1     186.053 184.634 173.603  1.00  0.00     0.067 A 
ATOM     12  C   UNL     1     187.164 185.386 173.984  1.00  0.00     0.066 A 
ATOM     13  C   UNL     1     185.351 184.966 172.444  1.00  0.00     0.066 A 
ATOM     14  C   UNL     1     187.573 186.470 173.208  1.00  0.00     0.162 A 
ATOM     15  C   UNL     1     185.759 186.050 171.668  1.00  0.00     0.162 A 
ATOM     16  C   UNL     1     186.870 186.802 172.050  1.00  0.00     0.200 A 
BRANCH  14  17
ATOM     17  O   UNL     1     188.660 187.197 173.590  1.00  0.00    -0.504 OA
ATOM     18  H   UNL     1     189.257 186.628 174.106  1.00  0.00     0.293 HD
ENDBRANCH  14  17
BRANCH  15  19
ATOM     19  O   UNL     1     185.064 186.364 170.539  1.00  0.00    -0.504 OA
ATOM     20  H   UNL     1     184.480 187.120 170.726  1.00  0.00     0.293 HD
ENDBRANCH  15  19
BRANCH  16  21
ATOM     21  O   UNL     1     187.268 187.864 171.291  1.00  0.00    -0.502 OA
ATOM     22  H   UNL     1     186.522 188.135 170.729  1.00  0.00     0.293 HD
ENDBRANCH  16  21
ENDBRANCH   9  11
ENDBRANCH   8   9
ENDBRANCH   7   8
ENDBRANCH   5   7
BRANCH   6  23
ATOM     23  O   UNL     1     181.888 179.207 172.650  1.00  0.00    -0.428 OA
BRANCH  23  24
ATOM     24  C   UNL     1     182.840 178.422 172.080  1.00  0.00     0.340 C 
ATOM     25  O   UNL     1     183.962 178.774 171.750  1.00  0.00    -0.246 OA
BRANCH  24  26
ATOM     26  C   UNL     1     182.334 177.038 171.897  1.00  0.00     0.067 A 
ATOM     27  C   UNL     1     182.747 176.284 170.798  1.00  0.00     0.066 A 
ATOM     28  C   UNL     1     181.448 176.491 172.825  1.00  0.00     0.066 A 
ATOM     29  C   UNL     1     182.273 174.983 170.629  1.00  0.00     0.162 A 
ATOM     30  C   UNL     1     180.974 175.191 172.654  1.00  0.00     0.162 A 
ATOM     31  C   UNL     1     181.387 174.437 171.556  1.00  0.00     0.200 A 
BRANCH  29  32
ATOM     32  O   UNL     1     182.684 174.256 169.552  1.00  0.00    -0.504 OA
ATOM     33  H   UNL     1     182.584 173.309 169.750  1.00  0.00     0.293 HD
ENDBRANCH  29  32
BRANCH  30  34
ATOM     34  O   UNL     1     180.109 174.669 173.568  1.00  0.00    -0.504 OA
ATOM     35  H   UNL     1     179.404 175.316 173.744  1.00  0.00     0.293 HD
ENDBRANCH  30  34
BRANCH  31  36
ATOM     36  O   UNL     1     180.922 173.166 171.389  1.00  0.00    -0.502 OA
ATOM     37  H   UNL     1     180.742 173.026 170.443  1.00  0.00     0.293 HD
ENDBRANCH  31  36
ENDBRANCH  24  26
ENDBRANCH  23  24
ENDBRANCH   6  23
BRANCH   3  38
ATOM     38  O   UNL     1     181.986 184.630 173.662  1.00  0.00    -0.387 OA
ATOM     39  H   UNL     1     181.509 185.074 174.384  1.00  0.00     0.211 HD
ENDBRANCH   3  38
BRANCH   4  40
ATOM     40  O   UNL     1     180.464 180.973 170.959  1.00  0.00    -0.449 OA
BRANCH  40  41
ATOM     41  C   UNL     1     179.134 180.796 170.740  1.00  0.00     0.339 C 
ATOM     42  O   UNL     1     178.344 181.652 170.372  1.00  0.00    -0.246 OA
BRANCH  41  43
ATOM     43  C   UNL     1     178.743 179.389 171.010  1.00  0.00     0.067 A 
ATOM     44  C   UNL     1     179.092 178.384 170.110  1.00  0.00     0.066 A 
ATOM     45  C   UNL     1     178.032 179.074 172.168  1.00  0.00     0.066 A 
ATOM     46  C   UNL     1     178.728 177.061 170.365  1.00  0.00     0.162 A 
ATOM     47  C   UNL     1     177.668 177.752 172.423  1.00  0.00     0.162 A 
ATOM     48  C   UNL     1     178.016 176.746 171.523  1.00  0.00     0.200 A 
BRANCH  46  49
ATOM     49  O   UNL     1     179.073 176.087 169.477  1.00  0.00    -0.504 OA
ATOM     50  H   UNL     1     179.909 176.335 169.043  1.00  0.00     0.293 HD
ENDBRANCH  46  49
BRANCH  47  51
ATOM     51  O   UNL     1     176.973 177.457 173.558  1.00  0.00    -0.504 OA
ATOM     52  H   UNL     1     176.598 176.563 173.478  1.00  0.00     0.293 HD
ENDBRANCH  47  51
BRANCH  48  53
ATOM     53  O   UNL     1     177.658 175.453 171.772  1.00  0.00    -0.502 OA
ATOM     54  H   UNL     1     177.460 175.021 170.923  1.00  0.00     0.293 HD
ENDBRANCH  48  53
ENDBRANCH  41  43
ENDBRANCH  40  41
ENDBRANCH   4  40
BRANCH   2  55
ATOM     55  O   UNL     1     179.693 183.451 172.353  1.00  0.00    -0.386 OA
ATOM     56  H   UNL     1     179.059 182.793 172.023  1.00  0.00     0.211 HD
ENDBRANCH   2  55
TORSDOF 21
