MODEL 1
REMARK VINA RESULT:      -8.9      0.000      0.000
REMARK  11 active torsions:
REMARK  status: ('A' for Active; 'I' for Inactive)
REMARK    1  A    between atoms: O_1  and  C_9 
REMARK    2  A    between atoms: O_2  and  C_19 
REMARK    3  A    between atoms: O_3  and  C_26 
REMARK    4  A    between atoms: O_4  and  C_27 
REMARK    5  A    between atoms: O_6  and  C_28 
REMARK    6  A    between atoms: O_7  and  C_32 
REMARK    7  A    between atoms: C_10  and  C_19 
REMARK    8  A    between atoms: C_19  and  C_27 
REMARK    9  A    between atoms: C_27  and  C_30 
REMARK   10  A    between atoms: C_30  and  C_31 
REMARK   11  A    between atoms: C_31  and  C_32 
ROOT
HETATM    1  O   UNK     0     150.759 151.874 144.203  0.00  0.00    -0.384 OA
HETATM    2  H   UNK     0     150.372 151.332 143.494  0.00  0.00     0.211 HD
ENDROOT
BRANCH   1   3
HETATM    3  C   UNK     0     151.856 151.129 144.780  0.00  0.00     0.089 C 
HETATM    4  C   UNK     0     151.793 151.236 146.326  0.00  0.00    -0.002 C 
HETATM    5  C   UNK     0     152.034 152.755 146.521  0.00  0.00     0.034 C 
HETATM    6  C   UNK     0     150.406 150.759 146.794  0.00  0.00     0.014 C 
HETATM    7  C   UNK     0     152.897 150.406 147.035  0.00  0.00     0.019 C 
HETATM    8  C   UNK     0     153.120 153.092 145.474  0.00  0.00     0.012 C 
HETATM    9  C   UNK     0     153.121 151.936 144.450  0.00  0.00     0.044 C 
HETATM   10  C   UNK     0     150.146 149.308 146.359  0.00  0.00     0.011 C 
HETATM   11  C   UNK     0     150.409 149.010 144.850  0.00  0.00     0.027 C 
HETATM   12  C   UNK     0     150.357 147.466 144.524  0.00  0.00    -0.023 C 
HETATM   13  C   UNK     0     151.671 149.702 144.310  0.00  0.00    -0.037 C 
HETATM   14  C   UNK     0     150.820 147.215 143.061  0.00  0.00     0.071 C 
HETATM   15  C   UNK     0     148.920 146.894 144.692  0.00  0.00     0.044 C 
HETATM   16  C   UNK     0     151.282 146.651 145.468  0.00  0.00     0.016 C 
HETATM   17  C   UNK     0     149.822 147.721 142.005  0.00  0.00     0.047 C 
HETATM   18  C   UNK     0     152.183 147.829 142.805  0.00  0.00     0.154 C 
HETATM   19  C   UNK     0     148.428 147.132 142.216  0.00  0.00     0.147 C 
HETATM   20  C   UNK     0     147.930 147.399 143.637  0.00  0.00     0.147 C 
HETATM   21  O   UNK     0     152.998 147.300 142.050  0.00  0.00    -0.293 OA
HETATM   22  C   UNK     0     152.499 149.139 143.417  0.00  0.00     0.057 C 
BRANCH   5  23
HETATM   23  C   UNK     0     152.407 153.210 147.926  0.00  0.00     0.084 C 
HETATM   24  C   UNK     0     153.903 152.959 148.175  0.00  0.00     0.049 C 
BRANCH  23  25
HETATM   25  O   UNK     0     152.189 154.624 148.017  0.00  0.00    -0.387 OA
HETATM   26  H   UNK     0     152.118 154.872 148.954  0.00  0.00     0.210 HD
ENDBRANCH  23  25
BRANCH  23  27
HETATM   27  C   UNK     0     151.545 152.516 149.016  0.00  0.00     0.152 C 
BRANCH  27  28
HETATM   28  O   UNK     0     150.430 153.350 149.349  0.00  0.00    -0.393 OA
HETATM   29  H   UNK     0     150.379 154.050 148.674  0.00  0.00     0.210 HD
ENDBRANCH  27  28
BRANCH  27  30
HETATM   30  C   UNK     0     152.310 152.190 150.314  0.00  0.00     0.037 C 
BRANCH  30  31
HETATM   31  C   UNK     0     152.240 153.345 151.331  0.00  0.00     0.040 C 
BRANCH  31  32
HETATM   32  C   UNK     0     153.487 153.484 152.228  0.00  0.00     0.051 C 
HETATM   33  C   UNK     0     154.594 154.213 151.457  0.00  0.00     0.045 C 
HETATM   34  C   UNK     0     153.191 154.220 153.536  0.00  0.00     0.045 C 
BRANCH  32  35
HETATM   35  O   UNK     0     153.963 152.174 152.543  0.00  0.00    -0.391 OA
HETATM   36  H   UNK     0     153.281 151.728 153.073  0.00  0.00     0.210 HD
ENDBRANCH  32  35
ENDBRANCH  31  32
ENDBRANCH  30  31
ENDBRANCH  27  30
ENDBRANCH  23  27
ENDBRANCH   5  23
BRANCH  19  37
HETATM   37  O   UNK     0     148.477 145.722 141.990  0.00  0.00    -0.393 OA
HETATM   38  H   UNK     0     149.327 145.522 141.563  0.00  0.00     0.210 HD
ENDBRANCH  19  37
BRANCH  20  39
HETATM   39  O   UNK     0     146.671 146.755 143.815  0.00  0.00    -0.393 OA
HETATM   40  H   UNK     0     146.709 146.267 144.656  0.00  0.00     0.210 HD
ENDBRANCH  20  39
ENDBRANCH   1   3
TORSDOF 11
ENDMDL
MODEL 2
REMARK VINA RESULT:      -8.8      5.387      8.690
REMARK  11 active torsions:
REMARK  status: ('A' for Active; 'I' for Inactive)
REMARK    1  A    between atoms: O_1  and  C_9 
REMARK    2  A    between atoms: O_2  and  C_19 
REMARK    3  A    between atoms: O_3  and  C_26 
REMARK    4  A    between atoms: O_4  and  C_27 
REMARK    5  A    between atoms: O_6  and  C_28 
REMARK    6  A    between atoms: O_7  and  C_32 
REMARK    7  A    between atoms: C_10  and  C_19 
REMARK    8  A    between atoms: C_19  and  C_27 
REMARK    9  A    between atoms: C_27  and  C_30 
REMARK   10  A    between atoms: C_30  and  C_31 
REMARK   11  A    between atoms: C_31  and  C_32 
ROOT
HETATM    1  O   UNK     0     148.665 153.982 149.437  0.00  0.00    -0.384 OA
HETATM    2  H   UNK     0     148.520 153.095 149.066  0.00  0.00     0.211 HD
ENDROOT
BRANCH   1   3
HETATM    3  C   UNK     0     149.409 154.752 148.466  0.00  0.00     0.089 C 
HETATM    4  C   UNK     0     149.119 156.261 148.673  0.00  0.00    -0.002 C 
HETATM    5  C   UNK     0     147.607 156.314 148.334  0.00  0.00     0.034 C 
HETATM    6  C   UNK     0     149.443 156.627 150.132  0.00  0.00     0.014 C 
HETATM    7  C   UNK     0     149.932 157.171 147.713  0.00  0.00     0.019 C 
HETATM    8  C   UNK     0     147.468 155.359 147.126  0.00  0.00     0.012 C 
HETATM    9  C   UNK     0     148.733 154.473 147.114  0.00  0.00     0.044 C 
HETATM   10  C   UNK     0     150.915 156.328 150.462  0.00  0.00     0.011 C 
HETATM   11  C   UNK     0     151.404 154.898 150.074  0.00  0.00     0.027 C 
HETATM   12  C   UNK     0     152.968 154.738 150.215  0.00  0.00    -0.023 C 
HETATM   13  C   UNK     0     150.866 154.424 148.715  0.00  0.00    -0.037 C 
HETATM   14  C   UNK     0     153.419 153.370 149.631  0.00  0.00     0.071 C 
HETATM   15  C   UNK     0     153.420 154.812 151.702  0.00  0.00     0.044 C 
HETATM   16  C   UNK     0     153.727 155.860 149.455  0.00  0.00     0.016 C 
HETATM   17  C   UNK     0     152.974 152.164 150.476  0.00  0.00     0.047 C 
HETATM   18  C   UNK     0     152.932 153.196 148.205  0.00  0.00     0.154 C 
HETATM   19  C   UNK     0     153.440 152.286 151.926  0.00  0.00     0.147 C 
HETATM   20  C   UNK     0     152.977 153.608 152.539  0.00  0.00     0.147 C 
HETATM   21  O   UNK     0     153.599 152.596 147.363  0.00  0.00    -0.293 OA
HETATM   22  C   UNK     0     151.584 153.692 147.849  0.00  0.00     0.057 C 
BRANCH   5  23
HETATM   23  C   UNK     0     147.016 157.693 148.067  0.00  0.00     0.084 C 
HETATM   24  C   UNK     0     147.995 158.525 147.222  0.00  0.00     0.049 C 
BRANCH  23  25
HETATM   25  O   UNK     0     145.817 157.531 147.299  0.00  0.00    -0.387 OA
HETATM   26  H   UNK     0     146.048 157.170 146.427  0.00  0.00     0.210 HD
ENDBRANCH  23  25
BRANCH  23  27
HETATM   27  C   UNK     0     146.653 158.440 149.380  0.00  0.00     0.152 C 
BRANCH  27  28
HETATM   28  O   UNK     0     145.293 158.881 149.320  0.00  0.00    -0.393 OA
HETATM   29  H   UNK     0     145.190 159.392 148.497  0.00  0.00     0.210 HD
ENDBRANCH  27  28
BRANCH  27  30
HETATM   30  C   UNK     0     147.546 159.659 149.681  0.00  0.00     0.037 C 
BRANCH  30  31
HETATM   31  C   UNK     0     148.048 159.661 151.137  0.00  0.00     0.040 C 
BRANCH  31  32
HETATM   32  C   UNK     0     149.152 160.698 151.432  0.00  0.00     0.051 C 
HETATM   33  C   UNK     0     150.416 159.978 151.914  0.00  0.00     0.045 C 
HETATM   34  C   UNK     0     149.479 161.568 150.216  0.00  0.00     0.045 C 
BRANCH  32  35
HETATM   35  O   UNK     0     148.700 161.547 152.489  0.00  0.00    -0.391 OA
HETATM   36  H   UNK     0     149.448 162.104 152.765  0.00  0.00     0.210 HD
ENDBRANCH  32  35
ENDBRANCH  31  32
ENDBRANCH  30  31
ENDBRANCH  27  30
ENDBRANCH  23  27
ENDBRANCH   5  23
BRANCH  19  37
HETATM   37  O   UNK     0     154.867 152.223 151.966  0.00  0.00    -0.393 OA
HETATM   38  H   UNK     0     155.207 153.084 151.668  0.00  0.00     0.210 HD
ENDBRANCH  19  37
BRANCH  20  39
HETATM   39  O   UNK     0     153.510 153.719 153.857  0.00  0.00    -0.393 OA
HETATM   40  H   UNK     0     153.239 154.585 154.210  0.00  0.00     0.210 HD
ENDBRANCH  20  39
ENDBRANCH   1   3
TORSDOF 11
ENDMDL
MODEL 3
REMARK VINA RESULT:      -8.8      5.044      9.411
REMARK  11 active torsions:
REMARK  status: ('A' for Active; 'I' for Inactive)
REMARK    1  A    between atoms: O_1  and  C_9 
REMARK    2  A    between atoms: O_2  and  C_19 
REMARK    3  A    between atoms: O_3  and  C_26 
REMARK    4  A    between atoms: O_4  and  C_27 
REMARK    5  A    between atoms: O_6  and  C_28 
REMARK    6  A    between atoms: O_7  and  C_32 
REMARK    7  A    between atoms: C_10  and  C_19 
REMARK    8  A    between atoms: C_19  and  C_27 
REMARK    9  A    between atoms: C_27  and  C_30 
REMARK   10  A    between atoms: C_30  and  C_31 
REMARK   11  A    between atoms: C_31  and  C_32 
ROOT
HETATM    1  O   UNK     0     151.848 153.034 148.647  0.00  0.00    -0.384 OA
HETATM    2  H   UNK     0     150.991 152.631 148.872  0.00  0.00     0.211 HD
ENDROOT
BRANCH   1   3
HETATM    3  C   UNK     0     151.597 154.388 148.205  0.00  0.00     0.089 C 
HETATM    4  C   UNK     0     150.126 154.767 148.518  0.00  0.00    -0.002 C 
HETATM    5  C   UNK     0     149.370 153.771 147.603  0.00  0.00     0.034 C 
HETATM    6  C   UNK     0     149.873 154.549 150.021  0.00  0.00     0.014 C 
HETATM    7  C   UNK     0     149.785 156.234 148.139  0.00  0.00     0.019 C 
HETATM    8  C   UNK     0     150.211 153.751 146.306  0.00  0.00     0.012 C 
HETATM    9  C   UNK     0     151.597 154.327 146.670  0.00  0.00     0.044 C 
HETATM   10  C   UNK     0     150.826 155.405 150.871  0.00  0.00     0.011 C 
HETATM   11  C   UNK     0     152.334 155.295 150.490  0.00  0.00     0.027 C 
HETATM   12  C   UNK     0     153.222 156.370 151.232  0.00  0.00    -0.023 C 
HETATM   13  C   UNK     0     152.573 155.255 148.973  0.00  0.00    -0.037 C 
HETATM   14  C   UNK     0     154.671 156.345 150.669  0.00  0.00     0.071 C 
HETATM   15  C   UNK     0     153.283 156.104 152.763  0.00  0.00     0.044 C 
HETATM   16  C   UNK     0     152.658 157.804 151.044  0.00  0.00     0.016 C 
HETATM   17  C   UNK     0     155.456 155.077 151.049  0.00  0.00     0.047 C 
HETATM   18  C   UNK     0     154.676 156.510 149.162  0.00  0.00     0.154 C 
HETATM   19  C   UNK     0     155.484 154.860 152.561  0.00  0.00     0.147 C 
HETATM   20  C   UNK     0     154.068 154.841 153.137  0.00  0.00     0.147 C 
HETATM   21  O   UNK     0     155.575 157.117 148.581  0.00  0.00    -0.293 OA
HETATM   22  C   UNK     0     153.613 155.851 148.371  0.00  0.00     0.057 C 
BRANCH   5  23
HETATM   23  C   UNK     0     147.897 154.065 147.347  0.00  0.00     0.084 C 
HETATM   24  C   UNK     0     147.758 155.055 146.178  0.00  0.00     0.049 C 
BRANCH  23  25
HETATM   25  O   UNK     0     147.253 152.845 146.953  0.00  0.00    -0.387 OA
HETATM   26  H   UNK     0     147.731 152.467 146.196  0.00  0.00     0.210 HD
ENDBRANCH  23  25
BRANCH  23  27
HETATM   27  C   UNK     0     147.177 154.605 148.612  0.00  0.00     0.152 C 
BRANCH  27  28
HETATM   28  O   UNK     0     146.592 153.516 149.333  0.00  0.00    -0.393 OA
HETATM   29  H   UNK     0     147.271 152.823 149.414  0.00  0.00     0.210 HD
ENDBRANCH  27  28
BRANCH  27  30
HETATM   30  C   UNK     0     146.074 155.640 148.319  0.00  0.00     0.037 C 
BRANCH  30  31
HETATM   31  C   UNK     0     145.804 156.555 149.528  0.00  0.00     0.040 C 
BRANCH  31  32
HETATM   32  C   UNK     0     146.301 158.006 149.355  0.00  0.00     0.051 C 
HETATM   33  C   UNK     0     147.257 158.360 150.499  0.00  0.00     0.045 C 
HETATM   34  C   UNK     0     146.992 158.234 148.009  0.00  0.00     0.045 C 
BRANCH  32  35
HETATM   35  O   UNK     0     145.174 158.880 149.440  0.00  0.00    -0.391 OA
HETATM   36  H   UNK     0     145.502 159.795 149.414  0.00  0.00     0.210 HD
ENDBRANCH  32  35
ENDBRANCH  31  32
ENDBRANCH  30  31
ENDBRANCH  27  30
ENDBRANCH  23  27
ENDBRANCH   5  23
BRANCH  19  37
HETATM   37  O   UNK     0     156.227 155.917 153.171  0.00  0.00    -0.393 OA
HETATM   38  H   UNK     0     157.094 155.957 152.734  0.00  0.00     0.210 HD
ENDBRANCH  19  37
BRANCH  20  39
HETATM   39  O   UNK     0     154.146 154.729 154.556  0.00  0.00    -0.393 OA
HETATM   40  H   UNK     0     154.482 153.840 154.761  0.00  0.00     0.210 HD
ENDBRANCH  20  39
ENDBRANCH   1   3
TORSDOF 11
ENDMDL
MODEL 4
REMARK VINA RESULT:      -8.7      2.181      3.594
REMARK  11 active torsions:
REMARK  status: ('A' for Active; 'I' for Inactive)
REMARK    1  A    between atoms: O_1  and  C_9 
REMARK    2  A    between atoms: O_2  and  C_19 
REMARK    3  A    between atoms: O_3  and  C_26 
REMARK    4  A    between atoms: O_4  and  C_27 
REMARK    5  A    between atoms: O_6  and  C_28 
REMARK    6  A    between atoms: O_7  and  C_32 
REMARK    7  A    between atoms: C_10  and  C_19 
REMARK    8  A    between atoms: C_19  and  C_27 
REMARK    9  A    between atoms: C_27  and  C_30 
REMARK   10  A    between atoms: C_30  and  C_31 
REMARK   11  A    between atoms: C_31  and  C_32 
ROOT
HETATM    1  O   UNK     0     150.301 150.830 147.390  0.00  0.00    -0.384 OA
HETATM    2  H   UNK     0     149.530 151.201 147.855  0.00  0.00     0.211 HD
ENDROOT
BRANCH   1   3
HETATM    3  C   UNK     0     150.964 151.913 146.700  0.00  0.00     0.089 C 
HETATM    4  C   UNK     0     152.154 152.418 147.557  0.00  0.00    -0.002 C 
HETATM    5  C   UNK     0     151.404 152.970 148.796  0.00  0.00     0.034 C 
HETATM    6  C   UNK     0     153.076 151.224 147.867  0.00  0.00     0.014 C 
HETATM    7  C   UNK     0     152.969 153.540 146.858  0.00  0.00     0.019 C 
HETATM    8  C   UNK     0     150.158 153.659 148.194  0.00  0.00     0.012 C 
HETATM    9  C   UNK     0     149.991 153.100 146.764  0.00  0.00     0.044 C 
HETATM   10  C   UNK     0     153.599 150.581 146.572  0.00  0.00     0.011 C 
HETATM   11  C   UNK     0     152.507 150.241 145.512  0.00  0.00     0.027 C 
HETATM   12  C   UNK     0     153.128 149.811 144.125  0.00  0.00    -0.023 C 
HETATM   13  C   UNK     0     151.431 151.330 145.382  0.00  0.00    -0.037 C 
HETATM   14  C   UNK     0     152.007 149.679 143.057  0.00  0.00     0.071 C 
HETATM   15  C   UNK     0     153.873 148.450 144.229  0.00  0.00     0.044 C 
HETATM   16  C   UNK     0     154.159 150.854 143.614  0.00  0.00     0.016 C 
HETATM   17  C   UNK     0     151.075 148.477 143.289  0.00  0.00     0.047 C 
HETATM   18  C   UNK     0     151.181 150.948 142.968  0.00  0.00     0.154 C 
HETATM   19  C   UNK     0     151.855 147.167 143.385  0.00  0.00     0.147 C 
HETATM   20  C   UNK     0     152.942 147.255 144.458  0.00  0.00     0.147 C 
HETATM   21  O   UNK     0     150.713 151.342 141.901  0.00  0.00    -0.293 OA
HETATM   22  C   UNK     0     150.868 151.681 144.216  0.00  0.00     0.057 C 
BRANCH   5  23
HETATM   23  C   UNK     0     152.197 153.886 149.719  0.00  0.00     0.084 C 
HETATM   24  C   UNK     0     152.137 155.331 149.196  0.00  0.00     0.049 C 
BRANCH  23  25
HETATM   25  O   UNK     0     151.577 153.873 151.012  0.00  0.00    -0.387 OA
HETATM   26  H   UNK     0     151.813 153.047 151.466  0.00  0.00     0.210 HD
ENDBRANCH  23  25
BRANCH  23  27
HETATM   27  C   UNK     0     153.670 153.423 149.883  0.00  0.00     0.152 C 
BRANCH  27  28
HETATM   28  O   UNK     0     153.792 152.621 151.063  0.00  0.00    -0.393 OA
HETATM   29  H   UNK     0     154.319 151.837 150.828  0.00  0.00     0.210 HD
ENDBRANCH  27  28
BRANCH  27  30
HETATM   30  C   UNK     0     154.689 154.574 149.973  0.00  0.00     0.037 C 
BRANCH  30  31
HETATM   31  C   UNK     0     155.326 154.674 151.372  0.00  0.00     0.040 C 
BRANCH  31  32
HETATM   32  C   UNK     0     154.986 155.969 152.139  0.00  0.00     0.051 C 
HETATM   33  C   UNK     0     154.730 157.104 151.140  0.00  0.00     0.045 C 
HETATM   34  C   UNK     0     153.777 155.805 153.062  0.00  0.00     0.045 C 
BRANCH  32  35
HETATM   35  O   UNK     0     156.117 156.331 152.933  0.00  0.00    -0.391 OA
HETATM   36  H   UNK     0     156.494 155.517 153.306  0.00  0.00     0.210 HD
ENDBRANCH  32  35
ENDBRANCH  31  32
ENDBRANCH  30  31
ENDBRANCH  27  30
ENDBRANCH  23  27
ENDBRANCH   5  23
BRANCH  19  37
HETATM   37  O   UNK     0     152.462 146.889 142.122  0.00  0.00    -0.393 OA
HETATM   38  H   UNK     0     153.145 147.564 141.970  0.00  0.00     0.210 HD
ENDBRANCH  19  37
BRANCH  20  39
HETATM   39  O   UNK     0     153.701 146.048 144.449  0.00  0.00    -0.393 OA
HETATM   40  H   UNK     0     153.608 145.651 143.566  0.00  0.00     0.210 HD
ENDBRANCH  20  39
ENDBRANCH   1   3
TORSDOF 11
ENDMDL
MODEL 5
REMARK VINA RESULT:      -8.6      2.347      8.962
REMARK  11 active torsions:
REMARK  status: ('A' for Active; 'I' for Inactive)
REMARK    1  A    between atoms: O_1  and  C_9 
REMARK    2  A    between atoms: O_2  and  C_19 
REMARK    3  A    between atoms: O_3  and  C_26 
REMARK    4  A    between atoms: O_4  and  C_27 
REMARK    5  A    between atoms: O_6  and  C_28 
REMARK    6  A    between atoms: O_7  and  C_32 
REMARK    7  A    between atoms: C_10  and  C_19 
REMARK    8  A    between atoms: C_19  and  C_27 
REMARK    9  A    between atoms: C_27  and  C_30 
REMARK   10  A    between atoms: C_30  and  C_31 
REMARK   11  A    between atoms: C_31  and  C_32 
ROOT
HETATM    1  O   UNK     0     153.999 152.241 147.737  0.00  0.00    -0.384 OA
HETATM    2  H   UNK     0     154.810 152.692 148.030  0.00  0.00     0.211 HD
ENDROOT
BRANCH   1   3
HETATM    3  C   UNK     0     153.071 153.252 147.282  0.00  0.00     0.089 C 
HETATM    4  C   UNK     0     151.643 152.649 147.220  0.00  0.00    -0.002 C 
HETATM    5  C   UNK     0     151.829 151.577 146.117  0.00  0.00     0.034 C 
HETATM    6  C   UNK     0     151.297 152.067 148.603  0.00  0.00     0.014 C 
HETATM    7  C   UNK     0     150.565 153.688 146.806  0.00  0.00     0.019 C 
HETATM    8  C   UNK     0     152.736 152.274 145.077  0.00  0.00     0.012 C 
HETATM    9  C   UNK     0     153.395 153.471 145.796  0.00  0.00     0.044 C 
HETATM   10  C   UNK     0     151.360 153.152 149.690  0.00  0.00     0.011 C 
HETATM   11  C   UNK     0     152.667 154.003 149.703  0.00  0.00     0.027 C 
HETATM   12  C   UNK     0     152.568 155.243 150.675  0.00  0.00    -0.023 C 
HETATM   13  C   UNK     0     153.161 154.373 148.295  0.00  0.00    -0.037 C 
HETATM   14  C   UNK     0     153.812 156.159 150.499  0.00  0.00     0.071 C 
HETATM   15  C   UNK     0     152.489 154.800 152.163  0.00  0.00     0.044 C 
HETATM   16  C   UNK     0     151.300 156.094 150.388  0.00  0.00     0.016 C 
HETATM   17  C   UNK     0     155.114 155.536 151.031  0.00  0.00     0.047 C 
HETATM   18  C   UNK     0     153.998 156.557 149.047  0.00  0.00     0.154 C 
HETATM   19  C   UNK     0     154.983 155.116 152.494  0.00  0.00     0.147 C 
HETATM   20  C   UNK     0     153.789 154.182 152.691  0.00  0.00     0.147 C 
HETATM   21  O   UNK     0     154.438 157.662 148.731  0.00  0.00    -0.293 OA
HETATM   22  C   UNK     0     153.720 155.555 147.994  0.00  0.00     0.057 C 
BRANCH   5  23
HETATM   23  C   UNK     0     150.558 151.004 145.502  0.00  0.00     0.084 C 
HETATM   24  C   UNK     0     150.026 149.858 146.378  0.00  0.00     0.049 C 
BRANCH  23  25
HETATM   25  O   UNK     0     149.559 152.032 145.488  0.00  0.00    -0.387 OA
HETATM   26  H   UNK     0     149.957 152.854 145.157  0.00  0.00     0.210 HD
ENDBRANCH  23  25
BRANCH  23  27
HETATM   27  C   UNK     0     150.777 150.522 144.042  0.00  0.00     0.152 C 
BRANCH  27  28
HETATM   28  O   UNK     0     149.521 150.475 143.359  0.00  0.00    -0.393 OA
HETATM   29  H   UNK     0     149.078 151.330 143.504  0.00  0.00     0.210 HD
ENDBRANCH  27  28
BRANCH  27  30
HETATM   30  C   UNK     0     151.444 149.138 143.926  0.00  0.00     0.037 C 
BRANCH  30  31
HETATM   31  C   UNK     0     152.769 149.199 143.142  0.00  0.00     0.040 C 
BRANCH  31  32
HETATM   32  C   UNK     0     153.953 148.491 143.832  0.00  0.00     0.051 C 
HETATM   33  C   UNK     0     153.759 148.530 145.352  0.00  0.00     0.045 C 
HETATM   34  C   UNK     0     154.124 147.044 143.366  0.00  0.00     0.045 C 
BRANCH  32  35
HETATM   35  O   UNK     0     155.149 149.211 143.524  0.00  0.00    -0.391 OA
HETATM   36  H   UNK     0     154.997 149.703 142.700  0.00  0.00     0.210 HD
ENDBRANCH  32  35
ENDBRANCH  31  32
ENDBRANCH  30  31
ENDBRANCH  27  30
ENDBRANCH  23  27
ENDBRANCH   5  23
BRANCH  19  37
HETATM   37  O   UNK     0     154.807 156.282 153.302  0.00  0.00    -0.393 OA
HETATM   38  H   UNK     0     153.991 156.162 153.815  0.00  0.00     0.210 HD
ENDBRANCH  19  37
BRANCH  20  39
HETATM   39  O   UNK     0     153.651 153.891 154.079  0.00  0.00    -0.393 OA
HETATM   40  H   UNK     0     153.525 154.736 154.544  0.00  0.00     0.210 HD
ENDBRANCH  20  39
ENDBRANCH   1   3
TORSDOF 11
ENDMDL
MODEL 6
REMARK VINA RESULT:      -8.5      5.396      7.909
REMARK  11 active torsions:
REMARK  status: ('A' for Active; 'I' for Inactive)
REMARK    1  A    between atoms: O_1  and  C_9 
REMARK    2  A    between atoms: O_2  and  C_19 
REMARK    3  A    between atoms: O_3  and  C_26 
REMARK    4  A    between atoms: O_4  and  C_27 
REMARK    5  A    between atoms: O_6  and  C_28 
REMARK    6  A    between atoms: O_7  and  C_32 
REMARK    7  A    between atoms: C_10  and  C_19 
REMARK    8  A    between atoms: C_19  and  C_27 
REMARK    9  A    between atoms: C_27  and  C_30 
REMARK   10  A    between atoms: C_30  and  C_31 
REMARK   11  A    between atoms: C_31  and  C_32 
ROOT
HETATM    1  O   UNK     0     152.186 156.011 148.567  0.00  0.00    -0.384 OA
HETATM    2  H   UNK     0     152.040 155.996 147.605  0.00  0.00     0.211 HD
ENDROOT
BRANCH   1   3
HETATM    3  C   UNK     0     151.733 154.746 149.101  0.00  0.00     0.089 C 
HETATM    4  C   UNK     0     152.015 154.702 150.626  0.00  0.00    -0.002 C 
HETATM    5  C   UNK     0     153.564 154.747 150.635  0.00  0.00     0.034 C 
HETATM    6  C   UNK     0     151.351 155.925 151.283  0.00  0.00     0.014 C 
HETATM    7  C   UNK     0     151.496 153.402 151.299  0.00  0.00     0.019 C 
HETATM    8  C   UNK     0     153.966 153.838 149.451  0.00  0.00     0.012 C 
HETATM    9  C   UNK     0     152.713 153.695 148.559  0.00  0.00     0.044 C 
HETATM   10  C   UNK     0     149.834 155.932 151.031  0.00  0.00     0.011 C 
HETATM   11  C   UNK     0     149.408 155.740 149.543  0.00  0.00     0.027 C 
HETATM   12  C   UNK     0     147.853 155.516 149.387  0.00  0.00    -0.023 C 
HETATM   13  C   UNK     0     150.249 154.687 148.805  0.00  0.00    -0.037 C 
HETATM   14  C   UNK     0     147.514 155.134 147.919  0.00  0.00     0.071 C 
HETATM   15  C   UNK     0     147.050 156.794 149.763  0.00  0.00     0.044 C 
HETATM   16  C   UNK     0     147.345 154.375 150.310  0.00  0.00     0.016 C 
HETATM   17  C   UNK     0     147.694 156.295 146.925  0.00  0.00     0.047 C 
HETATM   18  C   UNK     0     148.333 153.944 147.459  0.00  0.00     0.154 C 
HETATM   19  C   UNK     0     146.887 157.525 147.340  0.00  0.00     0.147 C 
HETATM   20  C   UNK     0     147.229 157.947 148.769  0.00  0.00     0.147 C 
HETATM   21  O   UNK     0     147.876 153.105 146.683  0.00  0.00    -0.293 OA
HETATM   22  C   UNK     0     149.744 153.841 147.894  0.00  0.00     0.057 C 
BRANCH   5  23
HETATM   23  C   UNK     0     154.249 154.356 151.938  0.00  0.00     0.084 C 
HETATM   24  C   UNK     0     153.193 154.094 153.024  0.00  0.00     0.049 C 
BRANCH  23  25
HETATM   25  O   UNK     0     154.959 153.129 151.727  0.00  0.00    -0.387 OA
HETATM   26  H   UNK     0     154.729 152.779 150.850  0.00  0.00     0.210 HD
ENDBRANCH  23  25
BRANCH  23  27
HETATM   27  C   UNK     0     155.268 155.429 152.411  0.00  0.00     0.152 C 
BRANCH  27  28
HETATM   28  O   UNK     0     155.880 155.004 153.633  0.00  0.00    -0.393 OA
HETATM   29  H   UNK     0     155.592 154.089 153.799  0.00  0.00     0.210 HD
ENDBRANCH  27  28
BRANCH  27  30
HETATM   30  C   UNK     0     154.656 156.826 152.636  0.00  0.00     0.037 C 
BRANCH  30  31
HETATM   31  C   UNK     0     155.545 157.945 152.062  0.00  0.00     0.040 C 
BRANCH  31  32
HETATM   32  C   UNK     0     155.028 158.560 150.745  0.00  0.00     0.051 C 
HETATM   33  C   UNK     0     155.433 157.666 149.568  0.00  0.00     0.045 C 
HETATM   34  C   UNK     0     153.512 158.764 150.748  0.00  0.00     0.045 C 
BRANCH  32  35
HETATM   35  O   UNK     0     155.656 159.832 150.566  0.00  0.00    -0.391 OA
HETATM   36  H   UNK     0     156.616 159.705 150.650  0.00  0.00     0.210 HD
ENDBRANCH  32  35
ENDBRANCH  31  32
ENDBRANCH  30  31
ENDBRANCH  27  30
ENDBRANCH  23  27
ENDBRANCH   5  23
BRANCH  19  37
HETATM   37  O   UNK     0     145.494 157.220 147.259  0.00  0.00    -0.393 OA
HETATM   38  H   UNK     0     145.180 157.509 146.386  0.00  0.00     0.210 HD
ENDBRANCH  19  37
BRANCH  20  39
HETATM   39  O   UNK     0     146.391 159.037 149.144  0.00  0.00    -0.393 OA
HETATM   40  H   UNK     0     145.477 158.705 149.177  0.00  0.00     0.210 HD
ENDBRANCH  20  39
ENDBRANCH   1   3
TORSDOF 11
ENDMDL
MODEL 7
REMARK VINA RESULT:      -8.5      2.367      9.468
REMARK  11 active torsions:
REMARK  status: ('A' for Active; 'I' for Inactive)
REMARK    1  A    between atoms: O_1  and  C_9 
REMARK    2  A    between atoms: O_2  and  C_19 
REMARK    3  A    between atoms: O_3  and  C_26 
REMARK    4  A    between atoms: O_4  and  C_27 
REMARK    5  A    between atoms: O_6  and  C_28 
REMARK    6  A    between atoms: O_7  and  C_32 
REMARK    7  A    between atoms: C_10  and  C_19 
REMARK    8  A    between atoms: C_19  and  C_27 
REMARK    9  A    between atoms: C_27  and  C_30 
REMARK   10  A    between atoms: C_30  and  C_31 
REMARK   11  A    between atoms: C_31  and  C_32 
ROOT
HETATM    1  O   UNK     0     154.164 152.751 148.010  0.00  0.00    -0.384 OA
HETATM    2  H   UNK     0     154.743 153.315 148.552  0.00  0.00     0.211 HD
ENDROOT
BRANCH   1   3
HETATM    3  C   UNK     0     153.016 153.540 147.622  0.00  0.00     0.089 C 
HETATM    4  C   UNK     0     151.732 152.680 147.754  0.00  0.00    -0.002 C 
HETATM    5  C   UNK     0     152.003 151.591 146.685  0.00  0.00     0.034 C 
HETATM    6  C   UNK     0     151.653 152.136 149.192  0.00  0.00     0.014 C 
HETATM    7  C   UNK     0     150.438 153.471 147.423  0.00  0.00     0.019 C 
HETATM    8  C   UNK     0     152.644 152.374 145.516  0.00  0.00     0.012 C 
HETATM    9  C   UNK     0     153.133 153.718 146.101  0.00  0.00     0.044 C 
HETATM   10  C   UNK     0     151.622 153.283 150.215  0.00  0.00     0.011 C 
HETATM   11  C   UNK     0     152.736 154.361 150.037  0.00  0.00     0.027 C 
HETATM   12  C   UNK     0     152.504 155.622 150.959  0.00  0.00    -0.023 C 
HETATM   13  C   UNK     0     152.997 154.723 148.567  0.00  0.00    -0.037 C 
HETATM   14  C   UNK     0     153.523 156.739 150.598  0.00  0.00     0.071 C 
HETATM   15  C   UNK     0     152.670 155.270 152.464  0.00  0.00     0.044 C 
HETATM   16  C   UNK     0     151.074 156.202 150.784  0.00  0.00     0.016 C 
HETATM   17  C   UNK     0     154.970 156.405 151.002  0.00  0.00     0.047 C 
HETATM   18  C   UNK     0     153.475 157.069 149.119  0.00  0.00     0.154 C 
HETATM   19  C   UNK     0     155.078 156.065 152.488  0.00  0.00     0.147 C 
HETATM   20  C   UNK     0     154.112 154.940 152.863  0.00  0.00     0.147 C 
HETATM   21  O   UNK     0     153.658 158.213 148.705  0.00  0.00    -0.293 OA
HETATM   22  C   UNK     0     153.284 155.965 148.151  0.00  0.00     0.057 C 
BRANCH   5  23
HETATM   23  C   UNK     0     150.807 150.753 146.248  0.00  0.00     0.084 C 
HETATM   24  C   UNK     0     151.280 149.356 145.814  0.00  0.00     0.049 C 
BRANCH  23  25
HETATM   25  O   UNK     0     149.939 150.580 147.376  0.00  0.00    -0.387 OA
HETATM   26  H   UNK     0     149.077 150.978 147.174  0.00  0.00     0.210 HD
ENDBRANCH  23  25
BRANCH  23  27
HETATM   27  C   UNK     0     149.995 151.435 145.113  0.00  0.00     0.152 C 
BRANCH  27  28
HETATM   28  O   UNK     0     148.664 151.700 145.568  0.00  0.00    -0.393 OA
HETATM   29  H   UNK     0     148.735 152.205 146.398  0.00  0.00     0.210 HD
ENDBRANCH  27  28
BRANCH  27  30
HETATM   30  C   UNK     0     149.909 150.611 143.815  0.00  0.00     0.037 C 
BRANCH  30  31
HETATM   31  C   UNK     0     148.490 150.626 143.215  0.00  0.00     0.040 C 
BRANCH  31  32
HETATM   32  C   UNK     0     147.708 149.308 143.389  0.00  0.00     0.051 C 
HETATM   33  C   UNK     0     146.628 149.206 142.306  0.00  0.00     0.045 C 
HETATM   34  C   UNK     0     148.614 148.076 143.339  0.00  0.00     0.045 C 
BRANCH  32  35
HETATM   35  O   UNK     0     147.053 149.338 144.659  0.00  0.00    -0.391 OA
HETATM   36  H   UNK     0     147.143 148.458 145.062  0.00  0.00     0.210 HD
ENDBRANCH  32  35
ENDBRANCH  31  32
ENDBRANCH  30  31
ENDBRANCH  27  30
ENDBRANCH  23  27
ENDBRANCH   5  23
BRANCH  19  37
HETATM   37  O   UNK     0     154.769 157.228 153.258  0.00  0.00    -0.393 OA
HETATM   38  H   UNK     0     155.453 157.893 153.073  0.00  0.00     0.210 HD
ENDBRANCH  19  37
BRANCH  20  39
HETATM   39  O   UNK     0     154.181 154.720 154.270  0.00  0.00    -0.393 OA
HETATM   40  H   UNK     0     154.023 155.575 154.708  0.00  0.00     0.210 HD
ENDBRANCH  20  39
ENDBRANCH   1   3
TORSDOF 11
ENDMDL
MODEL 8
REMARK VINA RESULT:      -8.5      5.402      9.704
REMARK  11 active torsions:
REMARK  status: ('A' for Active; 'I' for Inactive)
REMARK    1  A    between atoms: O_1  and  C_9 
REMARK    2  A    between atoms: O_2  and  C_19 
REMARK    3  A    between atoms: O_3  and  C_26 
REMARK    4  A    between atoms: O_4  and  C_27 
REMARK    5  A    between atoms: O_6  and  C_28 
REMARK    6  A    between atoms: O_7  and  C_32 
REMARK    7  A    between atoms: C_10  and  C_19 
REMARK    8  A    between atoms: C_19  and  C_27 
REMARK    9  A    between atoms: C_27  and  C_30 
REMARK   10  A    between atoms: C_30  and  C_31 
REMARK   11  A    between atoms: C_31  and  C_32 
ROOT
HETATM    1  O   UNK     0     151.021 155.881 148.053  0.00  0.00    -0.384 OA
HETATM    2  H   UNK     0     151.314 155.161 148.638  0.00  0.00     0.211 HD
ENDROOT
BRANCH   1   3
HETATM    3  C   UNK     0     151.017 157.103 148.825  0.00  0.00     0.089 C 
HETATM    4  C   UNK     0     149.685 157.210 149.613  0.00  0.00    -0.002 C 
HETATM    5  C   UNK     0     148.668 157.324 148.449  0.00  0.00     0.034 C 
HETATM    6  C   UNK     0     149.517 155.939 150.465  0.00  0.00     0.014 C 
HETATM    7  C   UNK     0     149.622 158.464 150.527  0.00  0.00     0.019 C 
HETATM    8  C   UNK     0     149.378 158.244 147.430  0.00  0.00     0.012 C 
HETATM    9  C   UNK     0     150.878 158.238 147.799  0.00  0.00     0.044 C 
HETATM   10  C   UNK     0     150.691 155.771 151.443  0.00  0.00     0.011 C 
HETATM   11  C   UNK     0     152.109 155.886 150.802  0.00  0.00     0.027 C 
HETATM   12  C   UNK     0     153.256 155.945 151.887  0.00  0.00    -0.023 C 
HETATM   13  C   UNK     0     152.209 157.004 149.753  0.00  0.00    -0.037 C 
HETATM   14  C   UNK     0     154.618 156.258 151.205  0.00  0.00     0.071 C 
HETATM   15  C   UNK     0     153.387 154.599 152.656  0.00  0.00     0.044 C 
HETATM   16  C   UNK     0     152.984 157.047 152.946  0.00  0.00     0.016 C 
HETATM   17  C   UNK     0     155.155 155.100 150.345  0.00  0.00     0.047 C 
HETATM   18  C   UNK     0     154.533 157.516 150.363  0.00  0.00     0.154 C 
HETATM   19  C   UNK     0     155.262 153.804 151.146  0.00  0.00     0.147 C 
HETATM   20  C   UNK     0     153.925 153.450 151.797  0.00  0.00     0.147 C 
HETATM   21  O   UNK     0     155.486 158.286 150.253  0.00  0.00    -0.293 OA
HETATM   22  C   UNK     0     153.296 157.773 149.592  0.00  0.00     0.057 C 
BRANCH   5  23
HETATM   23  C   UNK     0     147.271 157.812 148.811  0.00  0.00     0.084 C 
HETATM   24  C   UNK     0     147.160 157.994 150.334  0.00  0.00     0.049 C 
BRANCH  23  25
HETATM   25  O   UNK     0     147.070 159.098 148.210  0.00  0.00    -0.387 OA
HETATM   26  H   UNK     0     146.123 159.315 148.240  0.00  0.00     0.210 HD
ENDBRANCH  23  25
BRANCH  23  27
HETATM   27  C   UNK     0     146.162 156.856 148.291  0.00  0.00     0.152 C 
BRANCH  27  28
HETATM   28  O   UNK     0     144.897 157.250 148.832  0.00  0.00    -0.393 OA
HETATM   29  H   UNK     0     144.447 157.788 148.157  0.00  0.00     0.210 HD
ENDBRANCH  27  28
BRANCH  27  30
HETATM   30  C   UNK     0     146.395 155.372 148.634  0.00  0.00     0.037 C 
BRANCH  30  31
HETATM   31  C   UNK     0     146.364 154.478 147.380  0.00  0.00     0.040 C 
BRANCH  31  32
HETATM   32  C   UNK     0     147.751 154.002 146.899  0.00  0.00     0.051 C 
HETATM   33  C   UNK     0     147.627 152.606 146.279  0.00  0.00     0.045 C 
HETATM   34  C   UNK     0     148.386 154.964 145.893  0.00  0.00     0.045 C 
BRANCH  32  35
HETATM   35  O   UNK     0     148.611 153.902 148.036  0.00  0.00    -0.391 OA
HETATM   36  H   UNK     0     149.403 154.437 147.860  0.00  0.00     0.210 HD
ENDBRANCH  32  35
ENDBRANCH  31  32
ENDBRANCH  30  31
ENDBRANCH  27  30
ENDBRANCH  23  27
ENDBRANCH   5  23
BRANCH  19  37
HETATM   37  O   UNK     0     156.254 153.962 152.163  0.00  0.00    -0.393 OA
HETATM   38  H   UNK     0     156.713 154.802 151.997  0.00  0.00     0.210 HD
ENDBRANCH  19  37
BRANCH  20  39
HETATM   39  O   UNK     0     154.095 152.288 152.604  0.00  0.00    -0.393 OA
HETATM   40  H   UNK     0     153.257 151.793 152.585  0.00  0.00     0.210 HD
ENDBRANCH  20  39
ENDBRANCH   1   3
TORSDOF 11
ENDMDL
MODEL 9
REMARK VINA RESULT:      -8.4      1.888      8.320
REMARK  11 active torsions:
REMARK  status: ('A' for Active; 'I' for Inactive)
REMARK    1  A    between atoms: O_1  and  C_9 
REMARK    2  A    between atoms: O_2  and  C_19 
REMARK    3  A    between atoms: O_3  and  C_26 
REMARK    4  A    between atoms: O_4  and  C_27 
REMARK    5  A    between atoms: O_6  and  C_28 
REMARK    6  A    between atoms: O_7  and  C_32 
REMARK    7  A    between atoms: C_10  and  C_19 
REMARK    8  A    between atoms: C_19  and  C_27 
REMARK    9  A    between atoms: C_27  and  C_30 
REMARK   10  A    between atoms: C_30  and  C_31 
REMARK   11  A    between atoms: C_31  and  C_32 
ROOT
HETATM    1  O   UNK     0     154.967 151.627 146.266  0.00  0.00    -0.384 OA
HETATM    2  H   UNK     0     155.651 151.818 145.601  0.00  0.00     0.211 HD
ENDROOT
BRANCH   1   3
HETATM    3  C   UNK     0     153.714 152.160 145.777  0.00  0.00     0.089 C 
HETATM    4  C   UNK     0     152.700 151.001 145.593  0.00  0.00    -0.002 C 
HETATM    5  C   UNK     0     153.393 150.185 144.472  0.00  0.00     0.034 C 
HETATM    6  C   UNK     0     152.572 150.245 146.927  0.00  0.00     0.014 C 
HETATM    7  C   UNK     0     151.299 151.491 145.133  0.00  0.00     0.019 C 
HETATM    8  C   UNK     0     153.957 151.267 143.523  0.00  0.00     0.012 C 
HETATM    9  C   UNK     0     153.987 152.586 144.326  0.00  0.00     0.044 C 
HETATM   10  C   UNK     0     152.097 151.183 148.049  0.00  0.00     0.011 C 
HETATM   11  C   UNK     0     152.898 152.515 148.184  0.00  0.00     0.027 C 
HETATM   12  C   UNK     0     152.216 153.528 149.184  0.00  0.00    -0.023 C 
HETATM   13  C   UNK     0     153.252 153.146 146.828  0.00  0.00    -0.037 C 
HETATM   14  C   UNK     0     152.941 154.902 149.127  0.00  0.00     0.071 C 
HETATM   15  C   UNK     0     152.262 153.006 150.648  0.00  0.00     0.044 C 
HETATM   16  C   UNK     0     150.721 153.759 148.832  0.00  0.00     0.016 C 
HETATM   17  C   UNK     0     154.355 154.876 149.734  0.00  0.00     0.047 C 
HETATM   18  C   UNK     0     153.010 155.428 147.706  0.00  0.00     0.154 C 
HETATM   19  C   UNK     0     154.345 154.355 151.170  0.00  0.00     0.147 C 
HETATM   20  C   UNK     0     153.671 152.984 151.249  0.00  0.00     0.147 C 
HETATM   21  O   UNK     0     152.938 156.630 147.458  0.00  0.00    -0.293 OA
HETATM   22  C   UNK     0     153.254 154.469 146.605  0.00  0.00     0.057 C 
BRANCH   5  23
HETATM   23  C   UNK     0     152.534 149.154 143.749  0.00  0.00     0.084 C 
HETATM   24  C   UNK     0     151.570 149.865 142.784  0.00  0.00     0.049 C 
BRANCH  23  25
HETATM   25  O   UNK     0     153.394 148.322 142.959  0.00  0.00    -0.387 OA
HETATM   26  H   UNK     0     154.104 147.976 143.525  0.00  0.00     0.210 HD
ENDBRANCH  23  25
BRANCH  23  27
HETATM   27  C   UNK     0     151.752 148.245 144.736  0.00  0.00     0.152 C 
BRANCH  27  28
HETATM   28  O   UNK     0     152.487 147.037 144.960  0.00  0.00    -0.393 OA
HETATM   29  H   UNK     0     152.381 146.803 145.899  0.00  0.00     0.210 HD
ENDBRANCH  27  28
BRANCH  27  30
HETATM   30  C   UNK     0     150.336 147.869 144.262  0.00  0.00     0.037 C 
BRANCH  30  31
HETATM   31  C   UNK     0     149.248 148.403 145.213  0.00  0.00     0.040 C 
BRANCH  31  32
HETATM   32  C   UNK     0     147.951 148.857 144.511  0.00  0.00     0.051 C 
HETATM   33  C   UNK     0     147.719 150.349 144.777  0.00  0.00     0.045 C 
HETATM   34  C   UNK     0     147.977 148.595 143.004  0.00  0.00     0.045 C 
BRANCH  32  35
HETATM   35  O   UNK     0     146.856 148.135 145.078  0.00  0.00    -0.391 OA
HETATM   36  H   UNK     0     146.853 147.244 144.689  0.00  0.00     0.210 HD
ENDBRANCH  32  35
ENDBRANCH  31  32
ENDBRANCH  30  31
ENDBRANCH  27  30
ENDBRANCH  23  27
ENDBRANCH   5  23
BRANCH  19  37
HETATM   37  O   UNK     0     153.636 155.278 151.998  0.00  0.00    -0.393 OA
HETATM   38  H   UNK     0     154.121 156.120 151.982  0.00  0.00     0.210 HD
ENDBRANCH  19  37
BRANCH  20  39
HETATM   39  O   UNK     0     153.603 152.580 152.615  0.00  0.00    -0.393 OA
HETATM   40  H   UNK     0     153.383 151.632 152.628  0.00  0.00     0.210 HD
ENDBRANCH  20  39
ENDBRANCH   1   3
TORSDOF 11
ENDMDL
MODEL 10
REMARK VINA RESULT:      -8.3      7.112     10.698
REMARK  11 active torsions:
REMARK  status: ('A' for Active; 'I' for Inactive)
REMARK    1  A    between atoms: O_1  and  C_9 
REMARK    2  A    between atoms: O_2  and  C_19 
REMARK    3  A    between atoms: O_3  and  C_26 
REMARK    4  A    between atoms: O_4  and  C_27 
REMARK    5  A    between atoms: O_6  and  C_28 
REMARK    6  A    between atoms: O_7  and  C_32 
REMARK    7  A    between atoms: C_10  and  C_19 
REMARK    8  A    between atoms: C_19  and  C_27 
REMARK    9  A    between atoms: C_27  and  C_30 
REMARK   10  A    between atoms: C_30  and  C_31 
REMARK   11  A    between atoms: C_31  and  C_32 
ROOT
HETATM    1  O   UNK     0     149.610 157.925 150.853  0.00  0.00    -0.384 OA
HETATM    2  H   UNK     0     149.161 157.744 151.697  0.00  0.00     0.211 HD
ENDROOT
BRANCH   1   3
HETATM    3  C   UNK     0     149.761 156.668 150.154  0.00  0.00     0.089 C 
HETATM    4  C   UNK     0     149.661 156.915 148.626  0.00  0.00    -0.002 C 
HETATM    5  C   UNK     0     148.196 157.407 148.507  0.00  0.00     0.034 C 
HETATM    6  C   UNK     0     150.707 157.972 148.230  0.00  0.00     0.014 C 
HETATM    7  C   UNK     0     149.880 155.625 147.790  0.00  0.00     0.019 C 
HETATM    8  C   UNK     0     147.422 156.500 149.492  0.00  0.00     0.012 C 
HETATM    9  C   UNK     0     148.473 155.881 150.441  0.00  0.00     0.044 C 
HETATM   10  C   UNK     0     152.127 157.506 148.594  0.00  0.00     0.011 C 
HETATM   11  C   UNK     0     152.304 156.999 150.058  0.00  0.00     0.027 C 
HETATM   12  C   UNK     0     153.708 156.316 150.292  0.00  0.00    -0.023 C 
HETATM   13  C   UNK     0     151.125 156.143 150.548  0.00  0.00    -0.037 C 
HETATM   14  C   UNK     0     153.752 155.657 151.700  0.00  0.00     0.071 C 
HETATM   15  C   UNK     0     154.869 157.347 150.194  0.00  0.00     0.044 C 
HETATM   16  C   UNK     0     153.991 155.214 149.236  0.00  0.00     0.016 C 
HETATM   17  C   UNK     0     153.780 156.674 152.854  0.00  0.00     0.047 C 
HETATM   18  C   UNK     0     152.590 154.703 151.895  0.00  0.00     0.154 C 
HETATM   19  C   UNK     0     154.936 157.663 152.709  0.00  0.00     0.147 C 
HETATM   20  C   UNK     0     154.895 158.356 151.347  0.00  0.00     0.147 C 
HETATM   21  O   UNK     0     152.705 153.671 152.554  0.00  0.00    -0.293 OA
HETATM   22  C   UNK     0     151.267 155.072 151.343  0.00  0.00     0.057 C 
BRANCH   5  23
HETATM   23  C   UNK     0     147.590 157.411 147.109  0.00  0.00     0.084 C 
HETATM   24  C   UNK     0     147.620 155.990 146.523  0.00  0.00     0.049 C 
BRANCH  23  25
HETATM   25  O   UNK     0     146.214 157.802 147.212  0.00  0.00    -0.387 OA
HETATM   26  H   UNK     0     145.695 157.045 147.529  0.00  0.00     0.210 HD
ENDBRANCH  23  25
BRANCH  23  27
HETATM   27  C   UNK     0     148.308 158.411 146.161  0.00  0.00     0.152 C 
BRANCH  27  28
HETATM   28  O   UNK     0     147.364 159.369 145.671  0.00  0.00    -0.393 OA
HETATM   29  H   UNK     0     147.742 159.763 144.866  0.00  0.00     0.210 HD
ENDBRANCH  27  28
BRANCH  27  30
HETATM   30  C   UNK     0     149.000 157.751 144.953  0.00  0.00     0.037 C 
BRANCH  30  31
HETATM   31  C   UNK     0     150.362 158.400 144.643  0.00  0.00     0.040 C 
BRANCH  31  32
HETATM   32  C   UNK     0     150.391 159.239 143.349  0.00  0.00     0.051 C 
HETATM   33  C   UNK     0     151.667 160.088 143.317  0.00  0.00     0.045 C 
HETATM   34  C   UNK     0     150.309 158.376 142.088  0.00  0.00     0.045 C 
BRANCH  32  35
HETATM   35  O   UNK     0     149.273 160.128 143.364  0.00  0.00    -0.391 OA
HETATM   36  H   UNK     0     148.563 159.706 143.877  0.00  0.00     0.210 HD
ENDBRANCH  32  35
ENDBRANCH  31  32
ENDBRANCH  30  31
ENDBRANCH  27  30
ENDBRANCH  23  27
ENDBRANCH   5  23
BRANCH  19  37
HETATM   37  O   UNK     0     156.173 156.961 152.844  0.00  0.00    -0.393 OA
HETATM   38  H   UNK     0     156.034 156.243 153.484  0.00  0.00     0.210 HD
ENDBRANCH  19  37
BRANCH  20  39
HETATM   39  O   UNK     0     156.038 159.198 151.220  0.00  0.00    -0.393 OA
HETATM   40  H   UNK     0     156.710 158.876 151.846  0.00  0.00     0.210 HD
ENDBRANCH  20  39
ENDBRANCH   1   3
TORSDOF 11
ENDMDL
