MODEL 1
REMARK VINA RESULT:    -7.694      0.000      0.000
REMARK INTER + INTRA:         -12.170
REMARK INTER:                 -11.293
REMARK INTRA:                  -0.877
REMARK UNBOUND:                -0.877
REMARK  Name = 74978140
REMARK  12 active torsions:
REMARK  status: ('A' for Active; 'I' for Inactive)
REMARK    1  A    between atoms: O_2  and  C_16
REMARK    2  A    between atoms: O_2  and  C_18
REMARK    3  A    between atoms: O_3  and  C_12
REMARK    4  A    between atoms: O_4  and  C_13
REMARK    5  A    between atoms: O_5  and  C_14
REMARK    6  A    between atoms: O_6  and  C_17
REMARK    7  A    between atoms: O_9  and  C_24
REMARK    8  A    between atoms: O_10  and  C_29
REMARK    9  A    between atoms: O_11  and  C_32
REMARK   10  A    between atoms: O_11  and  C_33
REMARK   11  A    between atoms: C_15  and  C_17
REMARK   12  A    between atoms: C_19  and  C_23
REMARK                            x       y       z     vdW  Elec       q    Type
REMARK                         _______ _______ _______ _____ _____    ______ ____
ROOT
ATOM      1  O   UNL     1     -25.391  -1.735  53.936  0.00  0.00    +0.000 OA
ATOM      2  O   UNL     1     -22.674  -1.406  56.955  0.00  0.00    +0.000 OA
ATOM      3  C   UNL     1     -24.325  -2.714  55.874  0.00  0.00    +0.000 A 
ATOM      4  C   UNL     1     -25.207  -2.753  54.858  0.00  0.00    +0.000 A 
ATOM      5  C   UNL     1     -23.492  -1.500  56.049  0.00  0.00    +0.000 A 
ATOM      6  C   UNL     1     -23.699  -0.418  55.075  0.00  0.00    +0.000 A 
ATOM      7  C   UNL     1     -24.643  -0.593  54.064  0.00  0.00    +0.000 A 
ATOM      8  C   UNL     1     -22.965   0.767  55.157  0.00  0.00    +0.000 A 
ATOM      9  C   UNL     1     -24.857   0.418  53.128  0.00  0.00    +0.000 A 
ATOM     10  C   UNL     1     -23.182   1.777  54.219  0.00  0.00    +0.000 A 
ATOM     11  C   UNL     1     -24.126   1.603  53.206  0.00  0.00    +0.000 A 
ENDROOT
BRANCH   4  12
ATOM     12  C   UNL     1     -26.070  -3.921  54.604  0.00  0.00    +0.000 A 
ATOM     13  C   UNL     1     -25.607  -4.971  53.812  0.00  0.00    +0.000 A 
ATOM     14  C   UNL     1     -27.349  -3.976  55.157  0.00  0.00    +0.000 A 
ATOM     15  C   UNL     1     -26.423  -6.077  53.572  0.00  0.00    +0.000 A 
ATOM     16  C   UNL     1     -28.165  -5.082  54.917  0.00  0.00    +0.000 A 
ATOM     17  C   UNL     1     -27.702  -6.132  54.125  0.00  0.00    +0.000 A 
BRANCH  17  18
ATOM     18  O   UNL     1     -28.499  -7.211  53.893  0.00  0.00    +0.000 OA
ATOM     19  C   UNL     1     -28.500  -8.240  54.881  0.00  0.00    +0.000 C 
ENDBRANCH  17  18
ENDBRANCH   4  12
BRANCH   8  20
ATOM     20  O   UNL     1     -22.032   0.989  56.124  0.00  0.00    +0.000 OA
ATOM     21  H   UNL     1     -22.458   1.225  56.962  0.00  0.00    +0.000 HD
ENDBRANCH   8  20
BRANCH  11  22
ATOM     22  O   UNL     1     -24.334   2.591  52.294  0.00  0.00    +0.000 OA
ATOM     23  H   UNL     1     -24.380   3.445  52.758  0.00  0.00    +0.000 HD
ENDBRANCH  11  22
BRANCH   3  24
ATOM     24  O   UNL     1     -24.145  -3.758  56.754  0.00  0.00    +0.000 OA
BRANCH  24  30
ATOM     25  O   UNL     1     -25.178  -5.169  58.319  0.00  0.00    +0.000 OA
ATOM     26  C   UNL     1     -26.548  -2.946  59.511  0.00  0.00    +0.000 C 
ATOM     27  C   UNL     1     -26.513  -4.321  60.182  0.00  0.00    +0.000 C 
ATOM     28  C   UNL     1     -25.352  -2.766  58.576  0.00  0.00    +0.000 C 
ATOM     29  C   UNL     1     -26.328  -5.426  59.132  0.00  0.00    +0.000 C 
ATOM     30  C   UNL     1     -25.277  -3.938  57.598  0.00  0.00    +0.000 C 
BRANCH  26  31
ATOM     31  O   UNL     1     -26.542  -1.935  60.514  0.00  0.00    +0.000 OA
ATOM     32  H   UNL     1     -25.981  -1.208  60.194  0.00  0.00    +0.000 HD
ENDBRANCH  26  31
BRANCH  27  33
ATOM     33  O   UNL     1     -27.737  -4.539  60.878  0.00  0.00    +0.000 OA
ATOM     34  H   UNL     1     -27.945  -5.487  60.833  0.00  0.00    +0.000 HD
ENDBRANCH  27  33
BRANCH  28  35
ATOM     35  O   UNL     1     -24.144  -2.745  59.342  0.00  0.00    +0.000 OA
ATOM     36  H   UNL     1     -24.320  -3.158  60.204  0.00  0.00    +0.000 HD
ENDBRANCH  28  35
BRANCH  29  37
ATOM     37  C   UNL     1     -26.135  -6.792  59.783  0.00  0.00    +0.000 C 
BRANCH  37  38
ATOM     38  O   UNL     1     -26.030  -6.611  61.184  0.00  0.00    +0.000 OA
ATOM     39  H   UNL     1     -26.916  -6.752  61.559  0.00  0.00    +0.000 HD
ENDBRANCH  37  38
ENDBRANCH  29  37
ENDBRANCH  24  30
ENDBRANCH   3  24
TORSDOF 11
ENDMDL
MODEL 2
REMARK VINA RESULT:    -7.506      1.640      2.465
REMARK INTER + INTRA:         -11.893
REMARK INTER:                 -10.792
REMARK INTRA:                  -1.101
REMARK UNBOUND:                -0.877
REMARK  Name = 74978140
REMARK  12 active torsions:
REMARK  status: ('A' for Active; 'I' for Inactive)
REMARK    1  A    between atoms: O_2  and  C_16
REMARK    2  A    between atoms: O_2  and  C_18
REMARK    3  A    between atoms: O_3  and  C_12
REMARK    4  A    between atoms: O_4  and  C_13
REMARK    5  A    between atoms: O_5  and  C_14
REMARK    6  A    between atoms: O_6  and  C_17
REMARK    7  A    between atoms: O_9  and  C_24
REMARK    8  A    between atoms: O_10  and  C_29
REMARK    9  A    between atoms: O_11  and  C_32
REMARK   10  A    between atoms: O_11  and  C_33
REMARK   11  A    between atoms: C_15  and  C_17
REMARK   12  A    between atoms: C_19  and  C_23
REMARK                            x       y       z     vdW  Elec       q    Type
REMARK                         _______ _______ _______ _____ _____    ______ ____
ROOT
ATOM      1  O   UNL     1     -25.397  -1.925  53.917  0.00  0.00    +0.000 OA
ATOM      2  O   UNL     1     -25.472  -0.324  57.663  0.00  0.00    +0.000 OA
ATOM      3  C   UNL     1     -25.983  -2.154  56.252  0.00  0.00    +0.000 A 
ATOM      4  C   UNL     1     -25.932  -2.619  54.990  0.00  0.00    +0.000 A 
ATOM      5  C   UNL     1     -25.451  -0.800  56.536  0.00  0.00    +0.000 A 
ATOM      6  C   UNL     1     -24.896  -0.062  55.391  0.00  0.00    +0.000 A 
ATOM      7  C   UNL     1     -24.898  -0.667  54.135  0.00  0.00    +0.000 A 
ATOM      8  C   UNL     1     -24.373   1.222  55.555  0.00  0.00    +0.000 A 
ATOM      9  C   UNL     1     -24.375   0.012  53.034  0.00  0.00    +0.000 A 
ATOM     10  C   UNL     1     -23.851   1.899  54.452  0.00  0.00    +0.000 A 
ATOM     11  C   UNL     1     -23.852   1.295  53.194  0.00  0.00    +0.000 A 
ENDROOT
BRANCH   4  12
ATOM     12  C   UNL     1     -26.430  -3.956  54.618  0.00  0.00    +0.000 A 
ATOM     13  C   UNL     1     -27.751  -4.310  54.892  0.00  0.00    +0.000 A 
ATOM     14  C   UNL     1     -25.580  -4.867  53.990  0.00  0.00    +0.000 A 
ATOM     15  C   UNL     1     -28.222  -5.574  54.539  0.00  0.00    +0.000 A 
ATOM     16  C   UNL     1     -26.051  -6.131  53.637  0.00  0.00    +0.000 A 
ATOM     17  C   UNL     1     -27.372  -6.485  53.911  0.00  0.00    +0.000 A 
BRANCH  17  18
ATOM     18  O   UNL     1     -27.831  -7.718  53.566  0.00  0.00    +0.000 OA
ATOM     19  C   UNL     1     -27.500  -8.191  52.260  0.00  0.00    +0.000 C 
ENDBRANCH  17  18
ENDBRANCH   4  12
BRANCH   8  20
ATOM     20  O   UNL     1     -24.346   1.857  56.760  0.00  0.00    +0.000 OA
ATOM     21  H   UNL     1     -24.217   2.811  56.640  0.00  0.00    +0.000 HD
ENDBRANCH   8  20
BRANCH  11  22
ATOM     22  O   UNL     1     -23.343   1.960  52.121  0.00  0.00    +0.000 OA
ATOM     23  H   UNL     1     -22.444   2.263  52.334  0.00  0.00    +0.000 HD
ENDBRANCH  11  22
BRANCH   3  24
ATOM     24  O   UNL     1     -26.493  -2.885  57.302  0.00  0.00    +0.000 OA
BRANCH  24  30
ATOM     25  O   UNL     1     -25.638  -3.335  59.441  0.00  0.00    +0.000 OA
ATOM     26  C   UNL     1     -24.426  -5.766  58.513  0.00  0.00    +0.000 C 
ATOM     27  C   UNL     1     -24.530  -5.439  60.005  0.00  0.00    +0.000 C 
ATOM     28  C   UNL     1     -25.508  -5.034  57.719  0.00  0.00    +0.000 C 
ATOM     29  C   UNL     1     -24.588  -3.919  60.218  0.00  0.00    +0.000 C 
ATOM     30  C   UNL     1     -25.464  -3.540  58.037  0.00  0.00    +0.000 C 
BRANCH  26  31
ATOM     31  O   UNL     1     -24.553  -7.173  58.332  0.00  0.00    +0.000 OA
ATOM     32  H   UNL     1     -25.439  -7.342  57.969  0.00  0.00    +0.000 HD
ENDBRANCH  26  31
BRANCH  27  33
ATOM     33  O   UNL     1     -23.393  -5.963  60.685  0.00  0.00    +0.000 OA
ATOM     34  H   UNL     1     -22.618  -5.847  60.110  0.00  0.00    +0.000 HD
ENDBRANCH  27  33
BRANCH  28  35
ATOM     35  O   UNL     1     -26.796  -5.533  58.092  0.00  0.00    +0.000 OA
ATOM     36  H   UNL     1     -27.277  -4.826  58.555  0.00  0.00    +0.000 HD
ENDBRANCH  28  35
BRANCH  29  37
ATOM     37  C   UNL     1     -24.847  -3.568  61.680  0.00  0.00    +0.000 C 
BRANCH  37  38
ATOM     38  O   UNL     1     -25.576  -4.626  62.275  0.00  0.00    +0.000 OA
ATOM     39  H   UNL     1     -25.300  -5.448  61.834  0.00  0.00    +0.000 HD
ENDBRANCH  37  38
ENDBRANCH  29  37
ENDBRANCH  24  30
ENDBRANCH   3  24
TORSDOF 11
ENDMDL
MODEL 3
REMARK VINA RESULT:    -7.331      1.649      2.579
REMARK INTER + INTRA:         -11.637
REMARK INTER:                 -10.858
REMARK INTRA:                  -0.779
REMARK UNBOUND:                -0.877
REMARK  Name = 74978140
REMARK  12 active torsions:
REMARK  status: ('A' for Active; 'I' for Inactive)
REMARK    1  A    between atoms: O_2  and  C_16
REMARK    2  A    between atoms: O_2  and  C_18
REMARK    3  A    between atoms: O_3  and  C_12
REMARK    4  A    between atoms: O_4  and  C_13
REMARK    5  A    between atoms: O_5  and  C_14
REMARK    6  A    between atoms: O_6  and  C_17
REMARK    7  A    between atoms: O_9  and  C_24
REMARK    8  A    between atoms: O_10  and  C_29
REMARK    9  A    between atoms: O_11  and  C_32
REMARK   10  A    between atoms: O_11  and  C_33
REMARK   11  A    between atoms: C_15  and  C_17
REMARK   12  A    between atoms: C_19  and  C_23
REMARK                            x       y       z     vdW  Elec       q    Type
REMARK                         _______ _______ _______ _____ _____    ______ ____
ROOT
ATOM      1  O   UNL     1     -25.191  -1.911  53.956  0.00  0.00    +0.000 OA
ATOM      2  O   UNL     1     -25.509  -0.038  57.561  0.00  0.00    +0.000 OA
ATOM      3  C   UNL     1     -25.942  -1.964  56.254  0.00  0.00    +0.000 A 
ATOM      4  C   UNL     1     -25.809  -2.520  55.037  0.00  0.00    +0.000 A 
ATOM      5  C   UNL     1     -25.416  -0.596  56.476  0.00  0.00    +0.000 A 
ATOM      6  C   UNL     1     -24.772   0.052  55.323  0.00  0.00    +0.000 A 
ATOM      7  C   UNL     1     -24.694  -0.643  54.118  0.00  0.00    +0.000 A 
ATOM      8  C   UNL     1     -24.247   1.341  55.430  0.00  0.00    +0.000 A 
ATOM      9  C   UNL     1     -24.087  -0.050  53.010  0.00  0.00    +0.000 A 
ATOM     10  C   UNL     1     -23.641   1.932  54.319  0.00  0.00    +0.000 A 
ATOM     11  C   UNL     1     -23.562   1.237  53.112  0.00  0.00    +0.000 A 
ENDROOT
BRANCH   4  12
ATOM     12  C   UNL     1     -26.295  -3.878  54.729  0.00  0.00    +0.000 A 
ATOM     13  C   UNL     1     -27.616  -4.225  55.010  0.00  0.00    +0.000 A 
ATOM     14  C   UNL     1     -25.435  -4.813  54.155  0.00  0.00    +0.000 A 
ATOM     15  C   UNL     1     -28.076  -5.509  54.717  0.00  0.00    +0.000 A 
ATOM     16  C   UNL     1     -25.895  -6.097  53.863  0.00  0.00    +0.000 A 
ATOM     17  C   UNL     1     -27.216  -6.445  54.143  0.00  0.00    +0.000 A 
BRANCH  17  18
ATOM     18  O   UNL     1     -27.664  -7.698  53.857  0.00  0.00    +0.000 OA
ATOM     19  C   UNL     1     -28.454  -8.347  54.853  0.00  0.00    +0.000 C 
ENDBRANCH  17  18
ENDBRANCH   4  12
BRANCH   8  20
ATOM     20  O   UNL     1     -24.297   2.063  56.584  0.00  0.00    +0.000 OA
ATOM     21  H   UNL     1     -25.180   2.443  56.710  0.00  0.00    +0.000 HD
ENDBRANCH   8  20
BRANCH  11  22
ATOM     22  O   UNL     1     -22.970   1.817  52.032  0.00  0.00    +0.000 OA
ATOM     23  H   UNL     1     -22.064   2.076  52.269  0.00  0.00    +0.000 HD
ENDBRANCH  11  22
BRANCH   3  24
ATOM     24  O   UNL     1     -26.533  -2.612  57.317  0.00  0.00    +0.000 OA
BRANCH  24  30
ATOM     25  O   UNL     1     -24.270  -2.769  57.921  0.00  0.00    +0.000 OA
ATOM     26  C   UNL     1     -24.961  -3.967  60.436  0.00  0.00    +0.000 C 
ATOM     27  C   UNL     1     -23.543  -3.468  60.146  0.00  0.00    +0.000 C 
ATOM     28  C   UNL     1     -25.984  -3.232  59.570  0.00  0.00    +0.000 C 
ATOM     29  C   UNL     1     -23.264  -3.492  58.637  0.00  0.00    +0.000 C 
ATOM     30  C   UNL     1     -25.577  -3.321  58.100  0.00  0.00    +0.000 C 
BRANCH  26  31
ATOM     31  O   UNL     1     -25.254  -3.767  61.816  0.00  0.00    +0.000 OA
ATOM     32  H   UNL     1     -26.207  -3.591  61.889  0.00  0.00    +0.000 HD
ENDBRANCH  26  31
BRANCH  27  33
ATOM     33  O   UNL     1     -22.601  -4.307  60.809  0.00  0.00    +0.000 OA
ATOM     34  H   UNL     1     -23.069  -5.102  61.115  0.00  0.00    +0.000 HD
ENDBRANCH  27  33
BRANCH  28  35
ATOM     35  O   UNL     1     -26.022  -1.851  59.941  0.00  0.00    +0.000 OA
ATOM     36  H   UNL     1     -25.574  -1.335  59.250  0.00  0.00    +0.000 HD
ENDBRANCH  28  35
BRANCH  29  37
ATOM     37  C   UNL     1     -21.917  -2.856  58.305  0.00  0.00    +0.000 C 
BRANCH  37  38
ATOM     38  O   UNL     1     -21.602  -1.918  59.317  0.00  0.00    +0.000 OA
ATOM     39  H   UNL     1     -20.632  -1.867  59.369  0.00  0.00    +0.000 HD
ENDBRANCH  37  38
ENDBRANCH  29  37
ENDBRANCH  24  30
ENDBRANCH   3  24
TORSDOF 11
ENDMDL
MODEL 4
REMARK VINA RESULT:    -7.292      2.301      6.620
REMARK INTER + INTRA:         -11.580
REMARK INTER:                 -10.500
REMARK INTRA:                  -1.079
REMARK UNBOUND:                -0.877
REMARK  Name = 74978140
REMARK  12 active torsions:
REMARK  status: ('A' for Active; 'I' for Inactive)
REMARK    1  A    between atoms: O_2  and  C_16
REMARK    2  A    between atoms: O_2  and  C_18
REMARK    3  A    between atoms: O_3  and  C_12
REMARK    4  A    between atoms: O_4  and  C_13
REMARK    5  A    between atoms: O_5  and  C_14
REMARK    6  A    between atoms: O_6  and  C_17
REMARK    7  A    between atoms: O_9  and  C_24
REMARK    8  A    between atoms: O_10  and  C_29
REMARK    9  A    between atoms: O_11  and  C_32
REMARK   10  A    between atoms: O_11  and  C_33
REMARK   11  A    between atoms: C_15  and  C_17
REMARK   12  A    between atoms: C_19  and  C_23
REMARK                            x       y       z     vdW  Elec       q    Type
REMARK                         _______ _______ _______ _____ _____    ______ ____
ROOT
ATOM      1  O   UNL     1     -23.628  -2.087  58.872  0.00  0.00    +0.000 OA
ATOM      2  O   UNL     1     -26.843  -4.422  59.775  0.00  0.00    +0.000 OA
ATOM      3  C   UNL     1     -25.721  -3.081  58.179  0.00  0.00    +0.000 A 
ATOM      4  C   UNL     1     -24.637  -2.317  57.951  0.00  0.00    +0.000 A 
ATOM      5  C   UNL     1     -25.879  -3.718  59.509  0.00  0.00    +0.000 A 
ATOM      6  C   UNL     1     -24.811  -3.461  60.488  0.00  0.00    +0.000 A 
ATOM      7  C   UNL     1     -23.737  -2.655  60.116  0.00  0.00    +0.000 A 
ATOM      8  C   UNL     1     -24.869  -4.014  61.769  0.00  0.00    +0.000 A 
ATOM      9  C   UNL     1     -22.712  -2.397  61.026  0.00  0.00    +0.000 A 
ATOM     10  C   UNL     1     -23.842  -3.754  62.677  0.00  0.00    +0.000 A 
ATOM     11  C   UNL     1     -22.765  -2.948  62.306  0.00  0.00    +0.000 A 
ENDROOT
BRANCH   4  12
ATOM     12  C   UNL     1     -24.396  -1.652  56.658  0.00  0.00    +0.000 A 
ATOM     13  C   UNL     1     -23.620  -2.281  55.685  0.00  0.00    +0.000 A 
ATOM     14  C   UNL     1     -24.945  -0.395  56.407  0.00  0.00    +0.000 A 
ATOM     15  C   UNL     1     -23.393  -1.652  54.460  0.00  0.00    +0.000 A 
ATOM     16  C   UNL     1     -24.717   0.234  55.183  0.00  0.00    +0.000 A 
ATOM     17  C   UNL     1     -23.941  -0.395  54.209  0.00  0.00    +0.000 A 
BRANCH  17  18
ATOM     18  O   UNL     1     -23.721   0.219  53.015  0.00  0.00    +0.000 OA
ATOM     19  C   UNL     1     -23.810   1.643  52.991  0.00  0.00    +0.000 C 
ENDBRANCH  17  18
ENDBRANCH   4  12
BRANCH   8  20
ATOM     20  O   UNL     1     -25.895  -4.809  62.181  0.00  0.00    +0.000 OA
ATOM     21  H   UNL     1     -25.852  -5.674  61.746  0.00  0.00    +0.000 HD
ENDBRANCH   8  20
BRANCH  11  22
ATOM     22  O   UNL     1     -21.766  -2.696  63.196  0.00  0.00    +0.000 OA
ATOM     23  H   UNL     1     -21.241  -1.942  62.877  0.00  0.00    +0.000 HD
ENDBRANCH  11  22
BRANCH   3  24
ATOM     24  O   UNL     1     -26.690  -3.316  57.228  0.00  0.00    +0.000 OA
BRANCH  24  30
ATOM     25  O   UNL     1     -27.306  -5.564  56.961  0.00  0.00    +0.000 OA
ATOM     26  C   UNL     1     -26.436  -5.543  54.226  0.00  0.00    +0.000 C 
ATOM     27  C   UNL     1     -27.262  -6.698  54.797  0.00  0.00    +0.000 C 
ATOM     28  C   UNL     1     -26.674  -4.259  55.021  0.00  0.00    +0.000 C 
ATOM     29  C   UNL     1     -27.047  -6.813  56.313  0.00  0.00    +0.000 C 
ATOM     30  C   UNL     1     -26.442  -4.519  56.509  0.00  0.00    +0.000 C 
BRANCH  26  31
ATOM     31  O   UNL     1     -26.788  -5.345  52.860  0.00  0.00    +0.000 OA
ATOM     32  H   UNL     1     -27.729  -5.107  52.832  0.00  0.00    +0.000 HD
ENDBRANCH  26  31
BRANCH  27  33
ATOM     33  O   UNL     1     -26.865  -7.916  54.174  0.00  0.00    +0.000 OA
ATOM     34  H   UNL     1     -26.146  -7.716  53.552  0.00  0.00    +0.000 HD
ENDBRANCH  27  33
BRANCH  28  35
ATOM     35  O   UNL     1     -28.028  -3.832  54.847  0.00  0.00    +0.000 OA
ATOM     36  H   UNL     1     -28.503  -4.515  54.345  0.00  0.00    +0.000 HD
ENDBRANCH  28  35
BRANCH  29  37
ATOM     37  C   UNL     1     -27.974  -7.855  56.932  0.00  0.00    +0.000 C 
BRANCH  37  38
ATOM     38  O   UNL     1     -28.441  -7.359  58.174  0.00  0.00    +0.000 OA
ATOM     39  H   UNL     1     -28.868  -8.100  58.637  0.00  0.00    +0.000 HD
ENDBRANCH  37  38
ENDBRANCH  29  37
ENDBRANCH  24  30
ENDBRANCH   3  24
TORSDOF 11
ENDMDL
MODEL 5
REMARK VINA RESULT:    -7.060      1.872      6.483
REMARK INTER + INTRA:         -11.239
REMARK INTER:                  -9.947
REMARK INTRA:                  -1.292
REMARK UNBOUND:                -0.877
REMARK  Name = 74978140
REMARK  12 active torsions:
REMARK  status: ('A' for Active; 'I' for Inactive)
REMARK    1  A    between atoms: O_2  and  C_16
REMARK    2  A    between atoms: O_2  and  C_18
REMARK    3  A    between atoms: O_3  and  C_12
REMARK    4  A    between atoms: O_4  and  C_13
REMARK    5  A    between atoms: O_5  and  C_14
REMARK    6  A    between atoms: O_6  and  C_17
REMARK    7  A    between atoms: O_9  and  C_24
REMARK    8  A    between atoms: O_10  and  C_29
REMARK    9  A    between atoms: O_11  and  C_32
REMARK   10  A    between atoms: O_11  and  C_33
REMARK   11  A    between atoms: C_15  and  C_17
REMARK   12  A    between atoms: C_19  and  C_23
REMARK                            x       y       z     vdW  Elec       q    Type
REMARK                         _______ _______ _______ _____ _____    ______ ____
ROOT
ATOM      1  O   UNL     1     -26.062  -5.251  53.674  0.00  0.00    +0.000 OA
ATOM      2  O   UNL     1     -28.075  -6.352  57.041  0.00  0.00    +0.000 OA
ATOM      3  C   UNL     1     -26.674  -4.776  55.965  0.00  0.00    +0.000 A 
ATOM      4  C   UNL     1     -26.028  -4.477  54.823  0.00  0.00    +0.000 A 
ATOM      5  C   UNL     1     -27.468  -6.027  56.030  0.00  0.00    +0.000 A 
ATOM      6  C   UNL     1     -27.490  -6.852  54.812  0.00  0.00    +0.000 A 
ATOM      7  C   UNL     1     -26.781  -6.418  53.693  0.00  0.00    +0.000 A 
ATOM      8  C   UNL     1     -28.207  -8.049  54.774  0.00  0.00    +0.000 A 
ATOM      9  C   UNL     1     -26.787  -7.183  52.526  0.00  0.00    +0.000 A 
ATOM     10  C   UNL     1     -28.210  -8.812  53.605  0.00  0.00    +0.000 A 
ATOM     11  C   UNL     1     -27.502  -8.379  52.483  0.00  0.00    +0.000 A 
ENDROOT
BRANCH   4  12
ATOM     12  C   UNL     1     -25.223  -3.252  54.667  0.00  0.00    +0.000 A 
ATOM     13  C   UNL     1     -25.852  -2.011  54.576  0.00  0.00    +0.000 A 
ATOM     14  C   UNL     1     -23.832  -3.335  54.610  0.00  0.00    +0.000 A 
ATOM     15  C   UNL     1     -25.089  -0.852  54.430  0.00  0.00    +0.000 A 
ATOM     16  C   UNL     1     -23.070  -2.177  54.464  0.00  0.00    +0.000 A 
ATOM     17  C   UNL     1     -23.698  -0.935  54.374  0.00  0.00    +0.000 A 
BRANCH  17  18
ATOM     18  O   UNL     1     -22.953   0.195  54.232  0.00  0.00    +0.000 OA
ATOM     19  C   UNL     1     -23.131   1.217  55.213  0.00  0.00    +0.000 C 
ENDBRANCH  17  18
ENDBRANCH   4  12
BRANCH   8  20
ATOM     20  O   UNL     1     -28.915  -8.517  55.839  0.00  0.00    +0.000 OA
ATOM     21  H   UNL     1     -29.037  -9.477  55.772  0.00  0.00    +0.000 HD
ENDBRANCH   8  20
BRANCH  11  22
ATOM     22  O   UNL     1     -27.508  -9.127  51.346  0.00  0.00    +0.000 OA
ATOM     23  H   UNL     1     -28.410  -9.453  51.187  0.00  0.00    +0.000 HD
ENDBRANCH  11  22
BRANCH   3  24
ATOM     24  O   UNL     1     -26.647  -3.966  57.079  0.00  0.00    +0.000 OA
BRANCH  24  30
ATOM     25  O   UNL     1     -24.568  -3.572  58.096  0.00  0.00    +0.000 OA
ATOM     26  C   UNL     1     -25.403  -4.942  60.476  0.00  0.00    +0.000 C 
ATOM     27  C   UNL     1     -24.121  -4.105  60.438  0.00  0.00    +0.000 C 
ATOM     28  C   UNL     1     -26.394  -4.468  59.413  0.00  0.00    +0.000 C 
ATOM     29  C   UNL     1     -23.568  -4.037  59.007  0.00  0.00    +0.000 C 
ATOM     30  C   UNL     1     -25.710  -4.431  58.046  0.00  0.00    +0.000 C 
BRANCH  26  31
ATOM     31  O   UNL     1     -25.989  -4.843  61.770  0.00  0.00    +0.000 OA
ATOM     32  H   UNL     1     -26.759  -4.254  61.698  0.00  0.00    +0.000 HD
ENDBRANCH  26  31
BRANCH  27  33
ATOM     33  O   UNL     1     -23.145  -4.698  61.289  0.00  0.00    +0.000 OA
ATOM     34  H   UNL     1     -23.099  -5.647  61.081  0.00  0.00    +0.000 HD
ENDBRANCH  27  33
BRANCH  28  35
ATOM     35  O   UNL     1     -26.837  -3.144  59.727  0.00  0.00    +0.000 OA
ATOM     36  H   UNL     1     -26.179  -2.512  59.391  0.00  0.00    +0.000 HD
ENDBRANCH  28  35
BRANCH  29  37
ATOM     37  C   UNL     1     -22.380  -3.085  58.911  0.00  0.00    +0.000 C 
BRANCH  37  38
ATOM     38  O   UNL     1     -22.504  -2.106  59.927  0.00  0.00    +0.000 OA
ATOM     39  H   UNL     1     -23.406  -1.747  59.870  0.00  0.00    +0.000 HD
ENDBRANCH  37  38
ENDBRANCH  29  37
ENDBRANCH  24  30
ENDBRANCH   3  24
TORSDOF 11
ENDMDL
MODEL 6
REMARK VINA RESULT:    -6.945      1.820      4.968
REMARK INTER + INTRA:         -11.071
REMARK INTER:                 -10.079
REMARK INTRA:                  -0.992
REMARK UNBOUND:                -0.877
REMARK  Name = 74978140
REMARK  12 active torsions:
REMARK  status: ('A' for Active; 'I' for Inactive)
REMARK    1  A    between atoms: O_2  and  C_16
REMARK    2  A    between atoms: O_2  and  C_18
REMARK    3  A    between atoms: O_3  and  C_12
REMARK    4  A    between atoms: O_4  and  C_13
REMARK    5  A    between atoms: O_5  and  C_14
REMARK    6  A    between atoms: O_6  and  C_17
REMARK    7  A    between atoms: O_9  and  C_24
REMARK    8  A    between atoms: O_10  and  C_29
REMARK    9  A    between atoms: O_11  and  C_32
REMARK   10  A    between atoms: O_11  and  C_33
REMARK   11  A    between atoms: C_15  and  C_17
REMARK   12  A    between atoms: C_19  and  C_23
REMARK                            x       y       z     vdW  Elec       q    Type
REMARK                         _______ _______ _______ _____ _____    ______ ____
ROOT
ATOM      1  O   UNL     1     -24.051  -1.299  57.150  0.00  0.00    +0.000 OA
ATOM      2  O   UNL     1     -26.574  -1.567  53.962  0.00  0.00    +0.000 OA
ATOM      3  C   UNL     1     -26.015  -2.291  56.145  0.00  0.00    +0.000 A 
ATOM      4  C   UNL     1     -25.139  -2.157  57.158  0.00  0.00    +0.000 A 
ATOM      5  C   UNL     1     -25.812  -1.487  54.916  0.00  0.00    +0.000 A 
ATOM      6  C   UNL     1     -24.649  -0.587  54.906  0.00  0.00    +0.000 A 
ATOM      7  C   UNL     1     -23.825  -0.540  56.030  0.00  0.00    +0.000 A 
ATOM      8  C   UNL     1     -24.371   0.209  53.794  0.00  0.00    +0.000 A 
ATOM      9  C   UNL     1     -22.716   0.305  56.046  0.00  0.00    +0.000 A 
ATOM     10  C   UNL     1     -23.260   1.054  53.813  0.00  0.00    +0.000 A 
ATOM     11  C   UNL     1     -22.435   1.102  54.936  0.00  0.00    +0.000 A 
ENDROOT
BRANCH   4  12
ATOM     12  C   UNL     1     -25.267  -2.909  58.420  0.00  0.00    +0.000 A 
ATOM     13  C   UNL     1     -24.531  -4.079  58.612  0.00  0.00    +0.000 A 
ATOM     14  C   UNL     1     -26.122  -2.451  59.421  0.00  0.00    +0.000 A 
ATOM     15  C   UNL     1     -24.651  -4.790  59.806  0.00  0.00    +0.000 A 
ATOM     16  C   UNL     1     -26.242  -3.162  60.615  0.00  0.00    +0.000 A 
ATOM     17  C   UNL     1     -25.506  -4.331  60.808  0.00  0.00    +0.000 A 
BRANCH  17  18
ATOM     18  O   UNL     1     -25.624  -5.024  61.973  0.00  0.00    +0.000 OA
ATOM     19  C   UNL     1     -24.453  -5.682  62.457  0.00  0.00    +0.000 C 
ENDBRANCH  17  18
ENDBRANCH   4  12
BRANCH   8  20
ATOM     20  O   UNL     1     -25.144   0.202  52.672  0.00  0.00    +0.000 OA
ATOM     21  H   UNL     1     -25.963   0.700  52.820  0.00  0.00    +0.000 HD
ENDBRANCH   8  20
BRANCH  11  22
ATOM     22  O   UNL     1     -21.353   1.928  54.950  0.00  0.00    +0.000 OA
ATOM     23  H   UNL     1     -21.044   2.058  54.037  0.00  0.00    +0.000 HD
ENDBRANCH  11  22
BRANCH   3  24
ATOM     24  O   UNL     1     -27.106  -3.129  56.200  0.00  0.00    +0.000 OA
BRANCH  24  30
ATOM     25  O   UNL     1     -27.396  -5.393  56.750  0.00  0.00    +0.000 OA
ATOM     26  C   UNL     1     -26.855  -6.183  54.044  0.00  0.00    +0.000 C 
ATOM     27  C   UNL     1     -27.424  -7.167  55.070  0.00  0.00    +0.000 C 
ATOM     28  C   UNL     1     -27.196  -4.742  54.425  0.00  0.00    +0.000 C 
ATOM     29  C   UNL     1     -27.023  -6.750  56.492  0.00  0.00    +0.000 C 
ATOM     30  C   UNL     1     -26.759  -4.469  55.864  0.00  0.00    +0.000 C 
BRANCH  26  31
ATOM     31  O   UNL     1     -27.387  -6.488  52.758  0.00  0.00    +0.000 OA
ATOM     32  H   UNL     1     -26.637  -6.669  52.167  0.00  0.00    +0.000 HD
ENDBRANCH  26  31
BRANCH  27  33
ATOM     33  O   UNL     1     -26.918  -8.472  54.805  0.00  0.00    +0.000 OA
ATOM     34  H   UNL     1     -25.956  -8.403  54.682  0.00  0.00    +0.000 HD
ENDBRANCH  27  33
BRANCH  28  35
ATOM     35  O   UNL     1     -28.611  -4.546  54.342  0.00  0.00    +0.000 OA
ATOM     36  H   UNL     1     -29.017  -5.372  54.029  0.00  0.00    +0.000 HD
ENDBRANCH  28  35
BRANCH  29  37
ATOM     37  C   UNL     1     -27.702  -7.621  57.544  0.00  0.00    +0.000 C 
BRANCH  37  38
ATOM     38  O   UNL     1     -28.473  -6.787  58.390  0.00  0.00    +0.000 OA
ATOM     39  H   UNL     1     -29.345  -6.681  57.971  0.00  0.00    +0.000 HD
ENDBRANCH  37  38
ENDBRANCH  29  37
ENDBRANCH  24  30
ENDBRANCH   3  24
TORSDOF 11
ENDMDL
MODEL 7
REMARK VINA RESULT:    -6.720     19.318     21.897
REMARK INTER + INTRA:         -10.739
REMARK INTER:                  -9.630
REMARK INTRA:                  -1.109
REMARK UNBOUND:                -0.877
REMARK  Name = 74978140
REMARK  12 active torsions:
REMARK  status: ('A' for Active; 'I' for Inactive)
REMARK    1  A    between atoms: O_2  and  C_16
REMARK    2  A    between atoms: O_2  and  C_18
REMARK    3  A    between atoms: O_3  and  C_12
REMARK    4  A    between atoms: O_4  and  C_13
REMARK    5  A    between atoms: O_5  and  C_14
REMARK    6  A    between atoms: O_6  and  C_17
REMARK    7  A    between atoms: O_9  and  C_24
REMARK    8  A    between atoms: O_10  and  C_29
REMARK    9  A    between atoms: O_11  and  C_32
REMARK   10  A    between atoms: O_11  and  C_33
REMARK   11  A    between atoms: C_15  and  C_17
REMARK   12  A    between atoms: C_19  and  C_23
REMARK                            x       y       z     vdW  Elec       q    Type
REMARK                         _______ _______ _______ _____ _____    ______ ____
ROOT
ATOM      1  O   UNL     1     -37.451  12.969  54.610  0.00  0.00    +0.000 OA
ATOM      2  O   UNL     1     -40.451  15.512  53.544  0.00  0.00    +0.000 OA
ATOM      3  C   UNL     1     -39.817  13.358  54.296  0.00  0.00    +0.000 A 
ATOM      4  C   UNL     1     -38.778  12.570  54.628  0.00  0.00    +0.000 A 
ATOM      5  C   UNL     1     -39.547  14.749  53.860  0.00  0.00    +0.000 A 
ATOM      6  C   UNL     1     -38.136  15.164  53.830  0.00  0.00    +0.000 A 
ATOM      7  C   UNL     1     -37.157  14.247  54.208  0.00  0.00    +0.000 A 
ATOM      8  C   UNL     1     -37.779  16.453  53.430  0.00  0.00    +0.000 A 
ATOM      9  C   UNL     1     -35.812  14.616  54.189  0.00  0.00    +0.000 A 
ATOM     10  C   UNL     1     -36.432  16.819  53.412  0.00  0.00    +0.000 A 
ATOM     11  C   UNL     1     -35.451  15.902  53.791  0.00  0.00    +0.000 A 
ENDROOT
BRANCH   4  12
ATOM     12  C   UNL     1     -38.953  11.178  55.080  0.00  0.00    +0.000 A 
ATOM     13  C   UNL     1     -39.505  10.916  56.334  0.00  0.00    +0.000 A 
ATOM     14  C   UNL     1     -38.568  10.123  54.253  0.00  0.00    +0.000 A 
ATOM     15  C   UNL     1     -39.672   9.598  56.760  0.00  0.00    +0.000 A 
ATOM     16  C   UNL     1     -38.735   8.806  54.680  0.00  0.00    +0.000 A 
ATOM     17  C   UNL     1     -39.287   8.543  55.933  0.00  0.00    +0.000 A 
BRANCH  17  18
ATOM     18  O   UNL     1     -39.450   7.258  56.349  0.00  0.00    +0.000 OA
ATOM     19  C   UNL     1     -38.914   6.916  57.626  0.00  0.00    +0.000 C 
ENDBRANCH  17  18
ENDBRANCH   4  12
BRANCH   8  20
ATOM     20  O   UNL     1     -38.696  17.387  53.052  0.00  0.00    +0.000 OA
ATOM     21  H   UNL     1     -39.593  17.021  53.099  0.00  0.00    +0.000 HD
ENDBRANCH   8  20
BRANCH  11  22
ATOM     22  O   UNL     1     -34.139  16.264  53.771  0.00  0.00    +0.000 OA
ATOM     23  H   UNL     1     -33.747  16.081  54.642  0.00  0.00    +0.000 HD
ENDBRANCH  11  22
BRANCH   3  24
ATOM     24  O   UNL     1     -41.128  12.940  54.358  0.00  0.00    +0.000 OA
BRANCH  24  30
ATOM     25  O   UNL     1     -41.314  11.627  52.421  0.00  0.00    +0.000 OA
ATOM     26  C   UNL     1     -43.886  12.755  51.829  0.00  0.00    +0.000 C 
ATOM     27  C   UNL     1     -43.358  11.525  51.086  0.00  0.00    +0.000 C 
ATOM     28  C   UNL     1     -43.233  12.881  53.205  0.00  0.00    +0.000 C 
ATOM     29  C   UNL     1     -41.823  11.516  51.088  0.00  0.00    +0.000 C 
ATOM     30  C   UNL     1     -41.712  12.841  53.062  0.00  0.00    +0.000 C 
BRANCH  26  31
ATOM     31  O   UNL     1     -45.300  12.647  51.966  0.00  0.00    +0.000 OA
ATOM     32  H   UNL     1     -45.486  12.396  52.886  0.00  0.00    +0.000 HD
ENDBRANCH  26  31
BRANCH  27  33
ATOM     33  O   UNL     1     -43.823  11.550  49.739  0.00  0.00    +0.000 OA
ATOM     34  H   UNL     1     -44.296  12.387  49.600  0.00  0.00    +0.000 HD
ENDBRANCH  27  33
BRANCH  28  35
ATOM     35  O   UNL     1     -43.634  11.782  54.029  0.00  0.00    +0.000 OA
ATOM     36  H   UNL     1     -43.965  12.135  54.872  0.00  0.00    +0.000 HD
ENDBRANCH  28  35
BRANCH  29  37
ATOM     37  C   UNL     1     -41.269  10.226  50.491  0.00  0.00    +0.000 C 
BRANCH  37  38
ATOM     38  O   UNL     1     -42.268   9.226  50.575  0.00  0.00    +0.000 OA
ATOM     39  H   UNL     1     -41.844   8.378  50.360  0.00  0.00    +0.000 HD
ENDBRANCH  37  38
ENDBRANCH  29  37
ENDBRANCH  24  30
ENDBRANCH   3  24
TORSDOF 11
ENDMDL
MODEL 8
REMARK VINA RESULT:    -6.526     19.252     21.800
REMARK INTER + INTRA:         -10.455
REMARK INTER:                  -9.351
REMARK INTRA:                  -1.105
REMARK UNBOUND:                -0.877
REMARK  Name = 74978140
REMARK  12 active torsions:
REMARK  status: ('A' for Active; 'I' for Inactive)
REMARK    1  A    between atoms: O_2  and  C_16
REMARK    2  A    between atoms: O_2  and  C_18
REMARK    3  A    between atoms: O_3  and  C_12
REMARK    4  A    between atoms: O_4  and  C_13
REMARK    5  A    between atoms: O_5  and  C_14
REMARK    6  A    between atoms: O_6  and  C_17
REMARK    7  A    between atoms: O_9  and  C_24
REMARK    8  A    between atoms: O_10  and  C_29
REMARK    9  A    between atoms: O_11  and  C_32
REMARK   10  A    between atoms: O_11  and  C_33
REMARK   11  A    between atoms: C_15  and  C_17
REMARK   12  A    between atoms: C_19  and  C_23
REMARK                            x       y       z     vdW  Elec       q    Type
REMARK                         _______ _______ _______ _____ _____    ______ ____
ROOT
ATOM      1  O   UNL     1     -39.827  14.430  53.585  0.00  0.00    +0.000 OA
ATOM      2  O   UNL     1     -36.522  16.768  54.043  0.00  0.00    +0.000 OA
ATOM      3  C   UNL     1     -37.634  14.742  54.556  0.00  0.00    +0.000 A 
ATOM      4  C   UNL     1     -38.756  14.025  54.367  0.00  0.00    +0.000 A 
ATOM      5  C   UNL     1     -37.517  16.070  53.907  0.00  0.00    +0.000 A 
ATOM      6  C   UNL     1     -38.661  16.501  53.089  0.00  0.00    +0.000 A 
ATOM      7  C   UNL     1     -39.761  15.654  52.970  0.00  0.00    +0.000 A 
ATOM      8  C   UNL     1     -38.649  17.737  52.439  0.00  0.00    +0.000 A 
ATOM      9  C   UNL     1     -40.858  16.039  52.199  0.00  0.00    +0.000 A 
ATOM     10  C   UNL     1     -39.748  18.120  51.668  0.00  0.00    +0.000 A 
ATOM     11  C   UNL     1     -40.850  17.272  51.549  0.00  0.00    +0.000 A 
ENDROOT
BRANCH   4  12
ATOM     12  C   UNL     1     -38.955  12.693  54.966  0.00  0.00    +0.000 A 
ATOM     13  C   UNL     1     -38.581  11.549  54.262  0.00  0.00    +0.000 A 
ATOM     14  C   UNL     1     -39.515  12.577  56.238  0.00  0.00    +0.000 A 
ATOM     15  C   UNL     1     -38.767  10.288  54.831  0.00  0.00    +0.000 A 
ATOM     16  C   UNL     1     -39.702  11.317  56.806  0.00  0.00    +0.000 A 
ATOM     17  C   UNL     1     -39.328  10.172  56.102  0.00  0.00    +0.000 A 
BRANCH  17  18
ATOM     18  O   UNL     1     -39.509   8.943  56.658  0.00  0.00    +0.000 OA
ATOM     19  C   UNL     1     -38.950   7.829  55.963  0.00  0.00    +0.000 C 
ENDBRANCH  17  18
ENDBRANCH   4  12
BRANCH   8  20
ATOM     20  O   UNL     1     -37.599  18.601  52.520  0.00  0.00    +0.000 OA
ATOM     21  H   UNL     1     -36.759  18.124  52.439  0.00  0.00    +0.000 HD
ENDBRANCH   8  20
BRANCH  11  22
ATOM     22  O   UNL     1     -41.920  17.651  50.797  0.00  0.00    +0.000 OA
ATOM     23  H   UNL     1     -42.735  17.346  51.231  0.00  0.00    +0.000 HD
ENDBRANCH  11  22
BRANCH   3  24
ATOM     24  O   UNL     1     -36.573  14.295  55.313  0.00  0.00    +0.000 OA
BRANCH  24  30
ATOM     25  O   UNL     1     -36.759  14.182  57.650  0.00  0.00    +0.000 OA
ATOM     26  C   UNL     1     -34.859  16.311  57.964  0.00  0.00    +0.000 C 
ATOM     27  C   UNL     1     -35.315  15.459  59.152  0.00  0.00    +0.000 C 
ATOM     28  C   UNL     1     -35.023  15.546  56.651  0.00  0.00    +0.000 C 
ATOM     29  C   UNL     1     -36.716  14.887  58.895  0.00  0.00    +0.000 C 
ATOM     30  C   UNL     1     -36.453  15.020  56.532  0.00  0.00    +0.000 C 
BRANCH  26  31
ATOM     31  O   UNL     1     -33.495  16.680  58.149  0.00  0.00    +0.000 OA
ATOM     32  H   UNL     1     -33.408  17.038  59.048  0.00  0.00    +0.000 HD
ENDBRANCH  26  31
BRANCH  27  33
ATOM     33  O   UNL     1     -35.347  16.264  60.327  0.00  0.00    +0.000 OA
ATOM     34  H   UNL     1     -36.204  16.126  60.763  0.00  0.00    +0.000 HD
ENDBRANCH  27  33
BRANCH  28  35
ATOM     35  O   UNL     1     -34.132  14.426  56.634  0.00  0.00    +0.000 OA
ATOM     36  H   UNL     1     -34.635  13.637  56.373  0.00  0.00    +0.000 HD
ENDBRANCH  28  35
BRANCH  29  37
ATOM     37  C   UNL     1     -37.133  13.910  59.990  0.00  0.00    +0.000 C 
BRANCH  37  38
ATOM     38  O   UNL     1     -36.024  13.691  60.843  0.00  0.00    +0.000 OA
ATOM     39  H   UNL     1     -36.159  12.830  61.274  0.00  0.00    +0.000 HD
ENDBRANCH  37  38
ENDBRANCH  29  37
ENDBRANCH  24  30
ENDBRANCH   3  24
TORSDOF 11
ENDMDL
MODEL 9
REMARK VINA RESULT:    -6.409      5.317      8.896
REMARK INTER + INTRA:         -10.284
REMARK INTER:                  -9.304
REMARK INTRA:                  -0.979
REMARK UNBOUND:                -0.877
REMARK  Name = 74978140
REMARK  12 active torsions:
REMARK  status: ('A' for Active; 'I' for Inactive)
REMARK    1  A    between atoms: O_2  and  C_16
REMARK    2  A    between atoms: O_2  and  C_18
REMARK    3  A    between atoms: O_3  and  C_12
REMARK    4  A    between atoms: O_4  and  C_13
REMARK    5  A    between atoms: O_5  and  C_14
REMARK    6  A    between atoms: O_6  and  C_17
REMARK    7  A    between atoms: O_9  and  C_24
REMARK    8  A    between atoms: O_10  and  C_29
REMARK    9  A    between atoms: O_11  and  C_32
REMARK   10  A    between atoms: O_11  and  C_33
REMARK   11  A    between atoms: C_15  and  C_17
REMARK   12  A    between atoms: C_19  and  C_23
REMARK                            x       y       z     vdW  Elec       q    Type
REMARK                         _______ _______ _______ _____ _____    ______ ____
ROOT
ATOM      1  O   UNL     1     -22.262  -3.241  65.355  0.00  0.00    +0.000 OA
ATOM      2  O   UNL     1     -21.707  -1.707  61.622  0.00  0.00    +0.000 OA
ATOM      3  C   UNL     1     -22.594  -3.440  62.968  0.00  0.00    +0.000 A 
ATOM      4  C   UNL     1     -22.736  -3.892  64.227  0.00  0.00    +0.000 A 
ATOM      5  C   UNL     1     -21.868  -2.167  62.744  0.00  0.00    +0.000 A 
ATOM      6  C   UNL     1     -21.357  -1.486  63.943  0.00  0.00    +0.000 A 
ATOM      7  C   UNL     1     -21.582  -2.062  65.192  0.00  0.00    +0.000 A 
ATOM      8  C   UNL     1     -20.657  -0.282  63.837  0.00  0.00    +0.000 A 
ATOM      9  C   UNL     1     -21.107  -1.435  66.345  0.00  0.00    +0.000 A 
ATOM     10  C   UNL     1     -20.184   0.343  64.992  0.00  0.00    +0.000 A 
ATOM     11  C   UNL     1     -20.409  -0.233  66.243  0.00  0.00    +0.000 A 
ENDROOT
BRANCH   4  12
ATOM     12  C   UNL     1     -23.449  -5.144  64.544  0.00  0.00    +0.000 A 
ATOM     13  C   UNL     1     -22.948  -6.364  64.093  0.00  0.00    +0.000 A 
ATOM     14  C   UNL     1     -24.623  -5.106  65.294  0.00  0.00    +0.000 A 
ATOM     15  C   UNL     1     -23.622  -7.548  64.394  0.00  0.00    +0.000 A 
ATOM     16  C   UNL     1     -25.297  -6.289  65.594  0.00  0.00    +0.000 A 
ATOM     17  C   UNL     1     -24.796  -7.511  65.145  0.00  0.00    +0.000 A 
BRANCH  17  18
ATOM     18  O   UNL     1     -25.454  -8.665  65.439  0.00  0.00    +0.000 OA
ATOM     19  C   UNL     1     -26.543  -9.026  64.589  0.00  0.00    +0.000 C 
ENDBRANCH  17  18
ENDBRANCH   4  12
BRANCH   8  20
ATOM     20  O   UNL     1     -20.412   0.323  62.642  0.00  0.00    +0.000 OA
ATOM     21  H   UNL     1     -19.681   0.956  62.725  0.00  0.00    +0.000 HD
ENDBRANCH   8  20
BRANCH  11  22
ATOM     22  O   UNL     1     -19.944   0.380  67.366  0.00  0.00    +0.000 OA
ATOM     23  H   UNL     1     -19.628  -0.298  67.988  0.00  0.00    +0.000 HD
ENDBRANCH  11  22
BRANCH   3  24
ATOM     24  O   UNL     1     -23.107  -4.097  61.871  0.00  0.00    +0.000 OA
BRANCH  24  30
ATOM     25  O   UNL     1     -23.941  -3.003  59.969  0.00  0.00    +0.000 OA
ATOM     26  C   UNL     1     -26.642  -3.611  60.728  0.00  0.00    +0.000 C 
ATOM     27  C   UNL     1     -26.301  -3.065  59.339  0.00  0.00    +0.000 C 
ATOM     28  C   UNL     1     -25.437  -4.325  61.342  0.00  0.00    +0.000 C 
ATOM     29  C   UNL     1     -25.006  -2.242  59.390  0.00  0.00    +0.000 C 
ATOM     30  C   UNL     1     -24.219  -3.403  61.313  0.00  0.00    +0.000 C 
BRANCH  26  31
ATOM     31  O   UNL     1     -27.741  -4.511  60.620  0.00  0.00    +0.000 OA
ATOM     32  H   UNL     1     -27.433  -5.292  60.130  0.00  0.00    +0.000 HD
ENDBRANCH  26  31
BRANCH  27  33
ATOM     33  O   UNL     1     -27.365  -2.233  58.884  0.00  0.00    +0.000 OA
ATOM     34  H   UNL     1     -27.243  -1.349  59.270  0.00  0.00    +0.000 HD
ENDBRANCH  27  33
BRANCH  28  35
ATOM     35  O   UNL     1     -25.131  -5.494  60.576  0.00  0.00    +0.000 OA
ATOM     36  H   UNL     1     -25.080  -6.253  61.182  0.00  0.00    +0.000 HD
ENDBRANCH  28  35
BRANCH  29  37
ATOM     37  C   UNL     1     -24.559  -1.814  57.995  0.00  0.00    +0.000 C 
BRANCH  37  38
ATOM     38  O   UNL     1     -25.329  -0.693  57.600  0.00  0.00    +0.000 OA
ATOM     39  H   UNL     1     -26.169  -1.032  57.247  0.00  0.00    +0.000 HD
ENDBRANCH  37  38
ENDBRANCH  29  37
ENDBRANCH  24  30
ENDBRANCH   3  24
TORSDOF 11
ENDMDL
MODEL 10
REMARK VINA RESULT:    -6.358     19.384     22.346
REMARK INTER + INTRA:         -10.208
REMARK INTER:                  -9.105
REMARK INTRA:                  -1.103
REMARK UNBOUND:                -0.877
REMARK  Name = 74978140
REMARK  12 active torsions:
REMARK  status: ('A' for Active; 'I' for Inactive)
REMARK    1  A    between atoms: O_2  and  C_16
REMARK    2  A    between atoms: O_2  and  C_18
REMARK    3  A    between atoms: O_3  and  C_12
REMARK    4  A    between atoms: O_4  and  C_13
REMARK    5  A    between atoms: O_5  and  C_14
REMARK    6  A    between atoms: O_6  and  C_17
REMARK    7  A    between atoms: O_9  and  C_24
REMARK    8  A    between atoms: O_10  and  C_29
REMARK    9  A    between atoms: O_11  and  C_32
REMARK   10  A    between atoms: O_11  and  C_33
REMARK   11  A    between atoms: C_15  and  C_17
REMARK   12  A    between atoms: C_19  and  C_23
REMARK                            x       y       z     vdW  Elec       q    Type
REMARK                         _______ _______ _______ _____ _____    ______ ____
ROOT
ATOM      1  O   UNL     1     -41.189  11.221  51.815  0.00  0.00    +0.000 OA
ATOM      2  O   UNL     1     -40.850  15.278  51.980  0.00  0.00    +0.000 OA
ATOM      3  C   UNL     1     -40.499  13.190  53.038  0.00  0.00    +0.000 A 
ATOM      4  C   UNL     1     -40.647  11.857  52.920  0.00  0.00    +0.000 A 
ATOM      5  C   UNL     1     -40.957  14.060  51.929  0.00  0.00    +0.000 A 
ATOM      6  C   UNL     1     -41.543  13.381  50.764  0.00  0.00    +0.000 A 
ATOM      7  C   UNL     1     -41.629  11.990  50.768  0.00  0.00    +0.000 A 
ATOM      8  C   UNL     1     -42.007  14.113  49.669  0.00  0.00    +0.000 A 
ATOM      9  C   UNL     1     -42.180  11.322  49.675  0.00  0.00    +0.000 A 
ATOM     10  C   UNL     1     -42.559  13.442  48.576  0.00  0.00    +0.000 A 
ATOM     11  C   UNL     1     -42.644  12.050  48.579  0.00  0.00    +0.000 A 
ENDROOT
BRANCH   4  12
ATOM     12  C   UNL     1     -40.212  10.917  53.969  0.00  0.00    +0.000 A 
ATOM     13  C   UNL     1     -40.972  10.767  55.129  0.00  0.00    +0.000 A 
ATOM     14  C   UNL     1     -39.043  10.175  53.800  0.00  0.00    +0.000 A 
ATOM     15  C   UNL     1     -40.562   9.875  56.120  0.00  0.00    +0.000 A 
ATOM     16  C   UNL     1     -38.633   9.284  54.791  0.00  0.00    +0.000 A 
ATOM     17  C   UNL     1     -39.392   9.134  55.952  0.00  0.00    +0.000 A 
BRANCH  17  18
ATOM     18  O   UNL     1     -38.992   8.264  56.918  0.00  0.00    +0.000 OA
ATOM     19  C   UNL     1     -38.681   6.934  56.504  0.00  0.00    +0.000 C 
ENDBRANCH  17  18
ENDBRANCH   4  12
BRANCH   8  20
ATOM     20  O   UNL     1     -41.946  15.473  49.614  0.00  0.00    +0.000 OA
ATOM     21  H   UNL     1     -41.674  15.766  48.730  0.00  0.00    +0.000 HD
ENDBRANCH   8  20
BRANCH  11  22
ATOM     22  O   UNL     1     -43.184  11.400  47.511  0.00  0.00    +0.000 OA
ATOM     23  H   UNL     1     -42.734  11.696  46.702  0.00  0.00    +0.000 HD
ENDBRANCH  11  22
BRANCH   3  24
ATOM     24  O   UNL     1     -39.924  13.788  54.138  0.00  0.00    +0.000 OA
BRANCH  24  30
ATOM     25  O   UNL     1     -38.666  15.767  54.235  0.00  0.00    +0.000 OA
ATOM     26  C   UNL     1     -36.210  14.282  54.199  0.00  0.00    +0.000 C 
ATOM     27  C   UNL     1     -36.240  15.777  54.524  0.00  0.00    +0.000 C 
ATOM     28  C   UNL     1     -37.558  13.630  54.511  0.00  0.00    +0.000 C 
ATOM     29  C   UNL     1     -37.459  16.444  53.870  0.00  0.00    +0.000 C 
ATOM     30  C   UNL     1     -38.679  14.401  53.815  0.00  0.00    +0.000 C 
BRANCH  26  31
ATOM     31  O   UNL     1     -35.178  13.658  54.957  0.00  0.00    +0.000 OA
ATOM     32  H   UNL     1     -34.895  12.866  54.470  0.00  0.00    +0.000 HD
ENDBRANCH  26  31
BRANCH  27  33
ATOM     33  O   UNL     1     -35.052  16.391  54.032  0.00  0.00    +0.000 OA
ATOM     34  H   UNL     1     -34.616  15.765  53.430  0.00  0.00    +0.000 HD
ENDBRANCH  27  33
BRANCH  28  35
ATOM     35  O   UNL     1     -37.795  13.673  55.922  0.00  0.00    +0.000 OA
ATOM     36  H   UNL     1     -38.630  13.212  56.107  0.00  0.00    +0.000 HD
ENDBRANCH  28  35
BRANCH  29  37
ATOM     37  C   UNL     1     -37.600  17.900  54.302  0.00  0.00    +0.000 C 
BRANCH  37  38
ATOM     38  O   UNL     1     -36.725  18.689  53.516  0.00  0.00    +0.000 OA
ATOM     39  H   UNL     1     -37.144  19.560  53.406  0.00  0.00    +0.000 HD
ENDBRANCH  37  38
ENDBRANCH  29  37
ENDBRANCH  24  30
ENDBRANCH   3  24
TORSDOF 11
ENDMDL
