REMARK  11 active torsions:
REMARK  status: ('A' for Active; 'I' for Inactive)
REMARK    1  A    between atoms: O_2  and  C_16 
REMARK    2  A    between atoms: O_2  and  C_18 
REMARK    3  A    between atoms: O_3  and  C_12 
REMARK    4  A    between atoms: O_4  and  C_13 
REMARK    5  A    between atoms: O_5  and  C_14 
REMARK    6  A    between atoms: O_6  and  C_17 
REMARK    7  A    between atoms: O_8  and  C_23 
REMARK    8  A    between atoms: O_10  and  C_30 
REMARK    9  A    between atoms: O_11  and  C_32 
REMARK   10  A    between atoms: C_15  and  C_17 
REMARK   11  A    between atoms: C_25  and  C_27 
ROOT
HETATM    1  O   UNK N   1       1.736   0.080   0.319  0.00  0.00    -0.309 OA
HETATM    2  O   UNK N   1       2.345   3.876  -0.637  0.00  0.00    -0.287 OA
HETATM    3  C   UNK N   1      -1.633   1.236   0.974  0.00  0.00     0.077 A 
HETATM    4  C   UNK N   1      -0.521   0.399   0.839  0.00  0.00     0.075 A 
HETATM    5  C   UNK N   1      -1.519   2.589   0.663  0.00  0.00     0.074 A 
HETATM    6  C   UNK N   1       0.702   0.911   0.408  0.00  0.00     0.095 A 
HETATM    7  C   UNK N   1       0.839   2.286   0.083  0.00  0.00     0.081 A 
HETATM    8  C   UNK N   1      -0.314   3.133   0.203  0.00  0.00     0.085 A 
HETATM    9  C   UNK N   1       2.124   2.722  -0.330  0.00  0.00     0.190 A 
HETATM   10  C   UNK N   1       2.956   0.467  -0.037  0.00  0.00     0.090 A 
HETATM   11  C   UNK N   1       3.180   1.810  -0.375  0.00  0.00     0.094 A 
ENDROOT
BRANCH   3  12
HETATM   12  O   UNK N   1      -2.831   0.751   1.382  0.00  0.00    -0.318 OA
BRANCH  12  13
HETATM   13  C   UNK N   1      -3.425  -0.333   0.767  0.00  0.00     0.298 C 
HETATM   14  O   UNK N   1      -3.650   0.031  -0.583  0.00  0.00    -0.348 OA
HETATM   15  C   UNK N   1      -4.189  -1.040  -1.330  0.00  0.00     0.179 C 
HETATM   16  C   UNK N   1      -5.597  -1.392  -0.791  0.00  0.00     0.180 C 
HETATM   17  C   UNK N   1      -5.492  -1.777   0.701  0.00  0.00     0.183 C 
HETATM   18  C   UNK N   1      -4.766  -0.650   1.461  0.00  0.00     0.205 C 
BRANCH  15  19
HETATM   19  C   UNK N   1      -4.248  -0.596  -2.797  0.00  0.00     0.198 C 
BRANCH  19  20
HETATM   20  O   UNK N   1      -2.960  -0.305  -3.273  0.00  0.00    -0.398 OA
HETATM   21  H   UNK N   1      -2.710   0.584  -2.908  0.00  0.00     0.209 HD
ENDBRANCH  19  20
ENDBRANCH  15  19
BRANCH  16  22
HETATM   22  O   UNK N   1      -6.189  -2.426  -1.537  0.00  0.00    -0.390 OA
HETATM   23  H   UNK N   1      -5.587  -3.214  -1.485  0.00  0.00     0.210 HD
ENDBRANCH  16  22
BRANCH  17  24
HETATM   24  O   UNK N   1      -6.766  -1.971   1.257  0.00  0.00    -0.390 OA
HETATM   25  H   UNK N   1      -7.139  -2.794   0.847  0.00  0.00     0.210 HD
ENDBRANCH  17  24
BRANCH  18  26
HETATM   26  O   UNK N   1      -4.573  -0.993   2.811  0.00  0.00    -0.388 OA
HETATM   27  H   UNK N   1      -3.988  -1.796   2.837  0.00  0.00     0.210 HD
ENDBRANCH  18  26
ENDBRANCH  12  13
ENDBRANCH   3  12
BRANCH   8  28
HETATM   28  O   UNK N   1      -0.320   4.451  -0.106  0.00  0.00    -0.360 OA
HETATM   29  H   UNK N   1       0.406   4.953  -0.486  0.00  0.00     0.217 HD
ENDBRANCH   8  28
BRANCH  10  30
HETATM   30  C   UNK N   1       4.046  -0.548  -0.049  0.00  0.00     0.001 A 
HETATM   31  C   UNK N   1       5.406  -0.182   0.026  0.00  0.00     0.053 A 
HETATM   32  C   UNK N   1       6.408  -1.159   0.046  0.00  0.00     0.099 A 
HETATM   33  C   UNK N   1       6.062  -2.519  -0.035  0.00  0.00     0.098 A 
HETATM   34  C   UNK N   1       4.713  -2.888  -0.115  0.00  0.00     0.040 A 
HETATM   35  C   UNK N   1       3.714  -1.913  -0.109  0.00  0.00     0.017 A 
BRANCH  32  36
HETATM   36  O   UNK N   1       7.698  -0.773   0.150  0.00  0.00    -0.358 OA
HETATM   37  H   UNK N   1       8.426  -1.409   0.196  0.00  0.00     0.218 HD
ENDBRANCH  32  36
BRANCH  33  38
HETATM   38  O   UNK N   1       7.026  -3.464  -0.032  0.00  0.00    -0.358 OA
HETATM   39  H   UNK N   1       6.817  -4.407  -0.095  0.00  0.00     0.218 HD
ENDBRANCH  33  38
ENDBRANCH  10  30
TORSDOF 11
