REMARK  Name = 370
REMARK                            x       y       z     vdW  Elec       q    Type
REMARK                         _______ _______ _______ _____ _____    ______ ____
ROOT
ATOM      3  C   LIG    1        1.753  -0.014   0.000  0.00  0.00    +0.201 A 
ATOM      4  C   LIG    1        1.031  -1.208   0.001  0.00  0.00    +0.163 A 
ATOM      5  C   LIG    1       -0.363  -1.180   0.001  0.00  0.00    +0.064 A 
ATOM      6  C   LIG    1       -1.037   0.042   0.001  0.00  0.00    +0.066 A 
ATOM     11  C   LIG    1       -0.315   1.235   0.000  0.00  0.00    +0.064 A 
ATOM     14  C   LIG    1        1.079   1.208   0.000  0.00  0.00    +0.163 A 
ENDROOT
BRANCH   3   1
ATOM      1  O   LIG    1        3.116  -0.041  -0.001  0.00  0.00    -0.501 OA
ATOM      2  H   LIG    1        3.441   0.876  -0.001  0.00  0.00    +0.292 HD
ENDBRANCH   3   1
BRANCH   6   7
ATOM      7  C   LIG    1       -2.491   0.071   0.000  0.00  0.00    +0.337 C 
ATOM      8  O   LIG    1       -3.186   1.092  -0.000  0.00  0.00    -0.245 OA
BRANCH   7   9
ATOM      9  O   LIG    1       -3.036  -1.176  -0.001  0.00  0.00    -0.477 OA
ATOM     10  H   LIG    1       -4.017  -1.146  -0.002  0.00  0.00    +0.295 HD
ENDBRANCH   7   9
ENDBRANCH   6   7
BRANCH   4  12
ATOM     12  O   LIG    1        1.677  -2.408  -0.001  0.00  0.00    -0.503 OA
ATOM     13  H   LIG    1        2.635  -2.239  -0.001  0.00  0.00    +0.292 HD
ENDBRANCH   4  12
BRANCH  14  15
ATOM     15  O   LIG    1        1.773   2.380  -0.000  0.00  0.00    -0.503 OA
ATOM     16  H   LIG    1        1.143   3.122  -0.001  0.00  0.00    +0.292 HD
ENDBRANCH  14  15
TORSDOF 5
