REMARK  Name = 452707
REMARK  21 active torsions:
REMARK  status: ('A' for Active; 'I' for Inactive)
REMARK    1  A    between atoms: O_2  and  C_19
REMARK    2  A    between atoms: O_2  and  C_25
REMARK    3  A    between atoms: O_3  and  C_20
REMARK    4  A    between atoms: O_4  and  C_22
REMARK    5  A    between atoms: O_5  and  C_23
REMARK    6  A    between atoms: O_5  and  C_26
REMARK    7  A    between atoms: O_6  and  C_24
REMARK    8  A    between atoms: O_6  and  C_28
REMARK    9  A    between atoms: O_10  and  C_35
REMARK   10  A    between atoms: O_11  and  C_36
REMARK   11  A    between atoms: O_12  and  C_39
REMARK   12  A    between atoms: O_13  and  C_40
REMARK   13  A    between atoms: O_14  and  C_41
REMARK   14  A    between atoms: O_15  and  C_42
REMARK   15  A    between atoms: O_16  and  C_43
REMARK   16  A    between atoms: O_17  and  C_44
REMARK   17  A    between atoms: O_18  and  C_45
REMARK   18  A    between atoms: C_21  and  C_24
REMARK   19  A    between atoms: C_25  and  C_27
REMARK   20  A    between atoms: C_26  and  C_29
REMARK   21  A    between atoms: C_28  and  C_30
REMARK                            x       y       z     vdW  Elec       q    Type
REMARK                         _______ _______ _______ _____ _____    ______ ____
ROOT
ATOM      1  O   UNL     1      -0.400  -0.497   0.051  0.00  0.00    -0.330 OA
ATOM      2  C   UNL     1       0.226   0.510  -0.741  0.00  0.00    +0.344 C 
ATOM      3  C   UNL     1       1.737   0.513  -0.508  0.00  0.00    +0.226 C 
ATOM      4  C   UNL     1       2.337  -0.875  -0.734  0.00  0.00    +0.242 C 
ATOM      5  C   UNL     1       1.541  -1.950   0.006  0.00  0.00    +0.190 C 
ATOM      6  C   UNL     1       0.044  -1.813  -0.285  0.00  0.00    +0.192 C 
ENDROOT
BRANCH   3   7
ATOM      7  O   UNL     1       2.328   1.439  -1.420  0.00  0.00    -0.382 OA
ATOM      8  H   UNL     1       2.140   1.134  -2.324  0.00  0.00    +0.210 HD
ENDBRANCH   3   7
BRANCH   5   9
ATOM      9  O   UNL     1       1.986  -3.237  -0.411  0.00  0.00    -0.385 OA
ATOM     10  H   UNL     1       1.807  -3.324  -1.363  0.00  0.00    +0.210 HD
ENDBRANCH   5   9
BRANCH   2  11
ATOM     11  O   UNL     1      -0.278   1.794  -0.374  0.00  0.00    -0.429 OA
BRANCH  11  12
ATOM     12  C   UNL     1      -1.617   1.969  -0.523  0.00  0.00    +0.342 C 
ATOM     13  O   UNL     1      -2.412   1.138  -0.935  0.00  0.00    -0.245 OA
BRANCH  12  14
ATOM     14  C   UNL     1      -2.013   3.340  -0.111  0.00  0.00    +0.066 A 
ATOM     15  C   UNL     1      -3.349   3.732  -0.185  0.00  0.00    +0.064 A 
ATOM     16  C   UNL     1      -3.720   5.021   0.200  0.00  0.00    +0.163 A 
ATOM     17  C   UNL     1      -2.755   5.917   0.659  0.00  0.00    +0.201 A 
ATOM     18  C   UNL     1      -1.418   5.524   0.733  0.00  0.00    +0.163 A 
ATOM     19  C   UNL     1      -1.047   4.236   0.348  0.00  0.00    +0.064 A 
BRANCH  16  20
ATOM     20  O   UNL     1      -5.029   5.391   0.122  0.00  0.00    -0.503 OA
ATOM     21  H   UNL     1      -5.551   4.644  -0.216  0.00  0.00    +0.292 HD
ENDBRANCH  16  20
BRANCH  17  22
ATOM     22  O   UNL     1      -3.118   7.175   1.036  0.00  0.00    -0.501 OA
ATOM     23  H   UNL     1      -2.320   7.651   1.325  0.00  0.00    +0.292 HD
ENDBRANCH  17  22
BRANCH  18  24
ATOM     24  O   UNL     1      -0.466   6.390   1.179  0.00  0.00    -0.503 OA
ATOM     25  H   UNL     1       0.400   5.948   1.163  0.00  0.00    +0.292 HD
ENDBRANCH  18  24
ENDBRANCH  12  14
ENDBRANCH  11  12
ENDBRANCH   2  11
BRANCH   6  26
ATOM     26  C   UNL     1      -0.782  -2.800   0.533  0.00  0.00    +0.266 C 
BRANCH  26  27
ATOM     27  O   UNL     1      -2.150  -2.609   0.221  0.00  0.00    -0.458 OA
BRANCH  27  28
ATOM     28  C   UNL     1      -3.036  -3.418   0.871  0.00  0.00    +0.340 C 
ATOM     29  O   UNL     1      -2.749  -4.281   1.687  0.00  0.00    -0.245 OA
BRANCH  28  30
ATOM     30  C   UNL     1      -4.431  -3.121   0.457  0.00  0.00    +0.066 A 
ATOM     31  C   UNL     1      -5.391  -4.132   0.462  0.00  0.00    +0.064 A 
ATOM     32  C   UNL     1      -6.700  -3.853   0.071  0.00  0.00    +0.163 A 
ATOM     33  C   UNL     1      -7.049  -2.562  -0.326  0.00  0.00    +0.201 A 
ATOM     34  C   UNL     1      -6.089  -1.551  -0.331  0.00  0.00    +0.163 A 
ATOM     35  C   UNL     1      -4.780  -1.830   0.060  0.00  0.00    +0.064 A 
BRANCH  32  36
ATOM     36  O   UNL     1      -7.628  -4.851   0.080  0.00  0.00    -0.503 OA
ATOM     37  H   UNL     1      -7.207  -5.673   0.383  0.00  0.00    +0.292 HD
ENDBRANCH  32  36
BRANCH  33  38
ATOM     38  O   UNL     1      -8.330  -2.290  -0.707  0.00  0.00    -0.501 OA
ATOM     39  H   UNL     1      -8.385  -1.348  -0.946  0.00  0.00    +0.292 HD
ENDBRANCH  33  38
BRANCH  34  40
ATOM     40  O   UNL     1      -6.418  -0.286  -0.717  0.00  0.00    -0.503 OA
ATOM     41  H   UNL     1      -5.629   0.280  -0.658  0.00  0.00    +0.292 HD
ENDBRANCH  34  40
ENDBRANCH  28  30
ENDBRANCH  27  28
ENDBRANCH  26  27
ENDBRANCH   6  26
BRANCH   4  42
ATOM     42  O   UNL     1       3.677  -0.899  -0.240  0.00  0.00    -0.452 OA
BRANCH  42  43
ATOM     43  C   UNL     1       4.643  -0.557  -1.132  0.00  0.00    +0.340 C 
ATOM     44  O   UNL     1       4.468  -0.237  -2.297  0.00  0.00    -0.245 OA
BRANCH  43  45
ATOM     45  C   UNL     1       5.984  -0.624  -0.498  0.00  0.00    +0.066 A 
ATOM     46  C   UNL     1       7.004   0.221  -0.935  0.00  0.00    +0.064 A 
ATOM     47  C   UNL     1       8.265   0.157  -0.341  0.00  0.00    +0.163 A 
ATOM     48  C   UNL     1       8.505  -0.752   0.690  0.00  0.00    +0.201 A 
ATOM     49  C   UNL     1       7.485  -1.597   1.126  0.00  0.00    +0.163 A 
ATOM     50  C   UNL     1       6.224  -1.532   0.533  0.00  0.00    +0.064 A 
BRANCH  47  51
ATOM     51  O   UNL     1       9.253   0.988  -0.777  0.00  0.00    -0.503 OA
ATOM     52  H   UNL     1       8.905   1.546  -1.494  0.00  0.00    +0.292 HD
ENDBRANCH  47  51
BRANCH  48  53
ATOM     53  O   UNL     1       9.737  -0.813   1.271  0.00  0.00    -0.501 OA
ATOM     54  H   UNL     1       9.716  -1.497   1.963  0.00  0.00    +0.292 HD
ENDBRANCH  48  53
BRANCH  49  55
ATOM     55  O   UNL     1       7.707  -2.489   2.132  0.00  0.00    -0.503 OA
ATOM     56  H   UNL     1       6.889  -2.988   2.301  0.00  0.00    +0.292 HD
ENDBRANCH  49  55
ENDBRANCH  43  45
ENDBRANCH  42  43
ENDBRANCH   4  42
TORSDOF 21
