REMARK  Name = 
REMARK                            x       y       z     vdW  Elec       q    Type
REMARK                         _______ _______ _______ _____ _____    ______ ____
ROOT
ATOM      1  O   LIG    1       -1.747  -3.800  -2.518  0.00  0.00    -0.314 OA
ATOM      2  C   LIG    1       -3.089  -3.291  -2.361  0.00  0.00    +0.335 C 
ATOM     15  C   LIG    1       -3.097  -1.739  -2.261  0.00  0.00    +0.282 C 
ATOM     28  C   LIG    1       -2.321  -1.126  -3.466  0.00  0.00    +0.257 C 
ATOM     41  C   LIG    1       -0.910  -1.767  -3.614  0.00  0.00    +0.242 C 
ATOM     54  C   LIG    1       -1.028  -3.320  -3.669  0.00  0.00    +0.195 C 
ENDROOT
BRANCH  54  55
ATOM     55  C   LIG    1        0.351  -4.027  -3.679  0.00  0.00    +0.215 C 
ATOM     56  O   LIG    1        0.189  -5.442  -3.712  0.00  0.00    -0.218 OA
ENDBRANCH  54  55
BRANCH   2   3
ATOM      3  O   LIG    1       -3.564  -3.871  -1.140  0.00  0.00    -0.417 OA
BRANCH   3   4
ATOM      4  C   LIG    1       -3.791  -5.210  -1.014  0.00  0.00    +0.343 C 
ATOM      5  O   LIG    1       -4.773  -5.685  -1.632  0.00  0.00    -0.245 OA
BRANCH   4   6
ATOM      6  C   LIG    1       -2.901  -6.026  -0.262  0.00  0.00    +0.082 A 
ATOM      7  C   LIG    1       -3.018  -7.438  -0.278  0.00  0.00    +0.052 A 
ATOM      8  C   LIG    1       -2.074  -8.255   0.375  0.00  0.00    +0.238 A 
ATOM      9  O   LIG    1       -2.201  -9.604   0.336  0.00  0.00    -0.283 OA
ATOM     10  C   LIG    1       -0.990  -7.667   1.057  0.00  0.00    +0.273 A 
ATOM     11  O   LIG    1       -0.045  -8.430   1.663  0.00  0.00    -0.280 OA
ATOM     12  C   LIG    1       -0.874  -6.266   1.109  0.00  0.00    +0.238 A 
ATOM     13  O   LIG    1        0.172  -5.703   1.766  0.00  0.00    -0.283 OA
ATOM     14  C   LIG    1       -1.830  -5.454   0.469  0.00  0.00    +0.052 A 
ENDBRANCH   4   6
ENDBRANCH   3   4
ENDBRANCH   2   3
BRANCH  15  16
ATOM     16  O   LIG    1       -4.434  -1.207  -2.266  0.00  0.00    -0.439 OA
BRANCH  16  17
ATOM     17  C   LIG    1       -5.418  -1.495  -1.366  0.00  0.00    +0.342 C 
ATOM     18  O   LIG    1       -6.326  -2.252  -1.783  0.00  0.00    -0.245 OA
BRANCH  17  19
ATOM     19  C   LIG    1       -5.472  -0.918  -0.067  0.00  0.00    +0.082 A 
ATOM     20  C   LIG    1       -6.362  -1.416   0.916  0.00  0.00    +0.052 A 
ATOM     21  C   LIG    1       -6.421  -0.847   2.203  0.00  0.00    +0.238 A 
ATOM     22  O   LIG    1       -7.293  -1.365   3.105  0.00  0.00    -0.283 OA
ATOM     23  C   LIG    1       -5.588   0.241   2.532  0.00  0.00    +0.273 A 
ATOM     24  O   LIG    1       -5.656   0.783   3.777  0.00  0.00    -0.280 OA
ATOM     25  C   LIG    1       -4.697   0.752   1.567  0.00  0.00    +0.238 A 
ATOM     26  O   LIG    1       -3.898   1.804   1.878  0.00  0.00    -0.283 OA
ATOM     27  C   LIG    1       -4.641   0.172   0.283  0.00  0.00    +0.052 A 
ENDBRANCH  17  19
ENDBRANCH  16  17
ENDBRANCH  15  16
BRANCH  28  29
ATOM     29  O   LIG    1       -2.161   0.299  -3.316  0.00  0.00    -0.441 OA
BRANCH  29  30
ATOM     30  C   LIG    1       -3.124   1.262  -3.462  0.00  0.00    +0.342 C 
ATOM     31  O   LIG    1       -3.232   2.073  -2.514  0.00  0.00    -0.245 OA
BRANCH  30  32
ATOM     32  C   LIG    1       -3.894   1.441  -4.646  0.00  0.00    +0.082 A 
ATOM     33  C   LIG    1       -5.146   2.103  -4.614  0.00  0.00    +0.052 A 
ATOM     34  C   LIG    1       -5.896   2.296  -5.792  0.00  0.00    +0.238 A 
ATOM     35  O   LIG    1       -7.097   2.927  -5.747  0.00  0.00    -0.283 OA
ATOM     36  C   LIG    1       -5.400   1.833  -7.025  0.00  0.00    +0.273 A 
ATOM     37  O   LIG    1       -6.124   2.033  -8.155  0.00  0.00    -0.280 OA
ATOM     38  C   LIG    1       -4.160   1.165  -7.074  0.00  0.00    +0.238 A 
ATOM     39  O   LIG    1       -3.692   0.700  -8.259  0.00  0.00    -0.283 OA
ATOM     40  C   LIG    1       -3.413   0.983  -5.895  0.00  0.00    +0.052 A 
ENDBRANCH  30  32
ENDBRANCH  29  30
ENDBRANCH  28  29
BRANCH  41  42
ATOM     42  O   LIG    1       -0.285  -1.313  -4.832  0.00  0.00    -0.443 OA
BRANCH  42  43
ATOM     43  C   LIG    1        0.440  -0.173  -5.051  0.00  0.00    +0.341 C 
ATOM     44  O   LIG    1        0.272   0.360  -6.172  0.00  0.00    -0.245 OA
BRANCH  43  45
ATOM     45  C   LIG    1        1.404   0.361  -4.159  0.00  0.00    +0.082 A 
ATOM     46  C   LIG    1        1.543   1.810  -4.097  0.00  0.00    +0.052 A 
ATOM     47  C   LIG    1        2.524   2.350  -3.237  0.00  0.00    +0.238 A 
ATOM     48  O   LIG    1        2.689   3.695  -3.173  0.00  0.00    -0.283 OA
ATOM     49  C   LIG    1        3.352   1.534  -2.432  0.00  0.00    +0.273 A 
ATOM     50  O   LIG    1        4.271   2.115  -1.613  0.00  0.00    -0.280 OA
ATOM     51  C   LIG    1        3.184   0.092  -2.515  0.00  0.00    +0.238 A 
ATOM     52  O   LIG    1        4.052  -0.607  -1.674  0.00  0.00    -0.283 OA
ATOM     53  C   LIG    1        2.206  -0.574  -3.392  0.00  0.00    +0.052 A 
ENDBRANCH  43  45
ENDBRANCH  42  43
ENDBRANCH  41  42
TORSDOF 13
