REMARK SMILES O=c1cc(-c2ccc(O)cc2)oc2cc(O)cc(O)c12
REMARK SMILES IDX 12 1 1 2 20 3 13 4 4 5 2 6 3 7 18 8 14 9 15 10 17 11 5 16
REMARK SMILES IDX 6 17 11 18 7 19 10 20 8 21 9 22 19 27 16 32
REMARK H PARENT 9 23 19 28 16 33
REMARK Flexibility Score: inf
ROOT
ATOM      1  O   UNL     1      -0.068   0.780  -0.048  1.00  0.00    -0.456 OA
ATOM      2  O   UNL     1      -1.726  -2.934   0.183  1.00  0.00    -0.289 OA
ATOM      3  C   UNL     1      -2.065  -0.600   0.035  1.00  0.00     0.107 A 
ATOM      4  C   UNL     1      -1.433   0.639  -0.043  1.00  0.00     0.146 A 
ATOM      5  C   UNL     1       0.714  -0.362   0.037  1.00  0.00     0.138 A 
ATOM      6  C   UNL     1      -1.239  -1.815   0.115  1.00  0.00     0.197 A 
ATOM      7  C   UNL     1       0.224  -1.610   0.109  1.00  0.00     0.100 A 
ATOM      8  C   UNL     1      -3.459  -0.683   0.035  1.00  0.00     0.134 A 
ATOM      9  C   UNL     1      -2.193   1.806  -0.122  1.00  0.00     0.094 A 
ATOM     10  C   UNL     1      -3.586   1.728  -0.122  1.00  0.00     0.123 A 
ATOM     11  C   UNL     1      -4.218   0.485  -0.043  1.00  0.00     0.093 A 
ATOM     12 WAT  UNL     1       0.553   2.322   2.450  1.00  0.00     0.000 W 
ATOM     13 WAT  UNL     1       0.573   1.953  -2.733  1.00  0.00     0.000 W 
ATOM     14 WAT  UNL     1       0.058  -5.340   0.343  1.00  0.00     0.000 W 
ATOM     15 WAT  UNL     1      -4.707  -3.275   0.189  1.00  0.00     0.000 W 
ENDROOT
BRANCH   5  16
ATOM     16  C   UNL     1       2.166  -0.097   0.018  1.00  0.00     0.018 A 
ATOM     17  C   UNL     1       3.043  -1.034  -0.536  1.00  0.00     0.016 A 
ATOM     18  C   UNL     1       2.670   1.091   0.552  1.00  0.00     0.016 A 
ATOM     19  C   UNL     1       4.415  -0.783  -0.555  1.00  0.00     0.047 A 
ATOM     20  C   UNL     1       4.042   1.341   0.533  1.00  0.00     0.047 A 
ATOM     21  C   UNL     1       4.915   0.404  -0.020  1.00  0.00     0.115 A 
BRANCH  21  22
ATOM     22  O   UNL     1       6.253   0.649  -0.039  1.00  0.00    -0.508 OA
ATOM     23  H   UNL     1       6.705  -0.104  -0.458  1.00  0.00     0.293 HD
ATOM     24 WAT  UNL     1       7.165   0.735   2.818  1.00  0.00     0.000 W 
ATOM     25 WAT  UNL     1       6.681   3.024  -1.822  1.00  0.00     0.000 W 
ATOM     26 WAT  UNL     1       7.635  -1.651  -1.318  1.00  0.00     0.000 W 
ENDBRANCH  21  22
ENDBRANCH   5  16
BRANCH   8  27
ATOM     27  O   UNL     1      -4.124  -1.870   0.109  1.00  0.00    -0.507 OA
ATOM     28  H   UNL     1      -3.497  -2.608   0.162  1.00  0.00     0.293 HD
ATOM     29 WAT  UNL     1      -5.600  -2.186  -2.483  1.00  0.00     0.000 W 
ATOM     30 WAT  UNL     1      -5.633  -1.844   2.702  1.00  0.00     0.000 W 
ATOM     31 WAT  UNL     1      -2.205  -4.131   0.271  1.00  0.00     0.000 W 
ENDBRANCH   8  27
BRANCH  10  32
ATOM     32  O   UNL     1      -4.331   2.865  -0.199  1.00  0.00    -0.508 OA
ATOM     33  H   UNL     1      -5.274   2.626  -0.187  1.00  0.00     0.293 HD
ATOM     34 WAT  UNL     1      -3.776   4.089  -2.881  1.00  0.00     0.000 W 
ATOM     35 WAT  UNL     1      -3.796   4.429   2.304  1.00  0.00     0.000 W 
ATOM     36 WAT  UNL     1      -7.212   2.134  -0.162  1.00  0.00     0.000 W 
ENDBRANCH  10  32
TORSDOF 4
