MODEL 1
REMARK VINA RESULT:    -6.506      0.000      0.000
REMARK INTER + INTRA:          -8.531
REMARK INTER:                  -7.699
REMARK INTRA:                  -0.831
REMARK CONF_INDEPENDENT:        1.193
REMARK UNBOUND:                -0.831
REMARK SMILES O=c1cc(-c2ccc(O)cc2)oc2cc(O)cc(O)c12
REMARK SMILES IDX 12 1 1 2 20 3 13 4 4 5 2 6 3 7 18 8 14 9 15 10 17 11 5 16
REMARK SMILES IDX 6 17 11 18 7 19 10 20 8 21 9 22 19 27 16 32
REMARK H PARENT 9 23 19 28 16 33
REMARK Flexibility Score: inf
ROOT
ATOM      1  O   UNL     1       0.725  -2.573  -1.179  1.00  0.00    -0.456 OA
ATOM      2  O   UNL     1      -1.392  -0.173   1.342  1.00  0.00    -0.289 OA
ATOM      3  C   UNL     1      -1.147  -2.301   0.344  1.00  0.00     0.107 A 
ATOM      4  C   UNL     1      -0.379  -3.067  -0.530  1.00  0.00     0.146 A 
ATOM      5  C   UNL     1       1.083  -1.251  -0.961  1.00  0.00     0.138 A 
ATOM      6  C   UNL     1      -0.765  -0.901   0.587  1.00  0.00     0.197 A 
ATOM      7  C   UNL     1       0.428  -0.417  -0.138  1.00  0.00     0.100 A 
ATOM      8  C   UNL     1      -2.260  -2.858   0.979  1.00  0.00     0.134 A 
ATOM      9  C   UNL     1      -0.718  -4.397  -0.775  1.00  0.00     0.094 A 
ATOM     10  C   UNL     1      -1.829  -4.957  -0.144  1.00  0.00     0.123 A 
ATOM     11  C   UNL     1      -2.599  -4.188   0.731  1.00  0.00     0.093 A 
ATOM     12 WAT  UNL     1       0.023  -2.705  -4.093  1.00  0.00     0.000 W 
ATOM     13 WAT  UNL     1       3.024  -4.178  -0.116  1.00  0.00     0.000 W 
ATOM     14 WAT  UNL     1      -0.519   2.666   1.758  1.00  0.00     0.000 W 
ATOM     15 WAT  UNL     1      -3.805  -1.226   2.782  1.00  0.00     0.000 W 
ENDROOT
BRANCH   5  16
ATOM     16  C   UNL     1       2.285  -0.825  -1.703  1.00  0.00     0.018 A 
ATOM     17  C   UNL     1       2.227   0.278  -2.559  1.00  0.00     0.016 A 
ATOM     18  C   UNL     1       3.487  -1.522  -1.553  1.00  0.00     0.016 A 
ATOM     19  C   UNL     1       3.364   0.681  -3.260  1.00  0.00     0.047 A 
ATOM     20  C   UNL     1       4.623  -1.118  -2.254  1.00  0.00     0.047 A 
ATOM     21  C   UNL     1       4.562  -0.017  -3.108  1.00  0.00     0.115 A 
BRANCH  21  22
ATOM     22  O   UNL     1       5.671   0.377  -3.791  1.00  0.00    -0.508 OA
ATOM     23  H   UNL     1       5.394   0.878  -4.578  1.00  0.00     0.293 HD
ATOM     24 WAT  UNL     1       7.020  -2.116  -4.774  1.00  0.00     0.000 W 
ATOM     25 WAT  UNL     1       7.157   2.287  -2.018  1.00  0.00     0.000 W 
ATOM     26 WAT  UNL     1       4.828   1.908  -6.195  1.00  0.00     0.000 W 
ENDBRANCH  21  22
ENDBRANCH   5  16
BRANCH   8  27
ATOM     27  O   UNL     1      -3.043  -2.151   1.841  1.00  0.00    -0.507 OA
ATOM     28  H   UNL     1      -3.253  -1.279   1.473  1.00  0.00     0.293 HD
ATOM     29 WAT  UNL     1      -1.390  -1.669   4.297  1.00  0.00     0.000 W 
ATOM     30 WAT  UNL     1      -5.641  -3.637   2.049  1.00  0.00     0.000 W 
ATOM     31 WAT  UNL     1      -3.686   0.521   0.716  1.00  0.00     0.000 W 
ENDBRANCH   8  27
BRANCH  10  32
ATOM     32  O   UNL     1      -2.164  -6.256  -0.381  1.00  0.00    -0.508 OA
ATOM     33  H   UNL     1      -2.940  -6.280  -0.966  1.00  0.00     0.293 HD
ATOM     34 WAT  UNL     1      -3.015  -7.429   2.245  1.00  0.00     0.000 W 
ATOM     35 WAT  UNL     1       0.114  -7.479  -1.903  1.00  0.00     0.000 W 
ATOM     36 WAT  UNL     1      -4.536  -6.329  -2.170  1.00  0.00     0.000 W 
ENDBRANCH  10  32
TORSDOF 4
ENDMDL
MODEL 2
REMARK VINA RESULT:    -6.275      2.124      5.122
REMARK INTER + INTRA:          -8.291
REMARK INTER:                  -7.468
REMARK INTRA:                  -0.822
REMARK CONF_INDEPENDENT:        1.193
REMARK UNBOUND:                -0.822
REMARK SMILES O=c1cc(-c2ccc(O)cc2)oc2cc(O)cc(O)c12
REMARK SMILES IDX 12 1 1 2 20 3 13 4 4 5 2 6 3 7 18 8 14 9 15 10 17 11 5 16
REMARK SMILES IDX 6 17 11 18 7 19 10 20 8 21 9 22 19 27 16 32
REMARK H PARENT 9 23 19 28 16 33
REMARK Flexibility Score: inf
ROOT
ATOM      1  O   UNL     1      -0.107  -1.113  -0.005  1.00  0.00    -0.456 OA
ATOM      2  O   UNL     1      -0.207  -4.892  -1.524  1.00  0.00    -0.289 OA
ATOM      3  C   UNL     1      -1.124  -3.319  -0.017  1.00  0.00     0.107 A 
ATOM      4  C   UNL     1      -1.035  -2.012   0.458  1.00  0.00     0.146 A 
ATOM      5  C   UNL     1       0.785  -1.529  -0.981  1.00  0.00     0.138 A 
ATOM      6  C   UNL     1      -0.185  -3.761  -1.060  1.00  0.00     0.197 A 
ATOM      7  C   UNL     1       0.796  -2.758  -1.522  1.00  0.00     0.100 A 
ATOM      8  C   UNL     1      -2.090  -4.191   0.490  1.00  0.00     0.134 A 
ATOM      9  C   UNL     1      -1.915  -1.568   1.445  1.00  0.00     0.094 A 
ATOM     10  C   UNL     1      -2.881  -2.435   1.955  1.00  0.00     0.123 A 
ATOM     11  C   UNL     1      -2.968  -3.745   1.478  1.00  0.00     0.093 A 
ATOM     12 WAT  UNL     1       1.602  -0.481   2.379  1.00  0.00     0.000 W 
ATOM     13 WAT  UNL     1      -1.721   1.052  -1.310  1.00  0.00     0.000 W 
ATOM     14 WAT  UNL     1       1.757  -5.682  -3.648  1.00  0.00     0.000 W 
ATOM     15 WAT  UNL     1      -2.229  -6.878  -0.538  1.00  0.00     0.000 W 
ENDROOT
BRANCH   5  16
ATOM     16  C   UNL     1       1.735  -0.483  -1.410  1.00  0.00     0.018 A 
ATOM     17  C   UNL     1       2.996  -0.838  -1.898  1.00  0.00     0.016 A 
ATOM     18  C   UNL     1       1.378   0.865  -1.330  1.00  0.00     0.016 A 
ATOM     19  C   UNL     1       3.892   0.150  -2.304  1.00  0.00     0.047 A 
ATOM     20  C   UNL     1       2.275   1.852  -1.736  1.00  0.00     0.047 A 
ATOM     21  C   UNL     1       3.533   1.496  -2.223  1.00  0.00     0.115 A 
BRANCH  21  22
ATOM     22  O   UNL     1       4.407   2.459  -2.619  1.00  0.00    -0.508 OA
ATOM     23  H   UNL     1       4.554   3.074  -1.880  1.00  0.00     0.293 HD
ATOM     24 WAT  UNL     1       3.057   4.020  -4.797  1.00  0.00     0.000 W 
ATOM     25 WAT  UNL     1       7.026   1.096  -3.153  1.00  0.00     0.000 W 
ATOM     26 WAT  UNL     1       4.857   4.339  -0.361  1.00  0.00     0.000 W 
ENDBRANCH  21  22
ENDBRANCH   5  16
BRANCH   8  27
ATOM     27  O   UNL     1      -2.217  -5.477   0.059  1.00  0.00    -0.507 OA
ATOM     28  H   UNL     1      -2.218  -5.512  -0.910  1.00  0.00     0.293 HD
ATOM     29 WAT  UNL     1      -4.924  -6.414   0.952  1.00  0.00     0.000 W 
ATOM     30 WAT  UNL     1       0.247  -6.930   0.964  1.00  0.00     0.000 W 
ATOM     31 WAT  UNL     1      -2.221  -5.586  -2.909  1.00  0.00     0.000 W 
ENDBRANCH   8  27
BRANCH  10  32
ATOM     32  O   UNL     1      -3.741  -2.004   2.918  1.00  0.00    -0.508 OA
ATOM     33  H   UNL     1      -3.445  -1.135   3.240  1.00  0.00     0.293 HD
ATOM     34 WAT  UNL     1      -3.499  -3.915   5.218  1.00  0.00     0.000 W 
ATOM     35 WAT  UNL     1      -6.398  -1.583   1.591  1.00  0.00     0.000 W 
ATOM     36 WAT  UNL     1      -2.836   0.651   3.901  1.00  0.00     0.000 W 
ENDBRANCH  10  32
TORSDOF 4
ENDMDL
MODEL 3
REMARK VINA RESULT:    -6.274      2.141      5.091
REMARK INTER + INTRA:          -8.284
REMARK INTER:                  -7.467
REMARK INTRA:                  -0.817
REMARK CONF_INDEPENDENT:        1.193
REMARK UNBOUND:                -0.817
REMARK SMILES O=c1cc(-c2ccc(O)cc2)oc2cc(O)cc(O)c12
REMARK SMILES IDX 12 1 1 2 20 3 13 4 4 5 2 6 3 7 18 8 14 9 15 10 17 11 5 16
REMARK SMILES IDX 6 17 11 18 7 19 10 20 8 21 9 22 19 27 16 32
REMARK H PARENT 9 23 19 28 16 33
REMARK Flexibility Score: inf
ROOT
ATOM      1  O   UNL     1      -0.110  -1.112  -0.008  1.00  0.00    -0.456 OA
ATOM      2  O   UNL     1      -0.205  -4.892  -1.522  1.00  0.00    -0.289 OA
ATOM      3  C   UNL     1      -1.124  -3.319  -0.017  1.00  0.00     0.107 A 
ATOM      4  C   UNL     1      -1.037  -2.011   0.456  1.00  0.00     0.146 A 
ATOM      5  C   UNL     1       0.783  -1.528  -0.983  1.00  0.00     0.138 A 
ATOM      6  C   UNL     1      -0.184  -3.761  -1.059  1.00  0.00     0.197 A 
ATOM      7  C   UNL     1       0.795  -2.757  -1.523  1.00  0.00     0.100 A 
ATOM      8  C   UNL     1      -2.089  -4.191   0.491  1.00  0.00     0.134 A 
ATOM      9  C   UNL     1      -1.918  -1.566   1.442  1.00  0.00     0.094 A 
ATOM     10  C   UNL     1      -2.883  -2.434   1.953  1.00  0.00     0.123 A 
ATOM     11  C   UNL     1      -2.968  -3.745   1.478  1.00  0.00     0.093 A 
ATOM     12 WAT  UNL     1       1.598  -0.474   2.376  1.00  0.00     0.000 W 
ATOM     13 WAT  UNL     1      -1.726   1.050  -1.316  1.00  0.00     0.000 W 
ATOM     14 WAT  UNL     1       1.761  -5.683  -3.644  1.00  0.00     0.000 W 
ATOM     15 WAT  UNL     1      -2.224  -6.880  -0.534  1.00  0.00     0.000 W 
ENDROOT
BRANCH   5  16
ATOM     16  C   UNL     1       1.732  -0.481  -1.413  1.00  0.00     0.018 A 
ATOM     17  C   UNL     1       2.999  -0.834  -1.885  1.00  0.00     0.016 A 
ATOM     18  C   UNL     1       1.367   0.866  -1.351  1.00  0.00     0.016 A 
ATOM     19  C   UNL     1       3.895   0.155  -2.292  1.00  0.00     0.047 A 
ATOM     20  C   UNL     1       2.263   1.854  -1.757  1.00  0.00     0.047 A 
ATOM     21  C   UNL     1       3.527   1.499  -2.228  1.00  0.00     0.115 A 
BRANCH  21  22
ATOM     22  O   UNL     1       4.401   2.463  -2.625  1.00  0.00    -0.508 OA
ATOM     23  H   UNL     1       4.645   3.004  -1.854  1.00  0.00     0.293 HD
ATOM     24 WAT  UNL     1       2.916   4.259  -4.515  1.00  0.00     0.000 W 
ATOM     25 WAT  UNL     1       6.894   1.063  -3.533  1.00  0.00     0.000 W 
ATOM     26 WAT  UNL     1       5.147   4.116  -0.270  1.00  0.00     0.000 W 
ENDBRANCH  21  22
ENDBRANCH   5  16
BRANCH   8  27
ATOM     27  O   UNL     1      -2.215  -5.478   0.061  1.00  0.00    -0.507 OA
ATOM     28  H   UNL     1      -2.218  -5.514  -0.908  1.00  0.00     0.293 HD
ATOM     29 WAT  UNL     1      -4.917  -6.419   0.961  1.00  0.00     0.000 W 
ATOM     30 WAT  UNL     1       0.255  -6.924   0.961  1.00  0.00     0.000 W 
ATOM     31 WAT  UNL     1      -2.225  -5.590  -2.907  1.00  0.00     0.000 W 
ENDBRANCH   8  27
BRANCH  10  32
ATOM     32  O   UNL     1      -3.744  -2.003   2.915  1.00  0.00    -0.508 OA
ATOM     33  H   UNL     1      -4.613  -1.838   2.511  1.00  0.00     0.293 HD
ATOM     34 WAT  UNL     1      -2.715   0.644   3.881  1.00  0.00     0.000 W 
ATOM     35 WAT  UNL     1      -4.098  -4.271   4.847  1.00  0.00     0.000 W 
ATOM     36 WAT  UNL     1      -6.400  -1.499   1.678  1.00  0.00     0.000 W 
ENDBRANCH  10  32
TORSDOF 4
ENDMDL
MODEL 4
REMARK VINA RESULT:    -6.267      2.121      4.946
REMARK INTER + INTRA:          -8.281
REMARK INTER:                  -7.460
REMARK INTRA:                  -0.821
REMARK CONF_INDEPENDENT:        1.193
REMARK UNBOUND:                -0.821
REMARK SMILES O=c1cc(-c2ccc(O)cc2)oc2cc(O)cc(O)c12
REMARK SMILES IDX 12 1 1 2 20 3 13 4 4 5 2 6 3 7 18 8 14 9 15 10 17 11 5 16
REMARK SMILES IDX 6 17 11 18 7 19 10 20 8 21 9 22 19 27 16 32
REMARK H PARENT 9 23 19 28 16 33
REMARK Flexibility Score: inf
ROOT
ATOM      1  O   UNL     1      -0.109  -1.114  -0.006  1.00  0.00    -0.456 OA
ATOM      2  O   UNL     1      -0.209  -4.894  -1.522  1.00  0.00    -0.289 OA
ATOM      3  C   UNL     1      -1.125  -3.320  -0.016  1.00  0.00     0.107 A 
ATOM      4  C   UNL     1      -1.036  -2.013   0.458  1.00  0.00     0.146 A 
ATOM      5  C   UNL     1       0.784  -1.530  -0.982  1.00  0.00     0.138 A 
ATOM      6  C   UNL     1      -0.187  -3.763  -1.059  1.00  0.00     0.197 A 
ATOM      7  C   UNL     1       0.794  -2.759  -1.522  1.00  0.00     0.100 A 
ATOM      8  C   UNL     1      -2.090  -4.191   0.493  1.00  0.00     0.134 A 
ATOM      9  C   UNL     1      -1.915  -1.567   1.445  1.00  0.00     0.094 A 
ATOM     10  C   UNL     1      -2.881  -2.435   1.957  1.00  0.00     0.123 A 
ATOM     11  C   UNL     1      -2.968  -3.745   1.481  1.00  0.00     0.093 A 
ATOM     12 WAT  UNL     1       1.603  -0.480   2.376  1.00  0.00     0.000 W 
ATOM     13 WAT  UNL     1      -1.723   1.051  -1.311  1.00  0.00     0.000 W 
ATOM     14 WAT  UNL     1       1.755  -5.685  -3.647  1.00  0.00     0.000 W 
ATOM     15 WAT  UNL     1      -2.229  -6.880  -0.534  1.00  0.00     0.000 W 
ENDROOT
BRANCH   5  16
ATOM     16  C   UNL     1       1.733  -0.484  -1.412  1.00  0.00     0.018 A 
ATOM     17  C   UNL     1       3.005  -0.837  -1.871  1.00  0.00     0.016 A 
ATOM     18  C   UNL     1       1.363   0.862  -1.363  1.00  0.00     0.016 A 
ATOM     19  C   UNL     1       3.901   0.151  -2.279  1.00  0.00     0.047 A 
ATOM     20  C   UNL     1       2.260   1.849  -1.771  1.00  0.00     0.047 A 
ATOM     21  C   UNL     1       3.530   1.494  -2.228  1.00  0.00     0.115 A 
BRANCH  21  22
ATOM     22  O   UNL     1       4.404   2.458  -2.625  1.00  0.00    -0.508 OA
ATOM     23  H   UNL     1       3.901   3.210  -2.984  1.00  0.00     0.293 HD
ATOM     24 WAT  UNL     1       5.995   1.310  -4.895  1.00  0.00     0.000 W 
ATOM     25 WAT  UNL     1       5.802   3.441  -0.159  1.00  0.00     0.000 W 
ATOM     26 WAT  UNL     1       2.870   4.756  -3.722  1.00  0.00     0.000 W 
ENDBRANCH  21  22
ENDBRANCH   5  16
BRANCH   8  27
ATOM     27  O   UNL     1      -2.218  -5.478   0.063  1.00  0.00    -0.507 OA
ATOM     28  H   UNL     1      -2.218  -5.514  -0.906  1.00  0.00     0.293 HD
ATOM     29 WAT  UNL     1      -4.925  -6.413   0.954  1.00  0.00     0.000 W 
ATOM     30 WAT  UNL     1       0.245  -6.931   0.970  1.00  0.00     0.000 W 
ATOM     31 WAT  UNL     1      -2.219  -5.589  -2.905  1.00  0.00     0.000 W 
ENDBRANCH   8  27
BRANCH  10  32
ATOM     32  O   UNL     1      -3.740  -2.003   2.920  1.00  0.00    -0.508 OA
ATOM     33  H   UNL     1      -3.446  -1.133   3.239  1.00  0.00     0.293 HD
ATOM     34 WAT  UNL     1      -3.489  -3.907   5.225  1.00  0.00     0.000 W 
ATOM     35 WAT  UNL     1      -6.400  -1.593   1.596  1.00  0.00     0.000 W 
ATOM     36 WAT  UNL     1      -2.840   0.657   3.894  1.00  0.00     0.000 W 
ENDBRANCH  10  32
TORSDOF 4
ENDMDL
MODEL 5
REMARK VINA RESULT:    -6.265      1.141      2.086
REMARK INTER + INTRA:          -8.342
REMARK INTER:                  -7.458
REMARK INTRA:                  -0.884
REMARK CONF_INDEPENDENT:        1.193
REMARK UNBOUND:                -0.884
REMARK SMILES O=c1cc(-c2ccc(O)cc2)oc2cc(O)cc(O)c12
REMARK SMILES IDX 12 1 1 2 20 3 13 4 4 5 2 6 3 7 18 8 14 9 15 10 17 11 5 16
REMARK SMILES IDX 6 17 11 18 7 19 10 20 8 21 9 22 19 27 16 32
REMARK H PARENT 9 23 19 28 16 33
REMARK Flexibility Score: inf
ROOT
ATOM      1  O   UNL     1       0.799  -2.302  -1.609  1.00  0.00    -0.456 OA
ATOM      2  O   UNL     1      -0.897  -0.706   1.733  1.00  0.00    -0.289 OA
ATOM      3  C   UNL     1      -0.823  -2.493   0.189  1.00  0.00     0.107 A 
ATOM      4  C   UNL     1      -0.200  -2.981  -0.958  1.00  0.00     0.146 A 
ATOM      5  C   UNL     1       1.197  -1.073  -1.108  1.00  0.00     0.138 A 
ATOM      6  C   UNL     1      -0.396  -1.193   0.730  1.00  0.00     0.197 A 
ATOM      7  C   UNL     1       0.680  -0.501  -0.009  1.00  0.00     0.100 A 
ATOM      8  C   UNL     1      -1.834  -3.229   0.811  1.00  0.00     0.134 A 
ATOM      9  C   UNL     1      -0.584  -4.212  -1.490  1.00  0.00     0.094 A 
ATOM     10  C   UNL     1      -1.593  -4.951  -0.872  1.00  0.00     0.123 A 
ATOM     11  C   UNL     1      -2.218  -4.459   0.277  1.00  0.00     0.093 A 
ATOM     12 WAT  UNL     1      -0.330  -1.695  -4.322  1.00  0.00     0.000 W 
ATOM     13 WAT  UNL     1       3.217  -4.058  -1.350  1.00  0.00     0.000 W 
ATOM     14 WAT  UNL     1       0.053   1.953   2.745  1.00  0.00     0.000 W 
ATOM     15 WAT  UNL     1      -3.078  -2.170   3.184  1.00  0.00     0.000 W 
ENDROOT
BRANCH   5  16
ATOM     16  C   UNL     1       2.280  -0.432  -1.880  1.00  0.00     0.018 A 
ATOM     17  C   UNL     1       3.554  -1.005  -1.911  1.00  0.00     0.016 A 
ATOM     18  C   UNL     1       2.035   0.748  -2.586  1.00  0.00     0.016 A 
ATOM     19  C   UNL     1       4.577  -0.401  -2.642  1.00  0.00     0.047 A 
ATOM     20  C   UNL     1       3.058   1.353  -3.316  1.00  0.00     0.047 A 
ATOM     21  C   UNL     1       4.330   0.779  -3.344  1.00  0.00     0.115 A 
BRANCH  21  22
ATOM     22  O   UNL     1       5.327   1.368  -4.058  1.00  0.00    -0.508 OA
ATOM     23  H   UNL     1       5.845   1.938  -3.463  1.00  0.00     0.293 HD
ATOM     24 WAT  UNL     1       4.015   3.168  -6.068  1.00  0.00     0.000 W 
ATOM     25 WAT  UNL     1       7.157  -0.825  -4.977  1.00  0.00     0.000 W 
ATOM     26 WAT  UNL     1       6.910   3.110  -2.242  1.00  0.00     0.000 W 
ENDBRANCH  21  22
ENDBRANCH   5  16
BRANCH   8  27
ATOM     27  O   UNL     1      -2.473  -2.795   1.933  1.00  0.00    -0.507 OA
ATOM     28  H   UNL     1      -2.167  -1.907   2.177  1.00  0.00     0.293 HD
ATOM     29 WAT  UNL     1      -1.637  -4.628   4.156  1.00  0.00     0.000 W 
ATOM     30 WAT  UNL     1      -5.374  -2.532   1.216  1.00  0.00     0.000 W 
ATOM     31 WAT  UNL     1      -1.537  -0.077   2.681  1.00  0.00     0.000 W 
ENDBRANCH   8  27
BRANCH  10  32
ATOM     32  O   UNL     1      -1.971  -6.152  -1.389  1.00  0.00    -0.508 OA
ATOM     33  H   UNL     1      -2.538  -5.998  -2.164  1.00  0.00     0.293 HD
ATOM     34 WAT  UNL     1      -3.674  -7.495   0.684  1.00  0.00     0.000 W 
ATOM     35 WAT  UNL     1       0.520  -7.495  -2.384  1.00  0.00     0.000 W 
ATOM     36 WAT  UNL     1      -3.704  -5.681  -3.758  1.00  0.00     0.000 W 
ENDBRANCH  10  32
TORSDOF 4
ENDMDL
MODEL 6
REMARK VINA RESULT:    -6.263      2.139      4.828
REMARK INTER + INTRA:          -8.278
REMARK INTER:                  -7.456
REMARK INTRA:                  -0.822
REMARK CONF_INDEPENDENT:        1.193
REMARK UNBOUND:                -0.822
REMARK SMILES O=c1cc(-c2ccc(O)cc2)oc2cc(O)cc(O)c12
REMARK SMILES IDX 12 1 1 2 20 3 13 4 4 5 2 6 3 7 18 8 14 9 15 10 17 11 5 16
REMARK SMILES IDX 6 17 11 18 7 19 10 20 8 21 9 22 19 27 16 32
REMARK H PARENT 9 23 19 28 16 33
REMARK Flexibility Score: inf
ROOT
ATOM      1  O   UNL     1      -0.110  -1.113  -0.010  1.00  0.00    -0.456 OA
ATOM      2  O   UNL     1      -0.206  -4.895  -1.522  1.00  0.00    -0.289 OA
ATOM      3  C   UNL     1      -1.124  -3.320  -0.018  1.00  0.00     0.107 A 
ATOM      4  C   UNL     1      -1.037  -2.012   0.454  1.00  0.00     0.146 A 
ATOM      5  C   UNL     1       0.783  -1.530  -0.985  1.00  0.00     0.138 A 
ATOM      6  C   UNL     1      -0.185  -3.763  -1.060  1.00  0.00     0.197 A 
ATOM      7  C   UNL     1       0.795  -2.759  -1.524  1.00  0.00     0.100 A 
ATOM      8  C   UNL     1      -2.089  -4.192   0.491  1.00  0.00     0.134 A 
ATOM      9  C   UNL     1      -1.917  -1.567   1.440  1.00  0.00     0.094 A 
ATOM     10  C   UNL     1      -2.883  -2.434   1.952  1.00  0.00     0.123 A 
ATOM     11  C   UNL     1      -2.968  -3.745   1.478  1.00  0.00     0.093 A 
ATOM     12 WAT  UNL     1       1.599  -0.475   2.372  1.00  0.00     0.000 W 
ATOM     13 WAT  UNL     1      -1.726   1.048  -1.319  1.00  0.00     0.000 W 
ATOM     14 WAT  UNL     1       1.760  -5.687  -3.645  1.00  0.00     0.000 W 
ATOM     15 WAT  UNL     1      -2.225  -6.881  -0.533  1.00  0.00     0.000 W 
ENDROOT
BRANCH   5  16
ATOM     16  C   UNL     1       1.732  -0.484  -1.416  1.00  0.00     0.018 A 
ATOM     17  C   UNL     1       1.367   0.864  -1.349  1.00  0.00     0.016 A 
ATOM     18  C   UNL     1       2.997  -0.835  -1.891  1.00  0.00     0.016 A 
ATOM     19  C   UNL     1       2.264   1.853  -1.754  1.00  0.00     0.047 A 
ATOM     20  C   UNL     1       3.893   0.154  -2.297  1.00  0.00     0.047 A 
ATOM     21  C   UNL     1       3.526   1.498  -2.229  1.00  0.00     0.115 A 
BRANCH  21  22
ATOM     22  O   UNL     1       4.401   2.462  -2.624  1.00  0.00    -0.508 OA
ATOM     23  H   UNL     1       3.938   3.087  -3.209  1.00  0.00     0.293 HD
ATOM     24 WAT  UNL     1       6.501   1.107  -4.284  1.00  0.00     0.000 W 
ATOM     25 WAT  UNL     1       5.188   3.989  -0.164  1.00  0.00     0.000 W 
ATOM     26 WAT  UNL     1       2.987   4.371  -4.410  1.00  0.00     0.000 W 
ENDBRANCH  21  22
ENDBRANCH   5  16
BRANCH   8  27
ATOM     27  O   UNL     1      -2.215  -5.479   0.062  1.00  0.00    -0.507 OA
ATOM     28  H   UNL     1      -2.217  -5.516  -0.907  1.00  0.00     0.293 HD
ATOM     29 WAT  UNL     1      -4.920  -6.417   0.958  1.00  0.00     0.000 W 
ATOM     30 WAT  UNL     1       0.251  -6.927   0.967  1.00  0.00     0.000 W 
ATOM     31 WAT  UNL     1      -2.221  -5.593  -2.906  1.00  0.00     0.000 W 
ENDBRANCH   8  27
BRANCH  10  32
ATOM     32  O   UNL     1      -3.743  -2.002   2.915  1.00  0.00    -0.508 OA
ATOM     33  H   UNL     1      -4.610  -1.828   2.508  1.00  0.00     0.293 HD
ATOM     34 WAT  UNL     1      -2.697   0.631   3.899  1.00  0.00     0.000 W 
ATOM     35 WAT  UNL     1      -4.120  -4.279   4.831  1.00  0.00     0.000 W 
ATOM     36 WAT  UNL     1      -6.391  -1.471   1.673  1.00  0.00     0.000 W 
ENDBRANCH  10  32
TORSDOF 4
ENDMDL
MODEL 7
REMARK VINA RESULT:    -6.253      2.138      5.055
REMARK INTER + INTRA:          -8.273
REMARK INTER:                  -7.446
REMARK INTRA:                  -0.827
REMARK CONF_INDEPENDENT:        1.193
REMARK UNBOUND:                -0.827
REMARK SMILES O=c1cc(-c2ccc(O)cc2)oc2cc(O)cc(O)c12
REMARK SMILES IDX 12 1 1 2 20 3 13 4 4 5 2 6 3 7 18 8 14 9 15 10 17 11 5 16
REMARK SMILES IDX 6 17 11 18 7 19 10 20 8 21 9 22 19 27 16 32
REMARK H PARENT 9 23 19 28 16 33
REMARK Flexibility Score: inf
ROOT
ATOM      1  O   UNL     1      -0.109  -1.114  -0.008  1.00  0.00    -0.456 OA
ATOM      2  O   UNL     1      -0.209  -4.895  -1.522  1.00  0.00    -0.289 OA
ATOM      3  C   UNL     1      -1.125  -3.320  -0.017  1.00  0.00     0.107 A 
ATOM      4  C   UNL     1      -1.036  -2.013   0.456  1.00  0.00     0.146 A 
ATOM      5  C   UNL     1       0.783  -1.531  -0.984  1.00  0.00     0.138 A 
ATOM      6  C   UNL     1      -0.187  -3.764  -1.060  1.00  0.00     0.197 A 
ATOM      7  C   UNL     1       0.794  -2.760  -1.524  1.00  0.00     0.100 A 
ATOM      8  C   UNL     1      -2.090  -4.191   0.492  1.00  0.00     0.134 A 
ATOM      9  C   UNL     1      -1.915  -1.567   1.443  1.00  0.00     0.094 A 
ATOM     10  C   UNL     1      -2.881  -2.434   1.955  1.00  0.00     0.123 A 
ATOM     11  C   UNL     1      -2.968  -3.745   1.480  1.00  0.00     0.093 A 
ATOM     12 WAT  UNL     1       1.603  -0.479   2.374  1.00  0.00     0.000 W 
ATOM     13 WAT  UNL     1      -1.723   1.050  -1.315  1.00  0.00     0.000 W 
ATOM     14 WAT  UNL     1       1.755  -5.687  -3.647  1.00  0.00     0.000 W 
ATOM     15 WAT  UNL     1      -2.229  -6.880  -0.533  1.00  0.00     0.000 W 
ENDROOT
BRANCH   5  16
ATOM     16  C   UNL     1       1.732  -0.485  -1.415  1.00  0.00     0.018 A 
ATOM     17  C   UNL     1       3.007  -0.838  -1.866  1.00  0.00     0.016 A 
ATOM     18  C   UNL     1       1.361   0.860  -1.374  1.00  0.00     0.016 A 
ATOM     19  C   UNL     1       3.904   0.150  -2.274  1.00  0.00     0.047 A 
ATOM     20  C   UNL     1       2.257   1.847  -1.782  1.00  0.00     0.047 A 
ATOM     21  C   UNL     1       3.529   1.493  -2.231  1.00  0.00     0.115 A 
BRANCH  21  22
ATOM     22  O   UNL     1       4.403   2.456  -2.630  1.00  0.00    -0.508 OA
ATOM     23  H   UNL     1       4.112   3.313  -2.271  1.00  0.00     0.293 HD
ATOM     24 WAT  UNL     1       4.194   2.643  -5.617  1.00  0.00     0.000 W 
ATOM     25 WAT  UNL     1       7.042   1.826  -1.347  1.00  0.00     0.000 W 
ATOM     26 WAT  UNL     1       3.515   5.074  -1.536  1.00  0.00     0.000 W 
ENDBRANCH  21  22
ENDBRANCH   5  16
BRANCH   8  27
ATOM     27  O   UNL     1      -2.218  -5.478   0.063  1.00  0.00    -0.507 OA
ATOM     28  H   UNL     1      -2.218  -5.515  -0.906  1.00  0.00     0.293 HD
ATOM     29 WAT  UNL     1      -4.925  -6.412   0.953  1.00  0.00     0.000 W 
ATOM     30 WAT  UNL     1       0.245  -6.931   0.972  1.00  0.00     0.000 W 
ATOM     31 WAT  UNL     1      -2.218  -5.591  -2.905  1.00  0.00     0.000 W 
ENDBRANCH   8  27
BRANCH  10  32
ATOM     32  O   UNL     1      -3.741  -2.002   2.919  1.00  0.00    -0.508 OA
ATOM     33  H   UNL     1      -3.810  -2.685   3.608  1.00  0.00     0.293 HD
ATOM     34 WAT  UNL     1      -6.444  -1.779   1.637  1.00  0.00     0.000 W 
ATOM     35 WAT  UNL     1      -2.482   0.402   4.196  1.00  0.00     0.000 W 
ATOM     36 WAT  UNL     1      -3.953  -4.088   5.026  1.00  0.00     0.000 W 
ENDBRANCH  10  32
TORSDOF 4
ENDMDL
