MODEL 1
REMARK VINA RESULT:      -7.1      0.000      0.000
REMARK  Name = 9823887
REMARK                            x       y       z     vdW  Elec       q    Type
REMARK                         _______ _______ _______ _____ _____    ______ ____
ROOT
ATOM      1  O   LIG    1       31.070  29.789  20.331  0.00  0.00    -0.341 OA
ATOM      2  C   LIG    1       29.931  29.732  19.474  0.00  0.00    +0.282 C 
ATOM      3  C   LIG    1       28.652  30.009  20.265  0.00  0.00    +0.201 C 
ATOM      4  C   LIG    1       28.748  31.325  21.036  0.00  0.00    +0.179 C 
ATOM      5  C   LIG    1       30.058  31.416  21.816  0.00  0.00    +0.177 C 
ATOM     22  C   LIG    1       31.251  31.078  20.917  0.00  0.00    +0.178 C 
ENDROOT
BRANCH   5   6
ATOM      6  O   LIG    1       30.213  32.737  22.328  0.00  0.00    -0.386 OA
ATOM      7  H   LIG    1       30.126  33.358  21.585  0.00  0.00    +0.210 HD
ENDBRANCH   5   6
BRANCH   4   8
ATOM      8  O   LIG    1       27.671  31.409  21.970  0.00  0.00    -0.386 OA
ATOM      9  H   LIG    1       26.852  31.536  21.460  0.00  0.00    +0.210 HD
ENDBRANCH   4   8
BRANCH   3  10
ATOM     10  O   LIG    1       27.563  30.076  19.344  0.00  0.00    -0.384 OA
ATOM     11  H   LIG    1       26.834  30.554  19.774  0.00  0.00    +0.210 HD
ENDBRANCH   3  10
BRANCH   2  12
ATOM     12  O   LIG    1       29.823  28.430  18.903  0.00  0.00    -0.345 OA
BRANCH  12  13
ATOM     13  C   LIG    1       30.822  28.212  17.919  0.00  0.00    +0.190 C 
BRANCH  13  14
ATOM     14  C   LIG    1       30.228  27.427  16.794  0.00  0.00    +0.001 C 
ATOM     15  C   LIG    1       30.732  27.423  15.551  0.00  0.00    +0.006 C 
BRANCH  15  16
ATOM     16  C   LIG    1       30.190  26.655  14.417  0.00  0.00    -0.025 A 
ATOM     17  C   LIG    1       30.709  25.401  14.136  0.00  0.00    +0.008 A 
ATOM     18  C   LIG    1       30.195  24.675  13.062  0.00  0.00    +0.001 A 
ATOM     19  C   LIG    1       29.171  25.212  12.282  0.00  0.00    +0.000 A 
ATOM     20  C   LIG    1       28.659  26.475  12.576  0.00  0.00    +0.001 A 
ATOM     21  C   LIG    1       29.173  27.202  13.651  0.00  0.00    +0.008 A 
ENDBRANCH  15  16
ENDBRANCH  13  14
ENDBRANCH  12  13
ENDBRANCH   2  12
BRANCH  22  23
ATOM     23  C   LIG    1       32.559  31.048  21.702  0.00  0.00    +0.197 C 
BRANCH  23  24
ATOM     24  O   LIG    1       32.763  29.734  22.189  0.00  0.00    -0.346 OA
BRANCH  24  25
ATOM     25  C   LIG    1       34.137  29.366  22.157  0.00  0.00    +0.281 C 
ATOM     26  C   LIG    1       34.277  27.847  22.342  0.00  0.00    +0.201 C 
ATOM     27  C   LIG    1       33.867  27.074  21.084  0.00  0.00    +0.178 C 
ATOM     28  C   LIG    1       34.555  27.668  19.853  0.00  0.00    +0.171 C 
ATOM     29  C   LIG    1       34.317  29.171  19.778  0.00  0.00    +0.197 C 
ATOM     36  O   LIG    1       34.786  29.814  20.961  0.00  0.00    -0.346 OA
BRANCH  28  30
ATOM     30  O   LIG    1       34.075  27.031  18.678  0.00  0.00    -0.387 OA
ATOM     31  H   LIG    1       33.987  26.082  18.872  0.00  0.00    +0.210 HD
ENDBRANCH  28  30
BRANCH  27  32
ATOM     32  O   LIG    1       32.453  27.150  20.916  0.00  0.00    -0.386 OA
ATOM     33  H   LIG    1       32.072  26.326  21.264  0.00  0.00    +0.210 HD
ENDBRANCH  27  32
BRANCH  26  34
ATOM     34  O   LIG    1       35.640  27.564  22.647  0.00  0.00    -0.384 OA
ATOM     35  H   LIG    1       36.163  28.368  22.496  0.00  0.00    +0.210 HD
ENDBRANCH  26  34
ENDBRANCH  24  25
ENDBRANCH  23  24
ENDBRANCH  22  23
TORSDOF 13
ENDMDL
MODEL 2
REMARK VINA RESULT:      -6.9      2.115      3.322
REMARK  Name = 9823887
REMARK                            x       y       z     vdW  Elec       q    Type
REMARK                         _______ _______ _______ _____ _____    ______ ____
ROOT
ATOM      1  O   LIG    1       29.606  30.478  17.725  0.00  0.00    -0.341 OA
ATOM      2  C   LIG    1       29.221  31.554  16.873  0.00  0.00    +0.282 C 
ATOM      3  C   LIG    1       27.731  31.859  17.036  0.00  0.00    +0.201 C 
ATOM      4  C   LIG    1       27.370  32.105  18.500  0.00  0.00    +0.179 C 
ATOM      5  C   LIG    1       27.939  31.011  19.402  0.00  0.00    +0.177 C 
ATOM     22  C   LIG    1       29.424  30.782  19.109  0.00  0.00    +0.178 C 
ENDROOT
BRANCH   5   6
ATOM      6  O   LIG    1       27.781  31.394  20.766  0.00  0.00    -0.386 OA
ATOM      7  H   LIG    1       28.468  30.941  21.286  0.00  0.00    +0.210 HD
ENDBRANCH   5   6
BRANCH   4   8
ATOM      8  O   LIG    1       25.949  32.104  18.646  0.00  0.00    -0.386 OA
ATOM      9  H   LIG    1       25.638  33.009  18.476  0.00  0.00    +0.210 HD
ENDBRANCH   4   8
BRANCH   3  10
ATOM     10  O   LIG    1       27.427  33.024  16.269  0.00  0.00    -0.384 OA
ATOM     11  H   LIG    1       28.161  33.653  16.373  0.00  0.00    +0.210 HD
ENDBRANCH   3  10
BRANCH   2  12
ATOM     12  O   LIG    1       29.452  31.197  15.511  0.00  0.00    -0.345 OA
BRANCH  12  13
ATOM     13  C   LIG    1       28.407  30.380  15.007  0.00  0.00    +0.190 C 
BRANCH  13  14
ATOM     14  C   LIG    1       29.010  29.195  14.323  0.00  0.00    +0.001 C 
ATOM     15  C   LIG    1       28.661  27.929  14.598  0.00  0.00    +0.006 C 
BRANCH  15  16
ATOM     16  C   LIG    1       29.216  26.733  13.941  0.00  0.00    -0.025 A 
ATOM     17  C   LIG    1       30.309  26.095  14.504  0.00  0.00    +0.008 A 
ATOM     18  C   LIG    1       30.834  24.963  13.882  0.00  0.00    +0.001 A 
ATOM     19  C   LIG    1       30.260  24.484  12.704  0.00  0.00    +0.000 A 
ATOM     20  C   LIG    1       29.160  25.137  12.149  0.00  0.00    +0.001 A 
ATOM     21  C   LIG    1       28.634  26.270  12.772  0.00  0.00    +0.008 A 
ENDBRANCH  15  16
ENDBRANCH  13  14
ENDBRANCH  12  13
ENDBRANCH   2  12
BRANCH  22  23
ATOM     23  C   LIG    1       29.986  29.615  19.915  0.00  0.00    +0.197 C 
BRANCH  23  24
ATOM     24  O   LIG    1       31.326  29.912  20.263  0.00  0.00    -0.346 OA
BRANCH  24  25
ATOM     25  C   LIG    1       31.410  31.045  21.121  0.00  0.00    +0.281 C 
ATOM     26  C   LIG    1       31.387  30.592  22.589  0.00  0.00    +0.201 C 
ATOM     27  C   LIG    1       32.714  29.958  23.018  0.00  0.00    +0.178 C 
ATOM     28  C   LIG    1       33.883  30.855  22.609  0.00  0.00    +0.171 C 
ATOM     29  C   LIG    1       33.798  31.208  21.130  0.00  0.00    +0.197 C 
ATOM     36  O   LIG    1       32.560  31.850  20.836  0.00  0.00    -0.346 OA
BRANCH  28  30
ATOM     30  O   LIG    1       35.114  30.205  22.894  0.00  0.00    -0.387 OA
ATOM     31  H   LIG    1       35.417  30.517  23.764  0.00  0.00    +0.210 HD
ENDBRANCH  28  30
BRANCH  27  32
ATOM     32  O   LIG    1       32.858  28.683  22.393  0.00  0.00    -0.386 OA
ATOM     33  H   LIG    1       33.618  28.738  21.789  0.00  0.00    +0.210 HD
ENDBRANCH  27  32
BRANCH  26  34
ATOM     34  O   LIG    1       31.127  31.736  23.399  0.00  0.00    -0.384 OA
ATOM     35  H   LIG    1       31.781  31.760  24.117  0.00  0.00    +0.210 HD
ENDBRANCH  26  34
ENDBRANCH  24  25
ENDBRANCH  23  24
ENDBRANCH  22  23
TORSDOF 13
ENDMDL
MODEL 3
REMARK VINA RESULT:      -6.9     21.408     23.924
REMARK  Name = 9823887
REMARK                            x       y       z     vdW  Elec       q    Type
REMARK                         _______ _______ _______ _____ _____    ______ ____
ROOT
ATOM      1  O   LIG    1       14.950  13.498  24.625  0.00  0.00    -0.341 OA
ATOM      2  C   LIG    1       16.237  13.360  25.223  0.00  0.00    +0.282 C 
ATOM      3  C   LIG    1       17.327  13.840  24.264  0.00  0.00    +0.201 C 
ATOM      4  C   LIG    1       17.051  15.261  23.775  0.00  0.00    +0.179 C 
ATOM      5  C   LIG    1       15.610  15.410  23.289  0.00  0.00    +0.177 C 
ATOM     22  C   LIG    1       14.628  14.856  24.325  0.00  0.00    +0.178 C 
ENDROOT
BRANCH   5   6
ATOM      6  O   LIG    1       15.328  16.788  23.061  0.00  0.00    -0.386 OA
ATOM      7  H   LIG    1       15.480  17.267  23.895  0.00  0.00    +0.210 HD
ENDBRANCH   5   6
BRANCH   4   8
ATOM      8  O   LIG    1       17.919  15.565  22.681  0.00  0.00    -0.386 OA
ATOM      9  H   LIG    1       17.418  15.413  21.862  0.00  0.00    +0.210 HD
ENDBRANCH   4   8
BRANCH   3  10
ATOM     10  O   LIG    1       18.576  13.811  24.955  0.00  0.00    -0.384 OA
ATOM     11  H   LIG    1       18.664  12.942  25.382  0.00  0.00    +0.210 HD
ENDBRANCH   3  10
BRANCH   2  12
ATOM     12  O   LIG    1       16.486  11.987  25.521  0.00  0.00    -0.345 OA
BRANCH  12  13
ATOM     13  C   LIG    1       16.692  11.789  26.910  0.00  0.00    +0.190 C 
BRANCH  13  14
ATOM     14  C   LIG    1       16.126  12.956  27.653  0.00  0.00    +0.001 C 
ATOM     15  C   LIG    1       15.679  12.880  28.916  0.00  0.00    +0.006 C 
BRANCH  15  16
ATOM     16  C   LIG    1       15.128  14.005  29.691  0.00  0.00    -0.025 A 
ATOM     17  C   LIG    1       15.824  14.476  30.793  0.00  0.00    +0.008 A 
ATOM     18  C   LIG    1       15.302  15.541  31.526  0.00  0.00    +0.001 A 
ATOM     19  C   LIG    1       14.091  16.121  31.149  0.00  0.00    +0.000 A 
ATOM     20  C   LIG    1       13.401  15.637  30.038  0.00  0.00    +0.001 A 
ATOM     21  C   LIG    1       13.924  14.571  29.304  0.00  0.00    +0.008 A 
ENDBRANCH  15  16
ENDBRANCH  13  14
ENDBRANCH  12  13
ENDBRANCH   2  12
BRANCH  22  23
ATOM     23  C   LIG    1       13.190  14.886  23.814  0.00  0.00    +0.197 C 
BRANCH  23  24
ATOM     24  O   LIG    1       12.762  16.235  23.752  0.00  0.00    -0.346 OA
BRANCH  24  25
ATOM     25  C   LIG    1       11.388  16.337  23.396  0.00  0.00    +0.281 C 
ATOM     26  C   LIG    1       11.074  17.767  22.929  0.00  0.00    +0.201 C 
ATOM     27  C   LIG    1       11.632  18.053  21.531  0.00  0.00    +0.178 C 
ATOM     28  C   LIG    1       11.242  16.930  20.568  0.00  0.00    +0.171 C 
ATOM     29  C   LIG    1       11.631  15.573  21.140  0.00  0.00    +0.197 C 
ATOM     36  O   LIG    1       11.016  15.367  22.410  0.00  0.00    -0.346 OA
BRANCH  28  30
ATOM     30  O   LIG    1       11.867  17.135  19.309  0.00  0.00    -0.387 OA
ATOM     31  H   LIG    1       11.555  16.437  18.709  0.00  0.00    +0.210 HD
ENDBRANCH  28  30
BRANCH  27  32
ATOM     32  O   LIG    1       13.054  18.146  21.595  0.00  0.00    -0.386 OA
ATOM     33  H   LIG    1       13.318  18.939  21.097  0.00  0.00    +0.210 HD
ENDBRANCH  27  32
BRANCH  26  34
ATOM     34  O   LIG    1        9.657  17.924  22.913  0.00  0.00    -0.384 OA
ATOM     35  H   LIG    1        9.310  17.502  22.109  0.00  0.00    +0.210 HD
ENDBRANCH  26  34
ENDBRANCH  24  25
ENDBRANCH  23  24
ENDBRANCH  22  23
TORSDOF 13
ENDMDL
MODEL 4
REMARK VINA RESULT:      -6.8      4.005      6.775
REMARK  Name = 9823887
REMARK                            x       y       z     vdW  Elec       q    Type
REMARK                         _______ _______ _______ _____ _____    ______ ____
ROOT
ATOM      1  O   LIG    1       29.188  31.320  18.145  0.00  0.00    -0.341 OA
ATOM      2  C   LIG    1       28.467  30.363  18.918  0.00  0.00    +0.282 C 
ATOM      3  C   LIG    1       29.028  30.290  20.338  0.00  0.00    +0.201 C 
ATOM      4  C   LIG    1       29.067  31.670  20.993  0.00  0.00    +0.179 C 
ATOM      5  C   LIG    1       29.705  32.705  20.066  0.00  0.00    +0.177 C 
ATOM     22  C   LIG    1       29.078  32.644  18.671  0.00  0.00    +0.178 C 
ENDROOT
BRANCH   5   6
ATOM      6  O   LIG    1       29.515  34.008  20.612  0.00  0.00    -0.386 OA
ATOM      7  H   LIG    1       29.449  34.636  19.871  0.00  0.00    +0.210 HD
ENDBRANCH   5   6
BRANCH   4   8
ATOM      8  O   LIG    1       29.847  31.608  22.188  0.00  0.00    -0.386 OA
ATOM      9  H   LIG    1       29.363  32.095  22.877  0.00  0.00    +0.210 HD
ENDBRANCH   4   8
BRANCH   3  10
ATOM     10  O   LIG    1       28.192  29.425  21.106  0.00  0.00    -0.384 OA
ATOM     11  H   LIG    1       28.121  29.791  22.003  0.00  0.00    +0.210 HD
ENDBRANCH   3  10
BRANCH   2  12
ATOM     12  O   LIG    1       28.596  29.071  18.327  0.00  0.00    -0.345 OA
BRANCH  12  13
ATOM     13  C   LIG    1       29.942  28.795  17.975  0.00  0.00    +0.190 C 
BRANCH  13  14
ATOM     14  C   LIG    1       29.958  27.706  16.951  0.00  0.00    +0.001 C 
ATOM     15  C   LIG    1       29.739  27.919  15.644  0.00  0.00    +0.006 C 
BRANCH  15  16
ATOM     16  C   LIG    1       29.759  26.881  14.599  0.00  0.00    -0.025 A 
ATOM     17  C   LIG    1       30.686  25.853  14.681  0.00  0.00    +0.008 A 
ATOM     18  C   LIG    1       30.704  24.871  13.691  0.00  0.00    +0.001 A 
ATOM     19  C   LIG    1       29.799  24.929  12.633  0.00  0.00    +0.000 A 
ATOM     20  C   LIG    1       28.873  25.969  12.563  0.00  0.00    +0.001 A 
ATOM     21  C   LIG    1       28.853  26.952  13.553  0.00  0.00    +0.008 A 
ENDBRANCH  15  16
ENDBRANCH  13  14
ENDBRANCH  12  13
ENDBRANCH   2  12
BRANCH  22  23
ATOM     23  C   LIG    1       29.778  33.586  17.696  0.00  0.00    +0.197 C 
BRANCH  23  24
ATOM     24  O   LIG    1       28.829  34.521  17.214  0.00  0.00    -0.346 OA
BRANCH  24  25
ATOM     25  C   LIG    1       29.270  35.862  17.396  0.00  0.00    +0.281 C 
ATOM     26  C   LIG    1       28.535  36.792  16.418  0.00  0.00    +0.201 C 
ATOM     27  C   LIG    1       27.081  37.035  16.836  0.00  0.00    +0.178 C 
ATOM     28  C   LIG    1       27.017  37.426  18.313  0.00  0.00    +0.171 C 
ATOM     29  C   LIG    1       27.761  36.410  19.171  0.00  0.00    +0.197 C 
ATOM     36  O   LIG    1       29.119  36.298  18.752  0.00  0.00    -0.346 OA
BRANCH  28  30
ATOM     30  O   LIG    1       25.661  37.526  18.727  0.00  0.00    -0.387 OA
ATOM     31  H   LIG    1       25.214  36.700  18.472  0.00  0.00    +0.210 HD
ENDBRANCH  28  30
BRANCH  27  32
ATOM     32  O   LIG    1       26.320  35.846  16.630  0.00  0.00    -0.386 OA
ATOM     33  H   LIG    1       26.640  35.180  17.263  0.00  0.00    +0.210 HD
ENDBRANCH  27  32
BRANCH  26  34
ATOM     34  O   LIG    1       29.231  38.035  16.384  0.00  0.00    -0.384 OA
ATOM     35  H   LIG    1       30.142  37.887  16.688  0.00  0.00    +0.210 HD
ENDBRANCH  26  34
ENDBRANCH  24  25
ENDBRANCH  23  24
ENDBRANCH  22  23
TORSDOF 13
ENDMDL
MODEL 5
REMARK VINA RESULT:      -6.8      1.452      2.046
REMARK  Name = 9823887
REMARK                            x       y       z     vdW  Elec       q    Type
REMARK                         _______ _______ _______ _____ _____    ______ ____
ROOT
ATOM      1  O   LIG    1       30.634  29.889  19.649  0.00  0.00    -0.341 OA
ATOM      2  C   LIG    1       29.436  30.254  18.967  0.00  0.00    +0.282 C 
ATOM      3  C   LIG    1       28.298  30.476  19.965  0.00  0.00    +0.201 C 
ATOM      4  C   LIG    1       28.693  31.480  21.046  0.00  0.00    +0.179 C 
ATOM      5  C   LIG    1       30.059  31.143  21.643  0.00  0.00    +0.177 C 
ATOM     22  C   LIG    1       31.092  30.910  20.537  0.00  0.00    +0.178 C 
ENDROOT
BRANCH   5   6
ATOM      6  O   LIG    1       30.491  32.219  22.472  0.00  0.00    -0.386 OA
ATOM      7  H   LIG    1       30.572  33.013  21.914  0.00  0.00    +0.210 HD
ENDBRANCH   5   6
BRANCH   4   8
ATOM      8  O   LIG    1       27.731  31.447  22.101  0.00  0.00    -0.386 OA
ATOM      9  H   LIG    1       27.998  32.110  22.760  0.00  0.00    +0.210 HD
ENDBRANCH   4   8
BRANCH   3  10
ATOM     10  O   LIG    1       27.166  30.970  19.249  0.00  0.00    -0.384 OA
ATOM     11  H   LIG    1       26.411  30.993  19.859  0.00  0.00    +0.210 HD
ENDBRANCH   3  10
BRANCH   2  12
ATOM     12  O   LIG    1       29.047  29.207  18.080  0.00  0.00    -0.345 OA
BRANCH  12  13
ATOM     13  C   LIG    1       29.321  29.545  16.730  0.00  0.00    +0.190 C 
BRANCH  13  14
ATOM     14  C   LIG    1       29.671  28.299  15.983  0.00  0.00    +0.001 C 
ATOM     15  C   LIG    1       29.113  27.961  14.810  0.00  0.00    +0.006 C 
BRANCH  15  16
ATOM     16  C   LIG    1       29.437  26.753  14.032  0.00  0.00    -0.025 A 
ATOM     17  C   LIG    1       28.675  26.438  12.918  0.00  0.00    +0.008 A 
ATOM     18  C   LIG    1       28.982  25.294  12.182  0.00  0.00    +0.001 A 
ATOM     19  C   LIG    1       30.046  24.479  12.569  0.00  0.00    +0.000 A 
ATOM     20  C   LIG    1       30.804  24.809  13.692  0.00  0.00    +0.001 A 
ATOM     21  C   LIG    1       30.497  25.954  14.428  0.00  0.00    +0.008 A 
ENDBRANCH  15  16
ENDBRANCH  13  14
ENDBRANCH  12  13
ENDBRANCH   2  12
BRANCH  22  23
ATOM     23  C   LIG    1       32.435  30.458  21.104  0.00  0.00    +0.197 C 
BRANCH  23  24
ATOM     24  O   LIG    1       33.426  30.629  20.107  0.00  0.00    -0.346 OA
BRANCH  24  25
ATOM     25  C   LIG    1       34.384  29.577  20.129  0.00  0.00    +0.281 C 
ATOM     26  C   LIG    1       33.801  28.325  19.454  0.00  0.00    +0.201 C 
ATOM     27  C   LIG    1       33.742  28.467  17.930  0.00  0.00    +0.178 C 
ATOM     28  C   LIG    1       35.088  28.955  17.393  0.00  0.00    +0.171 C 
ATOM     29  C   LIG    1       35.536  30.211  18.129  0.00  0.00    +0.197 C 
ATOM     36  O   LIG    1       35.625  29.968  19.531  0.00  0.00    -0.346 OA
BRANCH  28  30
ATOM     30  O   LIG    1       34.990  29.206  15.998  0.00  0.00    -0.387 OA
ATOM     31  H   LIG    1       35.871  29.474  15.685  0.00  0.00    +0.210 HD
ENDBRANCH  28  30
BRANCH  27  32
ATOM     32  O   LIG    1       32.726  29.405  17.576  0.00  0.00    -0.386 OA
ATOM     33  H   LIG    1       32.706  30.089  18.268  0.00  0.00    +0.210 HD
ENDBRANCH  27  32
BRANCH  26  34
ATOM     34  O   LIG    1       34.629  27.216  19.793  0.00  0.00    -0.384 OA
ATOM     35  H   LIG    1       34.062  26.441  19.938  0.00  0.00    +0.210 HD
ENDBRANCH  26  34
ENDBRANCH  24  25
ENDBRANCH  23  24
ENDBRANCH  22  23
TORSDOF 13
ENDMDL
MODEL 6
REMARK VINA RESULT:      -6.8      7.126      9.441
REMARK  Name = 9823887
REMARK                            x       y       z     vdW  Elec       q    Type
REMARK                         _______ _______ _______ _____ _____    ______ ____
ROOT
ATOM      1  O   LIG    1       29.475  33.132  14.296  0.00  0.00    -0.341 OA
ATOM      2  C   LIG    1       28.532  32.215  14.846  0.00  0.00    +0.282 C 
ATOM      3  C   LIG    1       28.060  32.692  16.220  0.00  0.00    +0.201 C 
ATOM      4  C   LIG    1       27.528  34.123  16.160  0.00  0.00    +0.179 C 
ATOM      5  C   LIG    1       28.498  35.044  15.421  0.00  0.00    +0.177 C 
ATOM     22  C   LIG    1       28.918  34.430  14.083  0.00  0.00    +0.178 C 
ENDROOT
BRANCH   5   6
ATOM      6  O   LIG    1       27.869  36.301  15.186  0.00  0.00    -0.386 OA
ATOM      7  H   LIG    1       27.930  36.825  16.004  0.00  0.00    +0.210 HD
ENDBRANCH   5   6
BRANCH   4   8
ATOM      8  O   LIG    1       27.366  34.627  17.487  0.00  0.00    -0.386 OA
ATOM      9  H   LIG    1       27.175  35.577  17.416  0.00  0.00    +0.210 HD
ENDBRANCH   4   8
BRANCH   3  10
ATOM     10  O   LIG    1       27.023  31.818  16.665  0.00  0.00    -0.384 OA
ATOM     11  H   LIG    1       26.170  32.222  16.435  0.00  0.00    +0.210 HD
ENDBRANCH   3  10
BRANCH   2  12
ATOM     12  O   LIG    1       29.142  30.936  15.010  0.00  0.00    -0.345 OA
BRANCH  12  13
ATOM     13  C   LIG    1       30.319  30.821  14.226  0.00  0.00    +0.190 C 
BRANCH  13  14
ATOM     14  C   LIG    1       30.431  29.415  13.728  0.00  0.00    +0.001 C 
ATOM     15  C   LIG    1       29.601  28.431  14.108  0.00  0.00    +0.006 C 
BRANCH  15  16
ATOM     16  C   LIG    1       29.664  27.038  13.634  0.00  0.00    -0.025 A 
ATOM     17  C   LIG    1       30.604  26.177  14.178  0.00  0.00    +0.008 A 
ATOM     18  C   LIG    1       30.663  24.858  13.729  0.00  0.00    +0.001 A 
ATOM     19  C   LIG    1       29.782  24.417  12.741  0.00  0.00    +0.000 A 
ATOM     20  C   LIG    1       28.842  25.294  12.203  0.00  0.00    +0.001 A 
ATOM     21  C   LIG    1       28.783  26.614  12.652  0.00  0.00    +0.008 A 
ENDBRANCH  15  16
ENDBRANCH  13  14
ENDBRANCH  12  13
ENDBRANCH   2  12
BRANCH  22  23
ATOM     23  C   LIG    1       29.975  35.275  13.379  0.00  0.00    +0.197 C 
BRANCH  23  24
ATOM     24  O   LIG    1       29.322  36.304  12.658  0.00  0.00    -0.346 OA
BRANCH  24  25
ATOM     25  C   LIG    1       29.778  36.376  11.311  0.00  0.00    +0.281 C 
ATOM     26  C   LIG    1       29.069  35.310  10.462  0.00  0.00    +0.201 C 
ATOM     27  C   LIG    1       27.612  35.683  10.166  0.00  0.00    +0.178 C 
ATOM     28  C   LIG    1       27.532  37.120   9.648  0.00  0.00    +0.171 C 
ATOM     29  C   LIG    1       28.251  38.074  10.594  0.00  0.00    +0.197 C 
ATOM     36  O   LIG    1       29.613  37.686  10.758  0.00  0.00    -0.346 OA
BRANCH  28  30
ATOM     30  O   LIG    1       26.172  37.503   9.497  0.00  0.00    -0.387 OA
ATOM     31  H   LIG    1       26.002  38.233  10.116  0.00  0.00    +0.210 HD
ENDBRANCH  28  30
BRANCH  27  32
ATOM     32  O   LIG    1       26.839  35.569  11.360  0.00  0.00    -0.386 OA
ATOM     33  H   LIG    1       26.551  36.465  11.609  0.00  0.00    +0.210 HD
ENDBRANCH  27  32
BRANCH  26  34
ATOM     34  O   LIG    1       29.781  35.180   9.234  0.00  0.00    -0.384 OA
ATOM     35  H   LIG    1       30.277  36.000   9.077  0.00  0.00    +0.210 HD
ENDBRANCH  26  34
ENDBRANCH  24  25
ENDBRANCH  23  24
ENDBRANCH  22  23
TORSDOF 13
ENDMDL
MODEL 7
REMARK VINA RESULT:      -6.7      8.218     13.447
REMARK  Name = 9823887
REMARK                            x       y       z     vdW  Elec       q    Type
REMARK                         _______ _______ _______ _____ _____    ______ ____
ROOT
ATOM      1  O   LIG    1       35.669  26.648  30.563  0.00  0.00    -0.341 OA
ATOM      2  C   LIG    1       35.905  26.866  31.952  0.00  0.00    +0.282 C 
ATOM      3  C   LIG    1       34.736  27.624  32.581  0.00  0.00    +0.201 C 
ATOM      4  C   LIG    1       33.406  26.922  32.309  0.00  0.00    +0.179 C 
ATOM      5  C   LIG    1       33.262  26.563  30.831  0.00  0.00    +0.177 C 
ATOM     22  C   LIG    1       34.514  25.844  30.322  0.00  0.00    +0.178 C 
ENDROOT
BRANCH   5   6
ATOM      6  O   LIG    1       32.129  25.715  30.660  0.00  0.00    -0.386 OA
ATOM      7  H   LIG    1       31.394  26.088  31.177  0.00  0.00    +0.210 HD
ENDBRANCH   5   6
BRANCH   4   8
ATOM      8  O   LIG    1       32.328  27.792  32.659  0.00  0.00    -0.386 OA
ATOM      9  H   LIG    1       32.704  28.530  33.169  0.00  0.00    +0.210 HD
ENDBRANCH   4   8
BRANCH   3  10
ATOM     10  O   LIG    1       34.956  27.696  33.989  0.00  0.00    -0.384 OA
ATOM     11  H   LIG    1       34.094  27.627  34.433  0.00  0.00    +0.210 HD
ENDBRANCH   3  10
BRANCH   2  12
ATOM     12  O   LIG    1       37.083  27.651  32.124  0.00  0.00    -0.345 OA
BRANCH  12  13
ATOM     13  C   LIG    1       38.155  27.154  31.338  0.00  0.00    +0.190 C 
BRANCH  13  14
ATOM     14  C   LIG    1       38.831  28.304  30.664  0.00  0.00    +0.001 C 
ATOM     15  C   LIG    1       38.674  29.580  31.048  0.00  0.00    +0.006 C 
BRANCH  15  16
ATOM     16  C   LIG    1       39.331  30.742  30.424  0.00  0.00    -0.025 A 
ATOM     17  C   LIG    1       40.635  31.054  30.774  0.00  0.00    +0.008 A 
ATOM     18  C   LIG    1       41.255  32.154  30.183  0.00  0.00    +0.001 A 
ATOM     19  C   LIG    1       40.565  32.928  29.250  0.00  0.00    +0.000 A 
ATOM     20  C   LIG    1       39.253  32.601  28.908  0.00  0.00    +0.001 A 
ATOM     21  C   LIG    1       38.632  31.501  29.499  0.00  0.00    +0.008 A 
ENDBRANCH  15  16
ENDBRANCH  13  14
ENDBRANCH  12  13
ENDBRANCH   2  12
BRANCH  22  23
ATOM     23  C   LIG    1       34.442  25.578  28.821  0.00  0.00    +0.197 C 
BRANCH  23  24
ATOM     24  O   LIG    1       34.079  26.781  28.167  0.00  0.00    -0.346 OA
BRANCH  24  25
ATOM     25  C   LIG    1       32.993  26.586  27.268  0.00  0.00    +0.281 C 
ATOM     26  C   LIG    1       32.680  27.898  26.533  0.00  0.00    +0.201 C 
ATOM     27  C   LIG    1       33.728  28.224  25.464  0.00  0.00    +0.178 C 
ATOM     28  C   LIG    1       33.976  27.001  24.579  0.00  0.00    +0.171 C 
ATOM     29  C   LIG    1       34.298  25.779  25.431  0.00  0.00    +0.197 C 
ATOM     36  O   LIG    1       33.241  25.515  26.350  0.00  0.00    -0.346 OA
BRANCH  28  30
ATOM     30  O   LIG    1       35.037  27.268  23.673  0.00  0.00    -0.387 OA
ATOM     31  H   LIG    1       34.765  26.940  22.798  0.00  0.00    +0.210 HD
ENDBRANCH  28  30
BRANCH  27  32
ATOM     32  O   LIG    1       34.950  28.606  26.093  0.00  0.00    -0.386 OA
ATOM     33  H   LIG    1       35.540  28.951  25.401  0.00  0.00    +0.210 HD
ENDBRANCH  27  32
BRANCH  26  34
ATOM     34  O   LIG    1       31.402  27.765  25.917  0.00  0.00    -0.384 OA
ATOM     35  H   LIG    1       31.231  28.561  25.387  0.00  0.00    +0.210 HD
ENDBRANCH  26  34
ENDBRANCH  24  25
ENDBRANCH  23  24
ENDBRANCH  22  23
TORSDOF 13
ENDMDL
MODEL 8
REMARK VINA RESULT:      -6.7     21.657     23.210
REMARK  Name = 9823887
REMARK                            x       y       z     vdW  Elec       q    Type
REMARK                         _______ _______ _______ _____ _____    ______ ____
ROOT
ATOM      1  O   LIG    1       15.481  14.194  24.677  0.00  0.00    -0.341 OA
ATOM      2  C   LIG    1       16.415  14.018  23.614  0.00  0.00    +0.282 C 
ATOM      3  C   LIG    1       17.847  14.029  24.151  0.00  0.00    +0.201 C 
ATOM      4  C   LIG    1       18.028  13.008  25.274  0.00  0.00    +0.179 C 
ATOM      5  C   LIG    1       16.914  13.124  26.314  0.00  0.00    +0.177 C 
ATOM     22  C   LIG    1       15.540  13.140  25.639  0.00  0.00    +0.178 C 
ENDROOT
BRANCH   5   6
ATOM      6  O   LIG    1       16.987  12.018  27.209  0.00  0.00    -0.386 OA
ATOM      7  H   LIG    1       16.536  12.270  28.034  0.00  0.00    +0.210 HD
ENDBRANCH   5   6
BRANCH   4   8
ATOM      8  O   LIG    1       19.274  13.241  25.933  0.00  0.00    -0.386 OA
ATOM      9  H   LIG    1       19.707  12.379  26.050  0.00  0.00    +0.210 HD
ENDBRANCH   4   8
BRANCH   3  10
ATOM     10  O   LIG    1       18.730  13.713  23.076  0.00  0.00    -0.384 OA
ATOM     11  H   LIG    1       18.585  12.785  22.828  0.00  0.00    +0.210 HD
ENDBRANCH   3  10
BRANCH   2  12
ATOM     12  O   LIG    1       16.287  15.086  22.678  0.00  0.00    -0.345 OA
BRANCH  12  13
ATOM     13  C   LIG    1       15.548  16.167  23.224  0.00  0.00    +0.190 C 
BRANCH  13  14
ATOM     14  C   LIG    1       14.499  16.578  22.241  0.00  0.00    +0.001 C 
ATOM     15  C   LIG    1       13.201  16.263  22.373  0.00  0.00    +0.006 C 
BRANCH  15  16
ATOM     16  C   LIG    1       12.133  16.658  21.439  0.00  0.00    -0.025 A 
ATOM     17  C   LIG    1       11.032  17.350  21.920  0.00  0.00    +0.008 A 
ATOM     18  C   LIG    1       10.021  17.724  21.035  0.00  0.00    +0.001 A 
ATOM     19  C   LIG    1       10.122  17.401  19.682  0.00  0.00    +0.000 A 
ATOM     20  C   LIG    1       11.235  16.704  19.213  0.00  0.00    +0.001 A 
ATOM     21  C   LIG    1       12.247  16.330  20.097  0.00  0.00    +0.008 A 
ENDBRANCH  15  16
ENDBRANCH  13  14
ENDBRANCH  12  13
ENDBRANCH   2  12
BRANCH  22  23
ATOM     23  C   LIG    1       14.418  13.373  26.647  0.00  0.00    +0.197 C 
BRANCH  23  24
ATOM     24  O   LIG    1       14.997  13.645  27.910  0.00  0.00    -0.346 OA
BRANCH  24  25
ATOM     25  C   LIG    1       14.109  13.328  28.977  0.00  0.00    +0.281 C 
ATOM     26  C   LIG    1       14.904  12.785  30.175  0.00  0.00    +0.201 C 
ATOM     27  C   LIG    1       15.664  13.893  30.912  0.00  0.00    +0.178 C 
ATOM     28  C   LIG    1       14.730  15.069  31.202  0.00  0.00    +0.171 C 
ATOM     29  C   LIG    1       14.026  15.522  29.929  0.00  0.00    +0.197 C 
ATOM     36  O   LIG    1       13.295  14.445  29.348  0.00  0.00    -0.346 OA
BRANCH  28  30
ATOM     30  O   LIG    1       15.467  16.142  31.770  0.00  0.00    -0.387 OA
ATOM     31  H   LIG    1       15.448  16.033  32.736  0.00  0.00    +0.210 HD
ENDBRANCH  28  30
BRANCH  27  32
ATOM     32  O   LIG    1       16.752  14.343  30.107  0.00  0.00    -0.386 OA
ATOM     33  H   LIG    1       16.469  14.293  29.177  0.00  0.00    +0.210 HD
ENDBRANCH  27  32
BRANCH  26  34
ATOM     34  O   LIG    1       13.984  12.167  31.071  0.00  0.00    -0.384 OA
ATOM     35  H   LIG    1       14.238  12.396  31.980  0.00  0.00    +0.210 HD
ENDBRANCH  26  34
ENDBRANCH  24  25
ENDBRANCH  23  24
ENDBRANCH  22  23
TORSDOF 13
ENDMDL
MODEL 9
REMARK VINA RESULT:      -6.7     21.052     24.206
REMARK  Name = 9823887
REMARK                            x       y       z     vdW  Elec       q    Type
REMARK                         _______ _______ _______ _____ _____    ______ ____
ROOT
ATOM      1  O   LIG    1       32.864  13.207   1.127  0.00  0.00    -0.341 OA
ATOM      2  C   LIG    1       34.051  12.484   1.447  0.00  0.00    +0.282 C 
ATOM      3  C   LIG    1       33.709  11.055   1.872  0.00  0.00    +0.201 C 
ATOM      4  C   LIG    1       32.853  10.351   0.820  0.00  0.00    +0.179 C 
ATOM      5  C   LIG    1       31.678  11.227   0.386  0.00  0.00    +0.177 C 
ATOM     22  C   LIG    1       32.155  12.636   0.026  0.00  0.00    +0.178 C 
ENDROOT
BRANCH   5   6
ATOM      6  O   LIG    1       31.045  10.639  -0.748  0.00  0.00    -0.386 OA
ATOM      7  H   LIG    1       31.737  10.416  -1.395  0.00  0.00    +0.210 HD
ENDBRANCH   5   6
BRANCH   4   8
ATOM      8  O   LIG    1       32.324   9.143   1.368  0.00  0.00    -0.386 OA
ATOM      9  H   LIG    1       32.706   8.404   0.865  0.00  0.00    +0.210 HD
ENDBRANCH   4   8
BRANCH   3  10
ATOM     10  O   LIG    1       34.930  10.337   2.048  0.00  0.00    -0.384 OA
ATOM     11  H   LIG    1       35.312  10.597   2.903  0.00  0.00    +0.210 HD
ENDBRANCH   3  10
BRANCH   2  12
ATOM     12  O   LIG    1       34.723  13.118   2.533  0.00  0.00    -0.345 OA
BRANCH  12  13
ATOM     13  C   LIG    1       34.671  14.531   2.420  0.00  0.00    +0.190 C 
BRANCH  13  14
ATOM     14  C   LIG    1       36.048  15.081   2.606  0.00  0.00    +0.001 C 
ATOM     15  C   LIG    1       36.349  16.024   3.512  0.00  0.00    +0.006 C 
BRANCH  15  16
ATOM     16  C   LIG    1       37.692  16.585   3.741  0.00  0.00    -0.025 A 
ATOM     17  C   LIG    1       37.840  17.954   3.891  0.00  0.00    +0.008 A 
ATOM     18  C   LIG    1       39.111  18.484   4.108  0.00  0.00    +0.001 A 
ATOM     19  C   LIG    1       40.219  17.638   4.171  0.00  0.00    +0.000 A 
ATOM     20  C   LIG    1       40.055  16.262   4.018  0.00  0.00    +0.001 A 
ATOM     21  C   LIG    1       38.782  15.732   3.802  0.00  0.00    +0.008 A 
ENDBRANCH  15  16
ENDBRANCH  13  14
ENDBRANCH  12  13
ENDBRANCH   2  12
BRANCH  22  23
ATOM     23  C   LIG    1       30.986  13.563  -0.299  0.00  0.00    +0.197 C 
BRANCH  23  24
ATOM     24  O   LIG    1       29.793  12.964   0.173  0.00  0.00    -0.346 OA
BRANCH  24  25
ATOM     25  C   LIG    1       29.032  13.863   0.972  0.00  0.00    +0.281 C 
ATOM     26  C   LIG    1       27.633  13.281   1.226  0.00  0.00    +0.201 C 
ATOM     27  C   LIG    1       27.661  12.135   2.243  0.00  0.00    +0.178 C 
ATOM     28  C   LIG    1       28.452  12.552   3.484  0.00  0.00    +0.171 C 
ATOM     29  C   LIG    1       29.824  13.086   3.093  0.00  0.00    +0.197 C 
ATOM     36  O   LIG    1       29.698  14.188   2.198  0.00  0.00    -0.346 OA
BRANCH  28  30
ATOM     30  O   LIG    1       28.583  11.446   4.367  0.00  0.00    -0.387 OA
ATOM     31  H   LIG    1       28.187  11.701   5.218  0.00  0.00    +0.210 HD
ENDBRANCH  28  30
BRANCH  27  32
ATOM     32  O   LIG    1       28.276  10.990   1.655  0.00  0.00    -0.386 OA
ATOM     33  H   LIG    1       28.357  11.159   0.701  0.00  0.00    +0.210 HD
ENDBRANCH  27  32
BRANCH  26  34
ATOM     34  O   LIG    1       26.802  14.329   1.719  0.00  0.00    -0.384 OA
ATOM     35  H   LIG    1       27.078  15.163   1.303  0.00  0.00    +0.210 HD
ENDBRANCH  26  34
ENDBRANCH  24  25
ENDBRANCH  23  24
ENDBRANCH  22  23
TORSDOF 13
ENDMDL
