MODEL 1
REMARK VINA RESULT:      -4.3      0.000      0.000
REMARK  11 active torsions:
REMARK  status: ('A' for Active; 'I' for Inactive)
REMARK    1  A    between atoms: O_1  and  C_9 
REMARK    2  A    between atoms: O_2  and  C_19 
REMARK    3  A    between atoms: O_3  and  C_26 
REMARK    4  A    between atoms: O_4  and  C_27 
REMARK    5  A    between atoms: O_6  and  C_28 
REMARK    6  A    between atoms: O_7  and  C_32 
REMARK    7  A    between atoms: C_10  and  C_19 
REMARK    8  A    between atoms: C_19  and  C_27 
REMARK    9  A    between atoms: C_27  and  C_30 
REMARK   10  A    between atoms: C_30  and  C_31 
REMARK   11  A    between atoms: C_31  and  C_32 
ROOT
HETATM    1  O   UNK     0     -13.550  14.671  15.064  0.00  0.00    -0.384 OA
HETATM    2  H   UNK     0     -13.251  13.835  15.463  0.00  0.00     0.211 HD
ENDROOT
BRANCH   1   3
HETATM    3  C   UNK     0     -14.936  14.864  15.427  0.00  0.00     0.089 C 
HETATM    4  C   UNK     0     -15.672  13.500  15.392  0.00  0.00    -0.002 C 
HETATM    5  C   UNK     0     -15.570  13.156  13.884  0.00  0.00     0.034 C 
HETATM    6  C   UNK     0     -14.923  12.515  16.307  0.00  0.00     0.014 C 
HETATM    7  C   UNK     0     -17.156  13.602  15.836  0.00  0.00     0.019 C 
HETATM    8  C   UNK     0     -15.807  14.512  13.180  0.00  0.00     0.012 C 
HETATM    9  C   UNK     0     -15.572  15.608  14.243  0.00  0.00     0.044 C 
HETATM   10  C   UNK     0     -14.865  13.040  17.751  0.00  0.00     0.011 C 
HETATM   11  C   UNK     0     -14.361  14.508  17.903  0.00  0.00     0.027 C 
HETATM   12  C   UNK     0     -14.552  15.061  19.370  0.00  0.00    -0.023 C 
HETATM   13  C   UNK     0     -14.913  15.451  16.823  0.00  0.00    -0.037 C 
HETATM   14  C   UNK     0     -14.221  16.579  19.414  0.00  0.00     0.071 C 
HETATM   15  C   UNK     0     -13.630  14.326  20.384  0.00  0.00     0.044 C 
HETATM   16  C   UNK     0     -16.011  14.872  19.865  0.00  0.00     0.016 C 
HETATM   17  C   UNK     0     -12.725  16.888  19.231  0.00  0.00     0.047 C 
HETATM   18  C   UNK     0     -15.026  17.346  18.382  0.00  0.00     0.154 C 
HETATM   19  C   UNK     0     -11.864  16.141  20.248  0.00  0.00     0.147 C 
HETATM   20  C   UNK     0     -12.141  14.638  20.199  0.00  0.00     0.147 C 
HETATM   21  O   UNK     0     -15.426  18.490  18.594  0.00  0.00    -0.293 OA
HETATM   22  C   UNK     0     -15.260  16.726  17.059  0.00  0.00     0.057 C 
BRANCH   5  23
HETATM   23  C   UNK     0     -16.493  12.057  13.372  0.00  0.00     0.084 C 
HETATM   24  C   UNK     0     -17.954  12.406  13.703  0.00  0.00     0.049 C 
BRANCH  23  25
HETATM   25  O   UNK     0     -16.380  11.998  11.944  0.00  0.00    -0.387 OA
HETATM   26  H   UNK     0     -16.576  11.093  11.650  0.00  0.00     0.210 HD
ENDBRANCH  23  25
BRANCH  23  27
HETATM   27  C   UNK     0     -16.119  10.662  13.945  0.00  0.00     0.152 C 
BRANCH  27  28
HETATM   28  O   UNK     0     -14.792  10.316  13.536  0.00  0.00    -0.393 OA
HETATM   29  H   UNK     0     -14.176  10.857  14.060  0.00  0.00     0.210 HD
ENDBRANCH  27  28
BRANCH  27  30
HETATM   30  C   UNK     0     -17.070   9.528  13.518  0.00  0.00     0.037 C 
BRANCH  30  31
HETATM   31  C   UNK     0     -16.319   8.376  12.824  0.00  0.00     0.040 C 
BRANCH  31  32
HETATM   32  C   UNK     0     -16.317   8.451  11.283  0.00  0.00     0.051 C 
HETATM   33  C   UNK     0     -15.911   7.091  10.704  0.00  0.00     0.045 C 
HETATM   34  C   UNK     0     -17.673   8.876  10.714  0.00  0.00     0.045 C 
BRANCH  32  35
HETATM   35  O   UNK     0     -15.337   9.410  10.881  0.00  0.00    -0.391 OA
HETATM   36  H   UNK     0     -15.711  10.296  11.018  0.00  0.00     0.210 HD
ENDBRANCH  32  35
ENDBRANCH  31  32
ENDBRANCH  30  31
ENDBRANCH  27  30
ENDBRANCH  23  27
ENDBRANCH   5  23
BRANCH  19  37
HETATM   37  O   UNK     0     -12.156  16.631  21.558  0.00  0.00    -0.393 OA
HETATM   38  H   UNK     0     -11.444  16.332  22.148  0.00  0.00     0.210 HD
ENDBRANCH  19  37
BRANCH  20  39
HETATM   39  O   UNK     0     -11.387  13.994  21.223  0.00  0.00    -0.393 OA
HETATM   40  H   UNK     0     -11.453  13.034  21.076  0.00  0.00     0.210 HD
ENDBRANCH  20  39
ENDBRANCH   1   3
TORSDOF 11
ENDMDL
MODEL 2
REMARK VINA RESULT:      -4.2      8.610     16.324
REMARK  11 active torsions:
REMARK  status: ('A' for Active; 'I' for Inactive)
REMARK    1  A    between atoms: O_1  and  C_9 
REMARK    2  A    between atoms: O_2  and  C_19 
REMARK    3  A    between atoms: O_3  and  C_26 
REMARK    4  A    between atoms: O_4  and  C_27 
REMARK    5  A    between atoms: O_6  and  C_28 
REMARK    6  A    between atoms: O_7  and  C_32 
REMARK    7  A    between atoms: C_10  and  C_19 
REMARK    8  A    between atoms: C_19  and  C_27 
REMARK    9  A    between atoms: C_27  and  C_30 
REMARK   10  A    between atoms: C_30  and  C_31 
REMARK   11  A    between atoms: C_31  and  C_32 
ROOT
HETATM    1  O   UNK     0     -10.467   5.536   5.497  0.00  0.00    -0.384 OA
HETATM    2  H   UNK     0      -9.511   5.367   5.432  0.00  0.00     0.211 HD
ENDROOT
BRANCH   1   3
HETATM    3  C   UNK     0     -11.153   4.275   5.325  0.00  0.00     0.089 C 
HETATM    4  C   UNK     0     -12.656   4.456   5.659  0.00  0.00    -0.002 C 
HETATM    5  C   UNK     0     -12.577   4.805   7.167  0.00  0.00     0.034 C 
HETATM    6  C   UNK     0     -13.219   5.592   4.785  0.00  0.00     0.014 C 
HETATM    7  C   UNK     0     -13.486   3.163   5.434  0.00  0.00     0.019 C 
HETATM    8  C   UNK     0     -11.473   3.866   7.705  0.00  0.00     0.012 C 
HETATM    9  C   UNK     0     -10.669   3.382   6.478  0.00  0.00     0.044 C 
HETATM   10  C   UNK     0     -13.050   5.273   3.291  0.00  0.00     0.011 C 
HETATM   11  C   UNK     0     -11.615   4.836   2.864  0.00  0.00     0.027 C 
HETATM   12  C   UNK     0     -11.567   4.296   1.381  0.00  0.00    -0.023 C 
HETATM   13  C   UNK     0     -10.945   3.893   3.875  0.00  0.00    -0.037 C 
HETATM   14  C   UNK     0     -10.166   3.695   1.078  0.00  0.00     0.071 C 
HETATM   15  C   UNK     0     -11.852   5.426   0.350  0.00  0.00     0.044 C 
HETATM   16  C   UNK     0     -12.628   3.188   1.142  0.00  0.00     0.016 C 
HETATM   17  C   UNK     0      -9.050   4.750   0.989  0.00  0.00     0.047 C 
HETATM   18  C   UNK     0      -9.787   2.644   2.104  0.00  0.00     0.154 C 
HETATM   19  C   UNK     0      -9.379   5.836  -0.034  0.00  0.00     0.147 C 
HETATM   20  C   UNK     0     -10.737   6.474   0.263  0.00  0.00     0.147 C 
HETATM   21  O   UNK     0      -9.128   1.651   1.799  0.00  0.00    -0.293 OA
HETATM   22  C   UNK     0     -10.154   2.869   3.520  0.00  0.00     0.057 C 
BRANCH   5  23
HETATM   23  C   UNK     0     -13.875   4.704   7.959  0.00  0.00     0.084 C 
HETATM   24  C   UNK     0     -14.458   3.287   7.825  0.00  0.00     0.049 C 
BRANCH  23  25
HETATM   25  O   UNK     0     -13.577   4.915   9.346  0.00  0.00    -0.387 OA
HETATM   26  H   UNK     0     -13.462   5.867   9.502  0.00  0.00     0.210 HD
ENDBRANCH  23  25
BRANCH  23  27
HETATM   27  C   UNK     0     -14.915   5.770   7.520  0.00  0.00     0.152 C 
BRANCH  27  28
HETATM   28  O   UNK     0     -14.318   7.070   7.564  0.00  0.00    -0.393 OA
HETATM   29  H   UNK     0     -15.033   7.713   7.719  0.00  0.00     0.210 HD
ENDBRANCH  27  28
BRANCH  27  30
HETATM   30  C   UNK     0     -16.195   5.795   8.377  0.00  0.00     0.037 C 
BRANCH  30  31
HETATM   31  C   UNK     0     -16.489   7.200   8.935  0.00  0.00     0.040 C 
BRANCH  31  32
HETATM   32  C   UNK     0     -16.005   7.428  10.382  0.00  0.00     0.051 C 
HETATM   33  C   UNK     0     -16.707   8.658  10.969  0.00  0.00     0.045 C 
HETATM   34  C   UNK     0     -16.247   6.213  11.280  0.00  0.00     0.045 C 
BRANCH  32  35
HETATM   35  O   UNK     0     -14.602   7.697  10.351  0.00  0.00    -0.391 OA
HETATM   36  H   UNK     0     -14.141   6.858  10.179  0.00  0.00     0.210 HD
ENDBRANCH  32  35
ENDBRANCH  31  32
ENDBRANCH  30  31
ENDBRANCH  27  30
ENDBRANCH  23  27
ENDBRANCH   5  23
BRANCH  19  37
HETATM   37  O   UNK     0      -9.406   5.257  -1.340  0.00  0.00    -0.393 OA
HETATM   38  H   UNK     0      -9.464   4.293  -1.232  0.00  0.00     0.210 HD
ENDBRANCH  19  37
BRANCH  20  39
HETATM   39  O   UNK     0     -11.043   7.413  -0.765  0.00  0.00    -0.393 OA
HETATM   40  H   UNK     0     -10.856   6.985  -1.618  0.00  0.00     0.210 HD
ENDBRANCH  20  39
ENDBRANCH   1   3
TORSDOF 11
ENDMDL
MODEL 3
REMARK VINA RESULT:      -4.1      2.872     10.659
REMARK  11 active torsions:
REMARK  status: ('A' for Active; 'I' for Inactive)
REMARK    1  A    between atoms: O_1  and  C_9 
REMARK    2  A    between atoms: O_2  and  C_19 
REMARK    3  A    between atoms: O_3  and  C_26 
REMARK    4  A    between atoms: O_4  and  C_27 
REMARK    5  A    between atoms: O_6  and  C_28 
REMARK    6  A    between atoms: O_7  and  C_32 
REMARK    7  A    between atoms: C_10  and  C_19 
REMARK    8  A    between atoms: C_19  and  C_27 
REMARK    9  A    between atoms: C_27  and  C_30 
REMARK   10  A    between atoms: C_30  and  C_31 
REMARK   11  A    between atoms: C_31  and  C_32 
ROOT
HETATM    1  O   UNK     0     -15.104   9.379  11.134  0.00  0.00    -0.384 OA
HETATM    2  H   UNK     0     -14.723   8.521  11.391  0.00  0.00     0.211 HD
ENDROOT
BRANCH   1   3
HETATM    3  C   UNK     0     -16.478   9.404  11.584  0.00  0.00     0.089 C 
HETATM    4  C   UNK     0     -16.862  10.852  11.985  0.00  0.00    -0.002 C 
HETATM    5  C   UNK     0     -15.914  11.080  13.190  0.00  0.00     0.034 C 
HETATM    6  C   UNK     0     -16.585  11.781  10.789  0.00  0.00     0.014 C 
HETATM    7  C   UNK     0     -18.348  10.986  12.418  0.00  0.00     0.019 C 
HETATM    8  C   UNK     0     -15.937   9.727  13.937  0.00  0.00     0.012 C 
HETATM    9  C   UNK     0     -16.481   8.680  12.940  0.00  0.00     0.044 C 
HETATM   10  C   UNK     0     -17.394  11.348   9.556  0.00  0.00     0.011 C 
HETATM   11  C   UNK     0     -17.281   9.836   9.185  0.00  0.00     0.027 C 
HETATM   12  C   UNK     0     -18.313   9.412   8.068  0.00  0.00    -0.023 C 
HETATM   13  C   UNK     0     -17.300   8.911  10.412  0.00  0.00    -0.037 C 
HETATM   14  C   UNK     0     -18.293   7.868   7.883  0.00  0.00     0.071 C 
HETATM   15  C   UNK     0     -17.983  10.077   6.701  0.00  0.00     0.044 C 
HETATM   16  C   UNK     0     -19.761   9.833   8.439  0.00  0.00     0.016 C 
HETATM   17  C   UNK     0     -17.000   7.344   7.233  0.00  0.00     0.047 C 
HETATM   18  C   UNK     0     -18.520   7.155   9.202  0.00  0.00     0.154 C 
HETATM   19  C   UNK     0     -16.722   8.029   5.896  0.00  0.00     0.147 C 
HETATM   20  C   UNK     0     -16.697   9.550   6.056  0.00  0.00     0.147 C 
HETATM   21  O   UNK     0     -19.139   6.094   9.265  0.00  0.00    -0.293 OA
HETATM   22  C   UNK     0     -17.907   7.715  10.428  0.00  0.00     0.057 C 
BRANCH   5  23
HETATM   23  C   UNK     0     -16.236  12.261  14.097  0.00  0.00     0.084 C 
HETATM   24  C   UNK     0     -17.616  12.059  14.745  0.00  0.00     0.049 C 
BRANCH  23  25
HETATM   25  O   UNK     0     -15.268  12.298  15.154  0.00  0.00    -0.387 OA
HETATM   26  H   UNK     0     -15.283  11.449  15.624  0.00  0.00     0.210 HD
ENDBRANCH  23  25
BRANCH  23  27
HETATM   27  C   UNK     0     -16.179  13.615  13.339  0.00  0.00     0.152 C 
BRANCH  27  28
HETATM   28  O   UNK     0     -14.833  13.880  12.932  0.00  0.00    -0.393 OA
HETATM   29  H   UNK     0     -14.381  14.308  13.680  0.00  0.00     0.210 HD
ENDBRANCH  27  28
BRANCH  27  30
HETATM   30  C   UNK     0     -16.683  14.820  14.158  0.00  0.00     0.037 C 
BRANCH  30  31
HETATM   31  C   UNK     0     -15.619  15.927  14.270  0.00  0.00     0.040 C 
BRANCH  31  32
HETATM   32  C   UNK     0     -14.784  15.884  15.567  0.00  0.00     0.051 C 
HETATM   33  C   UNK     0     -14.294  17.295  15.909  0.00  0.00     0.045 C 
HETATM   34  C   UNK     0     -15.565  15.303  16.748  0.00  0.00     0.045 C 
BRANCH  32  35
HETATM   35  O   UNK     0     -13.636  15.065  15.336  0.00  0.00    -0.391 OA
HETATM   36  H   UNK     0     -12.917  15.392  15.902  0.00  0.00     0.210 HD
ENDBRANCH  32  35
ENDBRANCH  31  32
ENDBRANCH  30  31
ENDBRANCH  27  30
ENDBRANCH  23  27
ENDBRANCH   5  23
BRANCH  19  37
HETATM   37  O   UNK     0     -17.743   7.670   4.964  0.00  0.00    -0.393 OA
HETATM   38  H   UNK     0     -17.581   6.751   4.691  0.00  0.00     0.210 HD
ENDBRANCH  19  37
BRANCH  20  39
HETATM   39  O   UNK     0     -16.525  10.148   4.773  0.00  0.00    -0.393 OA
HETATM   40  H   UNK     0     -17.170   9.739   4.171  0.00  0.00     0.210 HD
ENDBRANCH  20  39
ENDBRANCH   1   3
TORSDOF 11
ENDMDL
MODEL 4
REMARK VINA RESULT:      -4.1     12.031     13.810
REMARK  11 active torsions:
REMARK  status: ('A' for Active; 'I' for Inactive)
REMARK    1  A    between atoms: O_1  and  C_9 
REMARK    2  A    between atoms: O_2  and  C_19 
REMARK    3  A    between atoms: O_3  and  C_26 
REMARK    4  A    between atoms: O_4  and  C_27 
REMARK    5  A    between atoms: O_6  and  C_28 
REMARK    6  A    between atoms: O_7  and  C_32 
REMARK    7  A    between atoms: C_10  and  C_19 
REMARK    8  A    between atoms: C_19  and  C_27 
REMARK    9  A    between atoms: C_27  and  C_30 
REMARK   10  A    between atoms: C_30  and  C_31 
REMARK   11  A    between atoms: C_31  and  C_32 
ROOT
HETATM    1  O   UNK     0      -5.132   8.763  10.683  0.00  0.00    -0.384 OA
HETATM    2  H   UNK     0      -5.571   9.153   9.907  0.00  0.00     0.211 HD
ENDROOT
BRANCH   1   3
HETATM    3  C   UNK     0      -3.754   9.202  10.678  0.00  0.00     0.089 C 
HETATM    4  C   UNK     0      -3.699  10.720  10.364  0.00  0.00    -0.002 C 
HETATM    5  C   UNK     0      -4.257  10.736   8.918  0.00  0.00     0.034 C 
HETATM    6  C   UNK     0      -4.583  11.463  11.382  0.00  0.00     0.014 C 
HETATM    7  C   UNK     0      -2.257  11.294  10.407  0.00  0.00     0.019 C 
HETATM    8  C   UNK     0      -3.618   9.490   8.264  0.00  0.00     0.012 C 
HETATM    9  C   UNK     0      -3.129   8.586   9.417  0.00  0.00     0.044 C 
HETATM   10  C   UNK     0      -4.102  11.209  12.820  0.00  0.00     0.011 C 
HETATM   11  C   UNK     0      -3.884   9.709  13.191  0.00  0.00     0.027 C 
HETATM   12  C   UNK     0      -3.167   9.533  14.587  0.00  0.00    -0.023 C 
HETATM   13  C   UNK     0      -3.225   8.898  12.064  0.00  0.00    -0.037 C 
HETATM   14  C   UNK     0      -2.798   8.039  14.812  0.00  0.00     0.071 C 
HETATM   15  C   UNK     0      -4.075   9.999  15.760  0.00  0.00     0.044 C 
HETATM   16  C   UNK     0      -1.860  10.368  14.667  0.00  0.00     0.016 C 
HETATM   17  C   UNK     0      -4.020   7.134  15.049  0.00  0.00     0.047 C 
HETATM   18  C   UNK     0      -1.983   7.496  13.654  0.00  0.00     0.154 C 
HETATM   19  C   UNK     0      -4.878   7.636  16.209  0.00  0.00     0.147 C 
HETATM   20  C   UNK     0      -5.289   9.093  15.995  0.00  0.00     0.147 C 
HETATM   21  O   UNK     0      -1.097   6.659  13.823  0.00  0.00    -0.293 OA
HETATM   22  C   UNK     0      -2.326   7.926  12.280  0.00  0.00     0.057 C 
BRANCH   5  23
HETATM   23  C   UNK     0      -4.025  12.010   8.114  0.00  0.00     0.084 C 
HETATM   24  C   UNK     0      -2.529  12.158   7.792  0.00  0.00     0.049 C 
BRANCH  23  25
HETATM   25  O   UNK     0      -4.722  11.890   6.867  0.00  0.00    -0.387 OA
HETATM   26  H   UNK     0      -4.613  10.986   6.530  0.00  0.00     0.210 HD
ENDBRANCH  23  25
BRANCH  23  27
HETATM   27  C   UNK     0      -4.557  13.272   8.847  0.00  0.00     0.152 C 
BRANCH  27  28
HETATM   28  O   UNK     0      -5.663  13.817   8.121  0.00  0.00    -0.393 OA
HETATM   29  H   UNK     0      -6.408  13.897   8.743  0.00  0.00     0.210 HD
ENDBRANCH  27  28
BRANCH  27  30
HETATM   30  C   UNK     0      -3.506  14.383   9.035  0.00  0.00     0.037 C 
BRANCH  30  31
HETATM   31  C   UNK     0      -3.447  14.881  10.492  0.00  0.00     0.040 C 
BRANCH  31  32
HETATM   32  C   UNK     0      -4.368  16.081  10.795  0.00  0.00     0.051 C 
HETATM   33  C   UNK     0      -3.715  16.971  11.859  0.00  0.00     0.045 C 
HETATM   34  C   UNK     0      -4.686  16.907   9.547  0.00  0.00     0.045 C 
BRANCH  32  35
HETATM   35  O   UNK     0      -5.594  15.583  11.333  0.00  0.00    -0.391 OA
HETATM   36  H   UNK     0      -6.316  15.871  10.750  0.00  0.00     0.210 HD
ENDBRANCH  32  35
ENDBRANCH  31  32
ENDBRANCH  30  31
ENDBRANCH  27  30
ENDBRANCH  23  27
ENDBRANCH   5  23
BRANCH  19  37
HETATM   37  O   UNK     0      -4.134   7.529  17.423  0.00  0.00    -0.393 OA
HETATM   38  H   UNK     0      -3.190   7.532  17.190  0.00  0.00     0.210 HD
ENDBRANCH  19  37
BRANCH  20  39
HETATM   39  O   UNK     0      -6.009   9.545  17.140  0.00  0.00    -0.393 OA
HETATM   40  H   UNK     0      -6.563   8.807  17.446  0.00  0.00     0.210 HD
ENDBRANCH  20  39
ENDBRANCH   1   3
TORSDOF 11
ENDMDL
MODEL 5
REMARK VINA RESULT:      -4.1      1.234      1.386
REMARK  11 active torsions:
REMARK  status: ('A' for Active; 'I' for Inactive)
REMARK    1  A    between atoms: O_1  and  C_9 
REMARK    2  A    between atoms: O_2  and  C_19 
REMARK    3  A    between atoms: O_3  and  C_26 
REMARK    4  A    between atoms: O_4  and  C_27 
REMARK    5  A    between atoms: O_6  and  C_28 
REMARK    6  A    between atoms: O_7  and  C_32 
REMARK    7  A    between atoms: C_10  and  C_19 
REMARK    8  A    between atoms: C_19  and  C_27 
REMARK    9  A    between atoms: C_27  and  C_30 
REMARK   10  A    between atoms: C_30  and  C_31 
REMARK   11  A    between atoms: C_31  and  C_32 
ROOT
HETATM    1  O   UNK     0     -13.562  14.597  14.824  0.00  0.00    -0.384 OA
HETATM    2  H   UNK     0     -13.582  13.625  14.778  0.00  0.00     0.211 HD
ENDROOT
BRANCH   1   3
HETATM    3  C   UNK     0     -14.822  15.039  15.379  0.00  0.00     0.089 C 
HETATM    4  C   UNK     0     -15.650  13.805  15.821  0.00  0.00    -0.002 C 
HETATM    5  C   UNK     0     -15.894  13.115  14.454  0.00  0.00     0.034 C 
HETATM    6  C   UNK     0     -14.803  12.969  16.797  0.00  0.00     0.014 C 
HETATM    7  C   UNK     0     -16.996  14.189  16.494  0.00  0.00     0.019 C 
HETATM    8  C   UNK     0     -16.171  14.294  13.492  0.00  0.00     0.012 C 
HETATM    9  C   UNK     0     -15.635  15.565  14.186  0.00  0.00     0.044 C 
HETATM   10  C   UNK     0     -14.402  13.799  18.028  0.00  0.00     0.011 C 
HETATM   11  C   UNK     0     -13.768  15.189  17.713  0.00  0.00     0.027 C 
HETATM   12  C   UNK     0     -13.604  16.082  19.006  0.00  0.00    -0.023 C 
HETATM   13  C   UNK     0     -14.462  15.921  16.555  0.00  0.00    -0.037 C 
HETATM   14  C   UNK     0     -13.157  17.517  18.609  0.00  0.00     0.071 C 
HETATM   15  C   UNK     0     -12.547  15.489  19.981  0.00  0.00     0.044 C 
HETATM   16  C   UNK     0     -14.936  16.194  19.795  0.00  0.00     0.016 C 
HETATM   17  C   UNK     0     -11.714  17.587  18.079  0.00  0.00     0.047 C 
HETATM   18  C   UNK     0     -14.101  18.122  17.587  0.00  0.00     0.154 C 
HETATM   19  C   UNK     0     -10.718  16.991  19.072  0.00  0.00     0.147 C 
HETATM   20  C   UNK     0     -11.111  15.563  19.451  0.00  0.00     0.147 C 
HETATM   21  O   UNK     0     -14.359  19.324  17.578  0.00  0.00    -0.293 OA
HETATM   22  C   UNK     0     -14.654  17.249  16.527  0.00  0.00     0.057 C 
BRANCH   5  23
HETATM   23  C   UNK     0     -16.985  12.051  14.413  0.00  0.00     0.084 C 
HETATM   24  C   UNK     0     -17.347  11.620  15.844  0.00  0.00     0.049 C 
BRANCH  23  25
HETATM   25  O   UNK     0     -18.160  12.629  13.830  0.00  0.00    -0.387 OA
HETATM   26  H   UNK     0     -18.466  12.058  13.106  0.00  0.00     0.210 HD
ENDBRANCH  23  25
BRANCH  23  27
HETATM   27  C   UNK     0     -16.574  10.822  13.557  0.00  0.00     0.152 C 
BRANCH  27  28
HETATM   28  O   UNK     0     -15.148  10.694  13.556  0.00  0.00    -0.393 OA
HETATM   29  H   UNK     0     -14.854  10.708  14.484  0.00  0.00     0.210 HD
ENDBRANCH  27  28
BRANCH  27  30
HETATM   30  C   UNK     0     -17.056  10.880  12.095  0.00  0.00     0.037 C 
BRANCH  30  31
HETATM   31  C   UNK     0     -17.526   9.504  11.587  0.00  0.00     0.040 C 
BRANCH  31  32
HETATM   32  C   UNK     0     -16.403   8.617  11.011  0.00  0.00     0.051 C 
HETATM   33  C   UNK     0     -16.172   7.417  11.936  0.00  0.00     0.045 C 
HETATM   34  C   UNK     0     -16.708   8.130   9.593  0.00  0.00     0.045 C 
BRANCH  32  35
HETATM   35  O   UNK     0     -15.197   9.383  10.977  0.00  0.00    -0.391 OA
HETATM   36  H   UNK     0     -14.572   8.984  11.605  0.00  0.00     0.210 HD
ENDBRANCH  32  35
ENDBRANCH  31  32
ENDBRANCH  30  31
ENDBRANCH  27  30
ENDBRANCH  23  27
ENDBRANCH   5  23
BRANCH  19  37
HETATM   37  O   UNK     0     -10.689  17.800  20.250  0.00  0.00    -0.393 OA
HETATM   38  H   UNK     0     -10.916  17.230  21.003  0.00  0.00     0.210 HD
ENDBRANCH  19  37
BRANCH  20  39
HETATM   39  O   UNK     0     -10.209  15.081  20.445  0.00  0.00    -0.393 OA
HETATM   40  H   UNK     0      -9.350  14.935  20.014  0.00  0.00     0.210 HD
ENDBRANCH  20  39
ENDBRANCH   1   3
TORSDOF 11
ENDMDL
MODEL 6
REMARK VINA RESULT:      -4.0      2.761      5.029
REMARK  11 active torsions:
REMARK  status: ('A' for Active; 'I' for Inactive)
REMARK    1  A    between atoms: O_1  and  C_9 
REMARK    2  A    between atoms: O_2  and  C_19 
REMARK    3  A    between atoms: O_3  and  C_26 
REMARK    4  A    between atoms: O_4  and  C_27 
REMARK    5  A    between atoms: O_6  and  C_28 
REMARK    6  A    between atoms: O_7  and  C_32 
REMARK    7  A    between atoms: C_10  and  C_19 
REMARK    8  A    between atoms: C_19  and  C_27 
REMARK    9  A    between atoms: C_27  and  C_30 
REMARK   10  A    between atoms: C_30  and  C_31 
REMARK   11  A    between atoms: C_31  and  C_32 
ROOT
HETATM    1  O   UNK     0     -16.265  12.654  11.929  0.00  0.00    -0.384 OA
HETATM    2  H   UNK     0     -15.670  12.665  12.699  0.00  0.00     0.211 HD
ENDROOT
BRANCH   1   3
HETATM    3  C   UNK     0     -17.415  11.846  12.269  0.00  0.00     0.089 C 
HETATM    4  C   UNK     0     -17.089  10.352  12.010  0.00  0.00    -0.002 C 
HETATM    5  C   UNK     0     -16.893  10.361  10.473  0.00  0.00     0.034 C 
HETATM    6  C   UNK     0     -15.819   9.984  12.799  0.00  0.00     0.014 C 
HETATM    7  C   UNK     0     -18.248   9.402  12.414  0.00  0.00     0.019 C 
HETATM    8  C   UNK     0     -18.001  11.311   9.966  0.00  0.00     0.012 C 
HETATM    9  C   UNK     0     -18.461  12.143  11.183  0.00  0.00     0.044 C 
HETATM   10  C   UNK     0     -16.016  10.224  14.304  0.00  0.00     0.011 C 
HETATM   11  C   UNK     0     -16.577  11.629  14.684  0.00  0.00     0.027 C 
HETATM   12  C   UNK     0     -16.980  11.724  16.209  0.00  0.00    -0.023 C 
HETATM   13  C   UNK     0     -17.683  12.115  13.734  0.00  0.00    -0.037 C 
HETATM   14  C   UNK     0     -17.712  13.067  16.484  0.00  0.00     0.071 C 
HETATM   15  C   UNK     0     -15.734  11.642  17.136  0.00  0.00     0.044 C 
HETATM   16  C   UNK     0     -17.928  10.565  16.622  0.00  0.00     0.016 C 
HETATM   17  C   UNK     0     -16.792  14.297  16.398  0.00  0.00     0.047 C 
HETATM   18  C   UNK     0     -18.891  13.251  15.547  0.00  0.00     0.154 C 
HETATM   19  C   UNK     0     -15.585  14.167  17.325  0.00  0.00     0.147 C 
HETATM   20  C   UNK     0     -14.821  12.871  17.050  0.00  0.00     0.147 C 
HETATM   21  O   UNK     0     -19.922  13.816  15.909  0.00  0.00    -0.293 OA
HETATM   22  C   UNK     0     -18.756  12.810  14.141  0.00  0.00     0.057 C 
BRANCH   5  23
HETATM   23  C   UNK     0     -16.913   9.006   9.776  0.00  0.00     0.084 C 
HETATM   24  C   UNK     0     -18.365   8.532   9.600  0.00  0.00     0.049 C 
BRANCH  23  25
HETATM   25  O   UNK     0     -16.351   9.161   8.466  0.00  0.00    -0.387 OA
HETATM   26  H   UNK     0     -15.899  10.020   8.417  0.00  0.00     0.210 HD
ENDBRANCH  23  25
BRANCH  23  27
HETATM   27  C   UNK     0     -16.077   7.941  10.538  0.00  0.00     0.152 C 
BRANCH  27  28
HETATM   28  O   UNK     0     -14.683   8.179  10.318  0.00  0.00    -0.393 OA
HETATM   29  H   UNK     0     -14.219   7.335  10.457  0.00  0.00     0.210 HD
ENDBRANCH  27  28
BRANCH  27  30
HETATM   30  C   UNK     0     -16.390   6.487  10.138  0.00  0.00     0.037 C 
BRANCH  30  31
HETATM   31  C   UNK     0     -15.146   5.757   9.596  0.00  0.00     0.040 C 
BRANCH  31  32
HETATM   32  C   UNK     0     -14.991   5.811   8.062  0.00  0.00     0.051 C 
HETATM   33  C   UNK     0     -14.127   4.635   7.592  0.00  0.00     0.045 C 
HETATM   34  C   UNK     0     -16.336   5.793   7.334  0.00  0.00     0.045 C 
BRANCH  32  35
HETATM   35  O   UNK     0     -14.307   7.020   7.722  0.00  0.00    -0.391 OA
HETATM   36  H   UNK     0     -14.977   7.695   7.520  0.00  0.00     0.210 HD
ENDBRANCH  32  35
ENDBRANCH  31  32
ENDBRANCH  30  31
ENDBRANCH  27  30
ENDBRANCH  23  27
ENDBRANCH   5  23
BRANCH  19  37
HETATM   37  O   UNK     0     -16.033  14.170  18.682  0.00  0.00    -0.393 OA
HETATM   38  H   UNK     0     -15.739  15.004  19.086  0.00  0.00     0.210 HD
ENDBRANCH  19  37
BRANCH  20  39
HETATM   39  O   UNK     0     -13.761  12.747  17.995  0.00  0.00    -0.393 OA
HETATM   40  H   UNK     0     -13.411  13.639  18.160  0.00  0.00     0.210 HD
ENDBRANCH  20  39
ENDBRANCH   1   3
TORSDOF 11
ENDMDL
MODEL 7
REMARK VINA RESULT:      -4.0     12.479     14.062
REMARK  11 active torsions:
REMARK  status: ('A' for Active; 'I' for Inactive)
REMARK    1  A    between atoms: O_1  and  C_9 
REMARK    2  A    between atoms: O_2  and  C_19 
REMARK    3  A    between atoms: O_3  and  C_26 
REMARK    4  A    between atoms: O_4  and  C_27 
REMARK    5  A    between atoms: O_6  and  C_28 
REMARK    6  A    between atoms: O_7  and  C_32 
REMARK    7  A    between atoms: C_10  and  C_19 
REMARK    8  A    between atoms: C_19  and  C_27 
REMARK    9  A    between atoms: C_27  and  C_30 
REMARK   10  A    between atoms: C_30  and  C_31 
REMARK   11  A    between atoms: C_31  and  C_32 
ROOT
HETATM    1  O   UNK     0      -5.125   8.589  10.637  0.00  0.00    -0.384 OA
HETATM    2  H   UNK     0      -5.393   8.403   9.720  0.00  0.00     0.211 HD
ENDROOT
BRANCH   1   3
HETATM    3  C   UNK     0      -3.727   8.958  10.622  0.00  0.00     0.089 C 
HETATM    4  C   UNK     0      -3.595  10.458  10.254  0.00  0.00    -0.002 C 
HETATM    5  C   UNK     0      -4.149  10.451   8.806  0.00  0.00     0.034 C 
HETATM    6  C   UNK     0      -4.442  11.282  11.241  0.00  0.00     0.014 C 
HETATM    7  C   UNK     0      -2.126  10.961  10.281  0.00  0.00     0.019 C 
HETATM    8  C   UNK     0      -3.572   9.151   8.199  0.00  0.00     0.012 C 
HETATM    9  C   UNK     0      -3.132   8.266   9.386  0.00  0.00     0.044 C 
HETATM   10  C   UNK     0      -3.977  11.055  12.689  0.00  0.00     0.011 C 
HETATM   11  C   UNK     0      -3.836   9.561  13.114  0.00  0.00     0.027 C 
HETATM   12  C   UNK     0      -3.131   9.399  14.518  0.00  0.00    -0.023 C 
HETATM   13  C   UNK     0      -3.217   8.677  12.019  0.00  0.00    -0.037 C 
HETATM   14  C   UNK     0      -2.838   7.898  14.798  0.00  0.00     0.071 C 
HETATM   15  C   UNK     0      -4.017   9.952  15.671  0.00  0.00     0.044 C 
HETATM   16  C   UNK     0      -1.784  10.170  14.573  0.00  0.00     0.016 C 
HETATM   17  C   UNK     0      -4.104   7.064  15.063  0.00  0.00     0.047 C 
HETATM   18  C   UNK     0      -2.050   7.273  13.663  0.00  0.00     0.154 C 
HETATM   19  C   UNK     0      -4.939   7.650  16.201  0.00  0.00     0.147 C 
HETATM   20  C   UNK     0      -5.275   9.117  15.933  0.00  0.00     0.147 C 
HETATM   21  O   UNK     0      -1.207   6.399  13.866  0.00  0.00    -0.293 OA
HETATM   22  C   UNK     0      -2.367   7.670  12.273  0.00  0.00     0.057 C 
BRANCH   5  23
HETATM   23  C   UNK     0      -3.852  11.681   7.957  0.00  0.00     0.084 C 
HETATM   24  C   UNK     0      -2.430  11.586   7.380  0.00  0.00     0.049 C 
BRANCH  23  25
HETATM   25  O   UNK     0      -4.763  11.698   6.851  0.00  0.00    -0.387 OA
HETATM   26  H   UNK     0      -5.132  12.592   6.760  0.00  0.00     0.210 HD
ENDBRANCH  23  25
BRANCH  23  27
HETATM   27  C   UNK     0      -4.034  13.002   8.754  0.00  0.00     0.152 C 
BRANCH  27  28
HETATM   28  O   UNK     0      -5.382  13.463   8.618  0.00  0.00    -0.393 OA
HETATM   29  H   UNK     0      -5.345  14.366   8.257  0.00  0.00     0.210 HD
ENDBRANCH  27  28
BRANCH  27  30
HETATM   30  C   UNK     0      -3.087  14.138   8.320  0.00  0.00     0.037 C 
BRANCH  30  31
HETATM   31  C   UNK     0      -3.853  15.320   7.696  0.00  0.00     0.040 C 
BRANCH  31  32
HETATM   32  C   UNK     0      -3.905  15.307   6.155  0.00  0.00     0.051 C 
HETATM   33  C   UNK     0      -4.180  16.724   5.639  0.00  0.00     0.045 C 
HETATM   34  C   UNK     0      -2.619  14.764   5.528  0.00  0.00     0.045 C 
BRANCH  32  35
HETATM   35  O   UNK     0      -4.994  14.474   5.749  0.00  0.00    -0.391 OA
HETATM   36  H   UNK     0      -5.755  14.679   6.317  0.00  0.00     0.210 HD
ENDBRANCH  32  35
ENDBRANCH  31  32
ENDBRANCH  30  31
ENDBRANCH  27  30
ENDBRANCH  23  27
ENDBRANCH   5  23
BRANCH  19  37
HETATM   37  O   UNK     0      -4.202   7.550  17.421  0.00  0.00    -0.393 OA
HETATM   38  H   UNK     0      -4.730   7.017  18.039  0.00  0.00     0.210 HD
ENDBRANCH  19  37
BRANCH  20  39
HETATM   39  O   UNK     0      -5.973   9.645  17.058  0.00  0.00    -0.393 OA
HETATM   40  H   UNK     0      -6.860   9.907  16.756  0.00  0.00     0.210 HD
ENDBRANCH  20  39
ENDBRANCH   1   3
TORSDOF 11
ENDMDL
MODEL 8
REMARK VINA RESULT:      -4.0      5.133     13.477
REMARK  11 active torsions:
REMARK  status: ('A' for Active; 'I' for Inactive)
REMARK    1  A    between atoms: O_1  and  C_9 
REMARK    2  A    between atoms: O_2  and  C_19 
REMARK    3  A    between atoms: O_3  and  C_26 
REMARK    4  A    between atoms: O_4  and  C_27 
REMARK    5  A    between atoms: O_6  and  C_28 
REMARK    6  A    between atoms: O_7  and  C_32 
REMARK    7  A    between atoms: C_10  and  C_19 
REMARK    8  A    between atoms: C_19  and  C_27 
REMARK    9  A    between atoms: C_27  and  C_30 
REMARK   10  A    between atoms: C_30  and  C_31 
REMARK   11  A    between atoms: C_31  and  C_32 
ROOT
HETATM    1  O   UNK     0     -13.701   6.441   7.756  0.00  0.00    -0.384 OA
HETATM    2  H   UNK     0     -13.878   7.394   7.681  0.00  0.00     0.211 HD
ENDROOT
BRANCH   1   3
HETATM    3  C   UNK     0     -14.970   5.767   7.919  0.00  0.00     0.089 C 
HETATM    4  C   UNK     0     -15.941   6.683   8.709  0.00  0.00    -0.002 C 
HETATM    5  C   UNK     0     -15.214   6.765  10.075  0.00  0.00     0.034 C 
HETATM    6  C   UNK     0     -16.047   8.032   7.976  0.00  0.00     0.014 C 
HETATM    7  C   UNK     0     -17.356   6.065   8.872  0.00  0.00     0.019 C 
HETATM    8  C   UNK     0     -14.687   5.330  10.299  0.00  0.00     0.012 C 
HETATM    9  C   UNK     0     -14.707   4.632   8.921  0.00  0.00     0.044 C 
HETATM   10  C   UNK     0     -16.560   7.841   6.539  0.00  0.00     0.011 C 
HETATM   11  C   UNK     0     -15.808   6.758   5.705  0.00  0.00     0.027 C 
HETATM   12  C   UNK     0     -16.531   6.444   4.337  0.00  0.00    -0.023 C 
HETATM   13  C   UNK     0     -15.472   5.497   6.517  0.00  0.00    -0.037 C 
HETATM   14  C   UNK     0     -15.856   5.227   3.645  0.00  0.00     0.071 C 
HETATM   15  C   UNK     0     -16.472   7.659   3.366  0.00  0.00     0.044 C 
HETATM   16  C   UNK     0     -18.032   6.106   4.548  0.00  0.00     0.016 C 
HETATM   17  C   UNK     0     -14.444   5.528   3.111  0.00  0.00     0.047 C 
HETATM   18  C   UNK     0     -15.801   4.029   4.574  0.00  0.00     0.154 C 
HETATM   19  C   UNK     0     -14.441   6.728   2.166  0.00  0.00     0.147 C 
HETATM   20  C   UNK     0     -15.065   7.953   2.836  0.00  0.00     0.147 C 
HETATM   21  O   UNK     0     -15.916   2.879   4.153  0.00  0.00    -0.293 OA
HETATM   22  C   UNK     0     -15.518   4.256   6.009  0.00  0.00     0.057 C 
BRANCH   5  23
HETATM   23  C   UNK     0     -16.032   7.284  11.252  0.00  0.00     0.084 C 
HETATM   24  C   UNK     0     -17.210   6.334  11.526  0.00  0.00     0.049 C 
BRANCH  23  25
HETATM   25  O   UNK     0     -15.199   7.281  12.419  0.00  0.00    -0.387 OA
HETATM   26  H   UNK     0     -14.268   7.249  12.141  0.00  0.00     0.210 HD
ENDBRANCH  23  25
BRANCH  23  27
HETATM   27  C   UNK     0     -16.538   8.734  11.021  0.00  0.00     0.152 C 
BRANCH  27  28
HETATM   28  O   UNK     0     -15.420   9.619  10.903  0.00  0.00    -0.393 OA
HETATM   29  H   UNK     0     -14.769   9.189  10.320  0.00  0.00     0.210 HD
ENDBRANCH  27  28
BRANCH  27  30
HETATM   30  C   UNK     0     -17.461   9.265  12.135  0.00  0.00     0.037 C 
BRANCH  30  31
HETATM   31  C   UNK     0     -16.956  10.600  12.715  0.00  0.00     0.040 C 
BRANCH  31  32
HETATM   32  C   UNK     0     -16.053  10.456  13.958  0.00  0.00     0.051 C 
HETATM   33  C   UNK     0     -16.001  11.790  14.711  0.00  0.00     0.045 C 
HETATM   34  C   UNK     0     -16.523   9.345  14.899  0.00  0.00     0.045 C 
BRANCH  32  35
HETATM   35  O   UNK     0     -14.729  10.149  13.518  0.00  0.00    -0.391 OA
HETATM   36  H   UNK     0     -14.379   9.446  14.092  0.00  0.00     0.210 HD
ENDBRANCH  32  35
ENDBRANCH  31  32
ENDBRANCH  30  31
ENDBRANCH  27  30
ENDBRANCH  23  27
ENDBRANCH   5  23
BRANCH  19  37
HETATM   37  O   UNK     0     -15.187   6.402   0.992  0.00  0.00    -0.393 OA
HETATM   38  H   UNK     0     -15.828   5.713   1.234  0.00  0.00     0.210 HD
ENDBRANCH  19  37
BRANCH  20  39
HETATM   39  O   UNK     0     -15.123   9.019   1.890  0.00  0.00    -0.393 OA
HETATM   40  H   UNK     0     -15.721   9.697   2.251  0.00  0.00     0.210 HD
ENDBRANCH  20  39
ENDBRANCH   1   3
TORSDOF 11
ENDMDL
MODEL 9
REMARK VINA RESULT:      -4.0     12.093     15.109
REMARK  11 active torsions:
REMARK  status: ('A' for Active; 'I' for Inactive)
REMARK    1  A    between atoms: O_1  and  C_9 
REMARK    2  A    between atoms: O_2  and  C_19 
REMARK    3  A    between atoms: O_3  and  C_26 
REMARK    4  A    between atoms: O_4  and  C_27 
REMARK    5  A    between atoms: O_6  and  C_28 
REMARK    6  A    between atoms: O_7  and  C_32 
REMARK    7  A    between atoms: C_10  and  C_19 
REMARK    8  A    between atoms: C_19  and  C_27 
REMARK    9  A    between atoms: C_27  and  C_30 
REMARK   10  A    between atoms: C_30  and  C_31 
REMARK   11  A    between atoms: C_31  and  C_32 
ROOT
HETATM    1  O   UNK     0      -4.551  11.243   7.538  0.00  0.00    -0.384 OA
HETATM    2  H   UNK     0      -4.723  10.288   7.464  0.00  0.00     0.211 HD
ENDROOT
BRANCH   1   3
HETATM    3  C   UNK     0      -3.386  11.419   8.377  0.00  0.00     0.089 C 
HETATM    4  C   UNK     0      -3.757  12.312   9.590  0.00  0.00    -0.002 C 
HETATM    5  C   UNK     0      -4.092  13.646   8.875  0.00  0.00     0.034 C 
HETATM    6  C   UNK     0      -4.955  11.677  10.318  0.00  0.00     0.014 C 
HETATM    7  C   UNK     0      -2.579  12.499  10.585  0.00  0.00     0.019 C 
HETATM    8  C   UNK     0      -3.019  13.748   7.766  0.00  0.00     0.012 C 
HETATM    9  C   UNK     0      -2.438  12.329   7.581  0.00  0.00     0.044 C 
HETATM   10  C   UNK     0      -4.618  10.256  10.799  0.00  0.00     0.011 C 
HETATM   11  C   UNK     0      -4.004   9.317   9.714  0.00  0.00     0.027 C 
HETATM   12  C   UNK     0      -3.464   7.966  10.326  0.00  0.00    -0.023 C 
HETATM   13  C   UNK     0      -2.983  10.026   8.811  0.00  0.00    -0.037 C 
HETATM   14  C   UNK     0      -2.689   7.163   9.243  0.00  0.00     0.071 C 
HETATM   15  C   UNK     0      -4.621   7.077  10.865  0.00  0.00     0.044 C 
HETATM   16  C   UNK     0      -2.499   8.223  11.516  0.00  0.00     0.016 C 
HETATM   17  C   UNK     0      -3.595   6.587   8.141  0.00  0.00     0.047 C 
HETATM   18  C   UNK     0      -1.598   8.006   8.611  0.00  0.00     0.154 C 
HETATM   19  C   UNK     0      -4.715   5.725   8.722  0.00  0.00     0.147 C 
HETATM   20  C   UNK     0      -5.519   6.503   9.764  0.00  0.00     0.147 C 
HETATM   21  O   UNK     0      -0.530   7.515   8.249  0.00  0.00    -0.293 OA
HETATM   22  C   UNK     0      -1.866   9.438   8.354  0.00  0.00     0.057 C 
BRANCH   5  23
HETATM   23  C   UNK     0      -4.155  14.891   9.751  0.00  0.00     0.084 C 
HETATM   24  C   UNK     0      -2.905  15.756   9.517  0.00  0.00     0.049 C 
BRANCH  23  25
HETATM   25  O   UNK     0      -5.293  15.667   9.354  0.00  0.00    -0.387 OA
HETATM   26  H   UNK     0      -5.609  15.345   8.493  0.00  0.00     0.210 HD
ENDBRANCH  23  25
BRANCH  23  27
HETATM   27  C   UNK     0      -4.308  14.542  11.256  0.00  0.00     0.152 C 
BRANCH  27  28
HETATM   28  O   UNK     0      -5.689  14.320  11.559  0.00  0.00    -0.393 OA
HETATM   29  H   UNK     0      -5.823  13.358  11.617  0.00  0.00     0.210 HD
ENDBRANCH  27  28
BRANCH  27  30
HETATM   30  C   UNK     0      -3.769  15.623  12.214  0.00  0.00     0.037 C 
BRANCH  30  31
HETATM   31  C   UNK     0      -4.891  16.256  13.059  0.00  0.00     0.040 C 
BRANCH  31  32
HETATM   32  C   UNK     0      -5.555  17.492  12.418  0.00  0.00     0.051 C 
HETATM   33  C   UNK     0      -6.222  18.338  13.508  0.00  0.00     0.045 C 
HETATM   34  C   UNK     0      -4.563  18.348  11.628  0.00  0.00     0.045 C 
BRANCH  32  35
HETATM   35  O   UNK     0      -6.576  17.042  11.526  0.00  0.00    -0.391 OA
HETATM   36  H   UNK     0      -7.091  16.356  11.983  0.00  0.00     0.210 HD
ENDBRANCH  32  35
ENDBRANCH  31  32
ENDBRANCH  30  31
ENDBRANCH  27  30
ENDBRANCH  23  27
ENDBRANCH   5  23
BRANCH  19  37
HETATM   37  O   UNK     0      -4.145   4.567   9.335  0.00  0.00    -0.393 OA
HETATM   38  H   UNK     0      -3.387   4.292   8.793  0.00  0.00     0.210 HD
ENDBRANCH  19  37
BRANCH  20  39
HETATM   39  O   UNK     0      -6.491   5.636  10.343  0.00  0.00    -0.393 OA
HETATM   40  H   UNK     0      -6.014   4.891  10.747  0.00  0.00     0.210 HD
ENDBRANCH  20  39
ENDBRANCH   1   3
TORSDOF 11
ENDMDL
MODEL 10
REMARK VINA RESULT:      -3.9      3.037      8.581
REMARK  11 active torsions:
REMARK  status: ('A' for Active; 'I' for Inactive)
REMARK    1  A    between atoms: O_1  and  C_9 
REMARK    2  A    between atoms: O_2  and  C_19 
REMARK    3  A    between atoms: O_3  and  C_26 
REMARK    4  A    between atoms: O_4  and  C_27 
REMARK    5  A    between atoms: O_6  and  C_28 
REMARK    6  A    between atoms: O_7  and  C_32 
REMARK    7  A    between atoms: C_10  and  C_19 
REMARK    8  A    between atoms: C_19  and  C_27 
REMARK    9  A    between atoms: C_27  and  C_30 
REMARK   10  A    between atoms: C_30  and  C_31 
REMARK   11  A    between atoms: C_31  and  C_32 
ROOT
HETATM    1  O   UNK     0     -14.662  13.844  13.160  0.00  0.00    -0.384 OA
HETATM    2  H   UNK     0     -14.399  14.702  12.783  0.00  0.00     0.211 HD
ENDROOT
BRANCH   1   3
HETATM    3  C   UNK     0     -15.909  14.037  13.867  0.00  0.00     0.089 C 
HETATM    4  C   UNK     0     -15.651  14.876  15.145  0.00  0.00    -0.002 C 
HETATM    5  C   UNK     0     -14.740  13.912  15.946  0.00  0.00     0.034 C 
HETATM    6  C   UNK     0     -14.962  16.191  14.737  0.00  0.00     0.014 C 
HETATM    7  C   UNK     0     -16.951  15.191  15.934  0.00  0.00     0.019 C 
HETATM    8  C   UNK     0     -15.365  12.521  15.694  0.00  0.00     0.012 C 
HETATM    9  C   UNK     0     -16.268  12.661  14.449  0.00  0.00     0.044 C 
HETATM   10  C   UNK     0     -15.834  16.989  13.754  0.00  0.00     0.011 C 
HETATM   11  C   UNK     0     -16.364  16.179  12.530  0.00  0.00     0.027 C 
HETATM   12  C   UNK     0     -17.438  16.983  11.697  0.00  0.00    -0.023 C 
HETATM   13  C   UNK     0     -16.820  14.759  12.897  0.00  0.00    -0.037 C 
HETATM   14  C   UNK     0     -18.073  16.063  10.617  0.00  0.00     0.071 C 
HETATM   15  C   UNK     0     -16.808  18.215  10.987  0.00  0.00     0.044 C 
HETATM   16  C   UNK     0     -18.580  17.519  12.604  0.00  0.00     0.016 C 
HETATM   17  C   UNK     0     -17.107  15.695   9.478  0.00  0.00     0.047 C 
HETATM   18  C   UNK     0     -18.630  14.795  11.236  0.00  0.00     0.154 C 
HETATM   19  C   UNK     0     -16.514  16.938   8.815  0.00  0.00     0.147 C 
HETATM   20  C   UNK     0     -15.848  17.845   9.851  0.00  0.00     0.147 C 
HETATM   21  O   UNK     0     -19.645  14.255  10.799  0.00  0.00    -0.293 OA
HETATM   22  C   UNK     0     -17.881  14.154  12.340  0.00  0.00     0.057 C 
BRANCH   5  23
HETATM   23  C   UNK     0     -14.559  14.218  17.427  0.00  0.00     0.084 C 
HETATM   24  C   UNK     0     -15.912  14.116  18.150  0.00  0.00     0.049 C 
BRANCH  23  25
HETATM   25  O   UNK     0     -13.695  13.224  17.994  0.00  0.00    -0.387 OA
HETATM   26  H   UNK     0     -13.158  13.634  18.692  0.00  0.00     0.210 HD
ENDBRANCH  23  25
BRANCH  23  27
HETATM   27  C   UNK     0     -13.914  15.611  17.664  0.00  0.00     0.152 C 
BRANCH  27  28
HETATM   28  O   UNK     0     -12.642  15.668  17.009  0.00  0.00    -0.393 OA
HETATM   29  H   UNK     0     -12.581  16.535  16.569  0.00  0.00     0.210 HD
ENDBRANCH  27  28
BRANCH  27  30
HETATM   30  C   UNK     0     -13.711  15.970  19.149  0.00  0.00     0.037 C 
BRANCH  30  31
HETATM   31  C   UNK     0     -12.230  16.235  19.481  0.00  0.00     0.040 C 
BRANCH  31  32
HETATM   32  C   UNK     0     -11.500  15.048  20.142  0.00  0.00     0.051 C 
HETATM   33  C   UNK     0     -10.310  15.568  20.957  0.00  0.00     0.045 C 
HETATM   34  C   UNK     0     -12.421  14.217  21.038  0.00  0.00     0.045 C 
BRANCH  32  35
HETATM   35  O   UNK     0     -10.988  14.203  19.110  0.00  0.00    -0.391 OA
HETATM   36  H   UNK     0     -10.061  14.449  18.954  0.00  0.00     0.210 HD
ENDBRANCH  32  35
ENDBRANCH  31  32
ENDBRANCH  30  31
ENDBRANCH  27  30
ENDBRANCH  23  27
ENDBRANCH   5  23
BRANCH  19  37
HETATM   37  O   UNK     0     -17.557  17.661   8.159  0.00  0.00    -0.393 OA
HETATM   38  H   UNK     0     -17.167  18.472   7.793  0.00  0.00     0.210 HD
ENDBRANCH  19  37
BRANCH  20  39
HETATM   39  O   UNK     0     -15.392  19.031   9.204  0.00  0.00    -0.393 OA
HETATM   40  H   UNK     0     -15.927  19.150   8.401  0.00  0.00     0.210 HD
ENDBRANCH  20  39
ENDBRANCH   1   3
TORSDOF 11
ENDMDL
