MODEL 1
REMARK VINA RESULT:      -8.6      0.000      0.000
REMARK  6 active torsions:
REMARK  status: ('A' for Active; 'I' for Inactive)
REMARK    1  A    between atoms: C_2  and  C_17 
REMARK    2  A    between atoms: C_3  and  O_15 
REMARK    3  A    between atoms: C_6  and  O_12 
REMARK    4  A    between atoms: C_8  and  O_10 
REMARK    5  A    between atoms: C_20  and  O_24 
REMARK    6  A    between atoms: C_21  and  O_22 
ROOT
ATOM      1  O   LIG     1       4.439  43.564  22.954  0.00  0.00    -0.451 OA
ATOM      2  C   LIG     1       4.259  43.567  21.579  0.00  0.00     0.181 A 
ATOM      3  C   LIG     1       3.430  42.739  20.917  0.00  0.00     0.208 A 
ATOM      4  C   LIG     1       2.628  41.761  21.690  0.00  0.00     0.238 A 
ATOM      5  C   LIG     1       2.813  41.772  23.149  0.00  0.00     0.109 A 
ATOM      6  C   LIG     1       2.102  40.891  23.967  0.00  0.00     0.135 A 
ATOM      7  C   LIG     1       2.298  40.923  25.347  0.00  0.00     0.091 A 
ATOM      8  C   LIG     1       3.200  41.829  25.908  0.00  0.00     0.124 A 
ATOM      9  C   LIG     1       3.909  42.707  25.088  0.00  0.00     0.092 A 
ATOM     10  O   LIG     1       1.855  40.984  21.143  0.00  0.00    -0.283 OA
ATOM     11  C   LIG     1       3.713  42.678  23.707  0.00  0.00     0.147 A 
ENDROOT
BRANCH   2  12
ATOM     12  C   LIG     1       5.097  44.565  20.891  0.00  0.00     0.025 A 
ATOM     13  C   LIG     1       4.730  45.910  20.901  0.00  0.00     0.060 A 
ATOM     14  C   LIG     1       5.524  46.855  20.251  0.00  0.00     0.159 A 
ATOM     15  C   LIG     1       6.685  46.453  19.589  0.00  0.00     0.158 A 
ATOM     16  C   LIG     1       7.052  45.108  19.579  0.00  0.00     0.050 A 
ATOM     17  C   LIG     1       6.258  44.163  20.230  0.00  0.00     0.015 A 
BRANCH  14  18
ATOM     18  O   LIG     1       5.155  48.166  20.266  0.00  0.00    -0.503 OA
ATOM     19  H   LIG     1       5.652  48.639  20.953  0.00  0.00     0.292 HD
ENDBRANCH  14  18
BRANCH  15  20
ATOM     20  O   LIG     1       7.469  47.367  18.952  0.00  0.00    -0.503 OA
ATOM     21  H   LIG     1       7.335  48.244  19.344  0.00  0.00     0.292 HD
ENDBRANCH  15  20
ENDBRANCH   2  12
BRANCH   3  22
ATOM     22  O   LIG     1       3.298  42.745  19.545  0.00  0.00    -0.501 OA
ATOM     23  H   LIG     1       3.748  41.972  19.167  0.00  0.00     0.292 HD
ENDBRANCH   3  22
BRANCH   8  24
ATOM     24  O   LIG     1       3.388  41.856  27.256  0.00  0.00    -0.507 OA
ATOM     25  H   LIG     1       3.119  40.999  27.629  0.00  0.00     0.292 HD
ENDBRANCH   8  24
BRANCH   6  26
ATOM     26  O   LIG     1       1.211  39.986  23.472  0.00  0.00    -0.506 OA
ATOM     27  H   LIG     1       0.424  40.437  23.128  0.00  0.00     0.292 HD
ENDBRANCH   6  26
TORSDOF 6
ENDMDL
MODEL 2
REMARK VINA RESULT:      -8.1      1.467      3.294
REMARK  6 active torsions:
REMARK  status: ('A' for Active; 'I' for Inactive)
REMARK    1  A    between atoms: C_2  and  C_17 
REMARK    2  A    between atoms: C_3  and  O_15 
REMARK    3  A    between atoms: C_6  and  O_12 
REMARK    4  A    between atoms: C_8  and  O_10 
REMARK    5  A    between atoms: C_20  and  O_24 
REMARK    6  A    between atoms: C_21  and  O_22 
ROOT
ATOM      1  O   LIG     1       4.289  43.568  21.790  0.00  0.00    -0.451 OA
ATOM      2  C   LIG     1       5.075  44.527  22.408  0.00  0.00     0.181 A 
ATOM      3  C   LIG     1       5.282  44.604  23.736  0.00  0.00     0.208 A 
ATOM      4  C   LIG     1       4.650  43.594  24.618  0.00  0.00     0.238 A 
ATOM      5  C   LIG     1       3.828  42.571  23.954  0.00  0.00     0.109 A 
ATOM      6  C   LIG     1       3.192  41.572  24.696  0.00  0.00     0.135 A 
ATOM      7  C   LIG     1       2.417  40.615  24.041  0.00  0.00     0.091 A 
ATOM      8  C   LIG     1       2.278  40.655  22.653  0.00  0.00     0.124 A 
ATOM      9  C   LIG     1       2.914  41.653  21.915  0.00  0.00     0.092 A 
ATOM     10  O   LIG     1       4.802  43.611  25.833  0.00  0.00    -0.283 OA
ATOM     11  C   LIG     1       3.691  42.612  22.568  0.00  0.00     0.147 A 
ENDROOT
BRANCH   2  12
ATOM     12  C   LIG     1       5.659  45.492  21.460  0.00  0.00     0.025 A 
ATOM     13  C   LIG     1       7.005  45.398  21.107  0.00  0.00     0.060 A 
ATOM     14  C   LIG     1       7.556  46.311  20.208  0.00  0.00     0.159 A 
ATOM     15  C   LIG     1       6.761  47.319  19.662  0.00  0.00     0.158 A 
ATOM     16  C   LIG     1       5.415  47.413  20.014  0.00  0.00     0.050 A 
ATOM     17  C   LIG     1       4.863  46.500  20.913  0.00  0.00     0.015 A 
BRANCH  14  18
ATOM     18  O   LIG     1       8.872  46.210  19.872  0.00  0.00    -0.503 OA
ATOM     19  H   LIG     1       8.956  46.046  18.919  0.00  0.00     0.292 HD
ENDBRANCH  14  18
BRANCH  15  20
ATOM     20  O   LIG     1       7.288  48.216  18.782  0.00  0.00    -0.503 OA
ATOM     21  H   LIG     1       7.813  48.876  19.261  0.00  0.00     0.292 HD
ENDBRANCH  15  20
ENDBRANCH   2  12
BRANCH   3  22
ATOM     22  O   LIG     1       6.043  45.591  24.323  0.00  0.00    -0.501 OA
ATOM     23  H   LIG     1       6.894  45.671  23.861  0.00  0.00     0.292 HD
ENDBRANCH   3  22
BRANCH   8  24
ATOM     24  O   LIG     1       1.521  39.719  22.018  0.00  0.00    -0.507 OA
ATOM     25  H   LIG     1       1.948  38.850  22.113  0.00  0.00     0.292 HD
ENDBRANCH   8  24
BRANCH   6  26
ATOM     26  O   LIG     1       3.294  41.487  26.052  0.00  0.00    -0.506 OA
ATOM     27  H   LIG     1       2.747  40.762  26.390  0.00  0.00     0.292 HD
ENDBRANCH   6  26
TORSDOF 6
ENDMDL
MODEL 3
REMARK VINA RESULT:      -7.5      1.655      7.056
REMARK  6 active torsions:
REMARK  status: ('A' for Active; 'I' for Inactive)
REMARK    1  A    between atoms: C_2  and  C_17 
REMARK    2  A    between atoms: C_3  and  O_15 
REMARK    3  A    between atoms: C_6  and  O_12 
REMARK    4  A    between atoms: C_8  and  O_10 
REMARK    5  A    between atoms: C_20  and  O_24 
REMARK    6  A    between atoms: C_21  and  O_22 
ROOT
ATOM      1  O   LIG     1       6.108  43.274  21.321  0.00  0.00    -0.451 OA
ATOM      2  C   LIG     1       4.888  43.824  21.683  0.00  0.00     0.181 A 
ATOM      3  C   LIG     1       4.508  45.085  21.406  0.00  0.00     0.208 A 
ATOM      4  C   LIG     1       5.433  45.961  20.648  0.00  0.00     0.238 A 
ATOM      5  C   LIG     1       6.720  45.366  20.256  0.00  0.00     0.109 A 
ATOM      6  C   LIG     1       7.660  46.108  19.536  0.00  0.00     0.135 A 
ATOM      7  C   LIG     1       8.873  45.520  19.178  0.00  0.00     0.091 A 
ATOM      8  C   LIG     1       9.147  44.200  19.537  0.00  0.00     0.124 A 
ATOM      9  C   LIG     1       8.206  43.462  20.257  0.00  0.00     0.092 A 
ATOM     10  O   LIG     1       5.142  47.116  20.365  0.00  0.00    -0.283 OA
ATOM     11  C   LIG     1       6.991  44.047  20.615  0.00  0.00     0.147 A 
ENDROOT
BRANCH   2  12
ATOM     12  C   LIG     1       4.035  42.887  22.436  0.00  0.00     0.025 A 
ATOM     13  C   LIG     1       3.291  41.922  21.759  0.00  0.00     0.060 A 
ATOM     14  C   LIG     1       2.484  41.035  22.472  0.00  0.00     0.159 A 
ATOM     15  C   LIG     1       2.422  41.115  23.864  0.00  0.00     0.158 A 
ATOM     16  C   LIG     1       3.166  42.080  24.541  0.00  0.00     0.050 A 
ATOM     17  C   LIG     1       3.973  42.967  23.828  0.00  0.00     0.015 A 
BRANCH  14  18
ATOM     18  O   LIG     1       1.761  40.097  21.801  0.00  0.00    -0.503 OA
ATOM     19  H   LIG     1       1.887  39.227  22.213  0.00  0.00     0.292 HD
ENDBRANCH  14  18
BRANCH  15  20
ATOM     20  O   LIG     1       1.639  40.253  24.572  0.00  0.00    -0.503 OA
ATOM     21  H   LIG     1       1.107  40.747  25.216  0.00  0.00     0.292 HD
ENDBRANCH  15  20
ENDBRANCH   2  12
BRANCH   3  22
ATOM     22  O   LIG     1       3.300  45.612  21.809  0.00  0.00    -0.501 OA
ATOM     23  H   LIG     1       3.061  46.362  21.240  0.00  0.00     0.292 HD
ENDBRANCH   3  22
BRANCH   8  24
ATOM     24  O   LIG     1      10.332  43.630  19.187  0.00  0.00    -0.507 OA
ATOM     25  H   LIG     1      10.256  43.273  18.285  0.00  0.00     0.292 HD
ENDBRANCH   8  24
BRANCH   6  26
ATOM     26  O   LIG     1       7.445  47.400  19.160  0.00  0.00    -0.506 OA
ATOM     27  H   LIG     1       8.204  47.954  19.397  0.00  0.00     0.292 HD
ENDBRANCH   6  26
TORSDOF 6
ENDMDL
MODEL 4
REMARK VINA RESULT:      -7.5      1.365      2.345
REMARK  6 active torsions:
REMARK  status: ('A' for Active; 'I' for Inactive)
REMARK    1  A    between atoms: C_2  and  C_17 
REMARK    2  A    between atoms: C_3  and  O_15 
REMARK    3  A    between atoms: C_6  and  O_12 
REMARK    4  A    between atoms: C_8  and  O_10 
REMARK    5  A    between atoms: C_20  and  O_24 
REMARK    6  A    between atoms: C_21  and  O_22 
ROOT
ATOM      1  O   LIG     1       3.802  42.859  24.025  0.00  0.00    -0.451 OA
ATOM      2  C   LIG     1       3.328  42.673  22.735  0.00  0.00     0.181 A 
ATOM      3  C   LIG     1       2.463  41.708  22.372  0.00  0.00     0.208 A 
ATOM      4  C   LIG     1       1.953  40.777  23.408  0.00  0.00     0.238 A 
ATOM      5  C   LIG     1       2.451  40.988  24.776  0.00  0.00     0.109 A 
ATOM      6  C   LIG     1       2.028  40.167  25.824  0.00  0.00     0.135 A 
ATOM      7  C   LIG     1       2.517  40.388  27.112  0.00  0.00     0.091 A 
ATOM      8  C   LIG     1       3.421  41.423  27.352  0.00  0.00     0.124 A 
ATOM      9  C   LIG     1       3.841  42.242  26.303  0.00  0.00     0.092 A 
ATOM     10  O   LIG     1       1.164  39.881  23.138  0.00  0.00    -0.283 OA
ATOM     11  C   LIG     1       3.353  42.023  25.014  0.00  0.00     0.147 A 
ENDROOT
BRANCH   2  12
ATOM     12  C   LIG     1       3.889  43.636  21.772  0.00  0.00     0.025 A 
ATOM     13  C   LIG     1       4.417  43.186  20.562  0.00  0.00     0.060 A 
ATOM     14  C   LIG     1       4.947  44.099  19.649  0.00  0.00     0.159 A 
ATOM     15  C   LIG     1       4.950  45.462  19.948  0.00  0.00     0.158 A 
ATOM     16  C   LIG     1       4.422  45.912  21.158  0.00  0.00     0.050 A 
ATOM     17  C   LIG     1       3.892  45.000  22.070  0.00  0.00     0.015 A 
BRANCH  14  18
ATOM     18  O   LIG     1       5.461  43.648  18.472  0.00  0.00    -0.503 OA
ATOM     19  H   LIG     1       6.344  44.028  18.332  0.00  0.00     0.292 HD
ENDBRANCH  14  18
BRANCH  15  20
ATOM     20  O   LIG     1       5.464  46.363  19.064  0.00  0.00    -0.503 OA
ATOM     21  H   LIG     1       5.086  47.240  19.234  0.00  0.00     0.292 HD
ENDBRANCH  15  20
ENDBRANCH   2  12
BRANCH   3  22
ATOM     22  O   LIG     1       2.036  41.530  21.074  0.00  0.00    -0.501 OA
ATOM     23  H   LIG     1       1.291  40.907  21.054  0.00  0.00     0.292 HD
ENDBRANCH   3  22
BRANCH   8  24
ATOM     24  O   LIG     1       3.896  41.635  28.610  0.00  0.00    -0.507 OA
ATOM     25  H   LIG     1       4.609  40.999  28.789  0.00  0.00     0.292 HD
ENDBRANCH   8  24
BRANCH   6  26
ATOM     26  O   LIG     1       1.148  39.142  25.646  0.00  0.00    -0.506 OA
ATOM     27  H   LIG     1       0.244  39.480  25.566  0.00  0.00     0.292 HD
ENDBRANCH   6  26
TORSDOF 6
ENDMDL
MODEL 5
REMARK VINA RESULT:      -7.1      1.693      3.031
REMARK  6 active torsions:
REMARK  status: ('A' for Active; 'I' for Inactive)
REMARK    1  A    between atoms: C_2  and  C_17 
REMARK    2  A    between atoms: C_3  and  O_15 
REMARK    3  A    between atoms: C_6  and  O_12 
REMARK    4  A    between atoms: C_8  and  O_10 
REMARK    5  A    between atoms: C_20  and  O_24 
REMARK    6  A    between atoms: C_21  and  O_22 
ROOT
ATOM      1  O   LIG     1       4.170  42.308  21.965  0.00  0.00    -0.451 OA
ATOM      2  C   LIG     1       4.992  43.376  22.289  0.00  0.00     0.181 A 
ATOM      3  C   LIG     1       5.145  43.870  23.532  0.00  0.00     0.208 A 
ATOM      4  C   LIG     1       4.408  43.235  24.650  0.00  0.00     0.238 A 
ATOM      5  C   LIG     1       3.547  42.094  24.301  0.00  0.00     0.109 A 
ATOM      6  C   LIG     1       2.814  41.425  25.283  0.00  0.00     0.135 A 
ATOM      7  C   LIG     1       2.005  40.347  24.924  0.00  0.00     0.091 A 
ATOM      8  C   LIG     1       1.929  39.939  23.591  0.00  0.00     0.124 A 
ATOM      9  C   LIG     1       2.663  40.610  22.613  0.00  0.00     0.092 A 
ATOM     10  O   LIG     1       4.508  43.639  25.802  0.00  0.00    -0.283 OA
ATOM     11  C   LIG     1       3.474  41.688  22.970  0.00  0.00     0.147 A 
ENDROOT
BRANCH   2  12
ATOM     12  C   LIG     1       5.680  43.948  21.119  0.00  0.00     0.025 A 
ATOM     13  C   LIG     1       4.941  44.403  20.028  0.00  0.00     0.060 A 
ATOM     14  C   LIG     1       5.593  44.947  18.921  0.00  0.00     0.159 A 
ATOM     15  C   LIG     1       6.985  45.033  18.905  0.00  0.00     0.158 A 
ATOM     16  C   LIG     1       7.725  44.578  19.996  0.00  0.00     0.050 A 
ATOM     17  C   LIG     1       7.073  44.036  21.104  0.00  0.00     0.015 A 
BRANCH  14  18
ATOM     18  O   LIG     1       4.861  45.387  17.860  0.00  0.00    -0.503 OA
ATOM     19  H   LIG     1       4.634  46.323  17.983  0.00  0.00     0.292 HD
ENDBRANCH  14  18
BRANCH  15  20
ATOM     20  O   LIG     1       7.634  45.563  17.830  0.00  0.00    -0.503 OA
ATOM     21  H   LIG     1       7.098  45.440  17.031  0.00  0.00     0.292 HD
ENDBRANCH  15  20
ENDBRANCH   2  12
BRANCH   3  22
ATOM     22  O   LIG     1       5.946  44.955  23.817  0.00  0.00    -0.501 OA
ATOM     23  H   LIG     1       6.752  44.660  24.269  0.00  0.00     0.292 HD
ENDBRANCH   3  22
BRANCH   8  24
ATOM     24  O   LIG     1       1.138  38.887  23.244  0.00  0.00    -0.507 OA
ATOM     25  H   LIG     1       1.176  38.769  22.279  0.00  0.00     0.292 HD
ENDBRANCH   8  24
BRANCH   6  26
ATOM     26  O   LIG     1       2.850  41.781  26.598  0.00  0.00    -0.506 OA
ATOM     27  H   LIG     1       1.961  41.756  26.982  0.00  0.00     0.292 HD
ENDBRANCH   6  26
TORSDOF 6
ENDMDL
MODEL 6
REMARK VINA RESULT:      -7.0      4.196      7.860
REMARK  6 active torsions:
REMARK  status: ('A' for Active; 'I' for Inactive)
REMARK    1  A    between atoms: C_2  and  C_17 
REMARK    2  A    between atoms: C_3  and  O_15 
REMARK    3  A    between atoms: C_6  and  O_12 
REMARK    4  A    between atoms: C_8  and  O_10 
REMARK    5  A    between atoms: C_20  and  O_24 
REMARK    6  A    between atoms: C_21  and  O_22 
ROOT
ATOM      1  O   LIG     1       9.208  43.309  20.686  0.00  0.00    -0.451 OA
ATOM      2  C   LIG     1       8.480  44.189  19.900  0.00  0.00     0.181 A 
ATOM      3  C   LIG     1       8.975  44.852  18.839  0.00  0.00     0.208 A 
ATOM      4  C   LIG     1      10.390  44.631  18.453  0.00  0.00     0.238 A 
ATOM      5  C   LIG     1      11.152  43.686  19.283  0.00  0.00     0.109 A 
ATOM      6  C   LIG     1      12.492  43.406  19.000  0.00  0.00     0.135 A 
ATOM      7  C   LIG     1      13.192  42.507  19.804  0.00  0.00     0.091 A 
ATOM      8  C   LIG     1      12.559  41.891  20.885  0.00  0.00     0.124 A 
ATOM      9  C   LIG     1      11.222  42.174  21.165  0.00  0.00     0.092 A 
ATOM     10  O   LIG     1      10.895  45.204  17.496  0.00  0.00    -0.283 OA
ATOM     11  C   LIG     1      10.518  43.072  20.361  0.00  0.00     0.147 A 
ENDROOT
BRANCH   2  12
ATOM     12  C   LIG     1       7.089  44.353  20.358  0.00  0.00     0.025 A 
ATOM     13  C   LIG     1       6.082  43.544  19.833  0.00  0.00     0.060 A 
ATOM     14  C   LIG     1       4.765  43.699  20.268  0.00  0.00     0.159 A 
ATOM     15  C   LIG     1       4.456  44.665  21.226  0.00  0.00     0.158 A 
ATOM     16  C   LIG     1       5.464  45.475  21.750  0.00  0.00     0.050 A 
ATOM     17  C   LIG     1       6.781  45.319  21.317  0.00  0.00     0.015 A 
BRANCH  14  18
ATOM     18  O   LIG     1       3.789  42.904  19.748  0.00  0.00    -0.503 OA
ATOM     19  H   LIG     1       2.917  43.244  20.006  0.00  0.00     0.292 HD
ENDBRANCH  14  18
BRANCH  15  20
ATOM     20  O   LIG     1       3.175  44.825  21.659  0.00  0.00    -0.503 OA
ATOM     21  H   LIG     1       2.659  44.029  21.458  0.00  0.00     0.292 HD
ENDBRANCH  15  20
ENDBRANCH   2  12
BRANCH   3  22
ATOM     22  O   LIG     1       8.233  45.746  18.097  0.00  0.00    -0.501 OA
ATOM     23  H   LIG     1       8.638  46.627  18.141  0.00  0.00     0.292 HD
ENDBRANCH   3  22
BRANCH   8  24
ATOM     24  O   LIG     1      13.246  41.015  21.668  0.00  0.00    -0.507 OA
ATOM     25  H   LIG     1      13.110  40.114  21.327  0.00  0.00     0.292 HD
ENDBRANCH   8  24
BRANCH   6  26
ATOM     26  O   LIG     1      13.158  43.979  17.958  0.00  0.00    -0.506 OA
ATOM     27  H   LIG     1      14.079  43.680  17.938  0.00  0.00     0.292 HD
ENDBRANCH   6  26
TORSDOF 6
ENDMDL
MODEL 7
REMARK VINA RESULT:      -6.9      1.534      6.697
REMARK  6 active torsions:
REMARK  status: ('A' for Active; 'I' for Inactive)
REMARK    1  A    between atoms: C_2  and  C_17 
REMARK    2  A    between atoms: C_3  and  O_15 
REMARK    3  A    between atoms: C_6  and  O_12 
REMARK    4  A    between atoms: C_8  and  O_10 
REMARK    5  A    between atoms: C_20  and  O_24 
REMARK    6  A    between atoms: C_21  and  O_22 
ROOT
ATOM      1  O   LIG     1       5.694  44.242  22.281  0.00  0.00    -0.451 OA
ATOM      2  C   LIG     1       4.639  43.346  22.200  0.00  0.00     0.181 A 
ATOM      3  C   LIG     1       4.074  42.935  21.050  0.00  0.00     0.208 A 
ATOM      4  C   LIG     1       4.610  43.448  19.766  0.00  0.00     0.238 A 
ATOM      5  C   LIG     1       5.738  44.388  19.859  0.00  0.00     0.109 A 
ATOM      6  C   LIG     1       6.317  44.926  18.706  0.00  0.00     0.135 A 
ATOM      7  C   LIG     1       7.384  45.816  18.823  0.00  0.00     0.091 A 
ATOM      8  C   LIG     1       7.871  46.167  20.083  0.00  0.00     0.124 A 
ATOM      9  C   LIG     1       7.291  45.628  21.231  0.00  0.00     0.092 A 
ATOM     10  O   LIG     1       4.139  43.110  18.688  0.00  0.00    -0.283 OA
ATOM     11  C   LIG     1       6.223  44.737  21.118  0.00  0.00     0.147 A 
ENDROOT
BRANCH   2  12
ATOM     12  C   LIG     1       4.167  42.893  23.520  0.00  0.00     0.025 A 
ATOM     13  C   LIG     1       3.316  41.792  23.616  0.00  0.00     0.060 A 
ATOM     14  C   LIG     1       2.871  41.362  24.867  0.00  0.00     0.159 A 
ATOM     15  C   LIG     1       3.274  42.035  26.020  0.00  0.00     0.158 A 
ATOM     16  C   LIG     1       4.125  43.136  25.924  0.00  0.00     0.050 A 
ATOM     17  C   LIG     1       4.572  43.565  24.674  0.00  0.00     0.015 A 
BRANCH  14  18
ATOM     18  O   LIG     1       2.039  40.287  24.949  0.00  0.00    -0.503 OA
ATOM     19  H   LIG     1       2.218  39.676  24.216  0.00  0.00     0.292 HD
ENDBRANCH  14  18
BRANCH  15  20
ATOM     20  O   LIG     1       2.847  41.624  27.247  0.00  0.00    -0.503 OA
ATOM     21  H   LIG     1       1.908  41.384  27.203  0.00  0.00     0.292 HD
ENDBRANCH  15  20
ENDBRANCH   2  12
BRANCH   3  22
ATOM     22  O   LIG     1       3.004  42.068  21.005  0.00  0.00    -0.501 OA
ATOM     23  H   LIG     1       3.185  41.353  20.373  0.00  0.00     0.292 HD
ENDBRANCH   3  22
BRANCH   8  24
ATOM     24  O   LIG     1       8.913  47.036  20.192  0.00  0.00    -0.507 OA
ATOM     25  H   LIG     1       8.659  47.884  19.789  0.00  0.00     0.292 HD
ENDBRANCH   8  24
BRANCH   6  26
ATOM     26  O   LIG     1       5.880  44.618  17.453  0.00  0.00    -0.506 OA
ATOM     27  H   LIG     1       6.096  43.699  17.233  0.00  0.00     0.292 HD
ENDBRANCH   6  26
TORSDOF 6
ENDMDL
MODEL 8
REMARK VINA RESULT:      -6.8     22.741     24.325
REMARK  6 active torsions:
REMARK  status: ('A' for Active; 'I' for Inactive)
REMARK    1  A    between atoms: C_2  and  C_17 
REMARK    2  A    between atoms: C_3  and  O_15 
REMARK    3  A    between atoms: C_6  and  O_12 
REMARK    4  A    between atoms: C_8  and  O_10 
REMARK    5  A    between atoms: C_20  and  O_24 
REMARK    6  A    between atoms: C_21  and  O_22 
ROOT
ATOM      1  O   LIG     1      -8.214  47.762   1.936  0.00  0.00    -0.451 OA
ATOM      2  C   LIG     1      -9.028  48.850   2.209  0.00  0.00     0.181 A 
ATOM      3  C   LIG     1      -9.847  48.942   3.273  0.00  0.00     0.208 A 
ATOM      4  C   LIG     1      -9.885  47.823   4.246  0.00  0.00     0.238 A 
ATOM      5  C   LIG     1      -9.008  46.678   3.957  0.00  0.00     0.109 A 
ATOM      6  C   LIG     1      -8.969  45.575   4.814  0.00  0.00     0.135 A 
ATOM      7  C   LIG     1      -8.129  44.501   4.516  0.00  0.00     0.091 A 
ATOM      8  C   LIG     1      -7.334  44.529   3.369  0.00  0.00     0.124 A 
ATOM      9  C   LIG     1      -7.377  45.632   2.516  0.00  0.00     0.092 A 
ATOM     10  O   LIG     1     -10.608  47.850   5.233  0.00  0.00    -0.283 OA
ATOM     11  C   LIG     1      -8.215  46.708   2.812  0.00  0.00     0.147 A 
ENDROOT
BRANCH   2  12
ATOM     12  C   LIG     1      -8.932  49.910   1.191  0.00  0.00     0.025 A 
ATOM     13  C   LIG     1      -7.743  50.094   0.485  0.00  0.00     0.060 A 
ATOM     14  C   LIG     1      -7.652  51.097  -0.480  0.00  0.00     0.159 A 
ATOM     15  C   LIG     1      -8.750  51.919  -0.737  0.00  0.00     0.158 A 
ATOM     16  C   LIG     1      -9.939  51.735  -0.032  0.00  0.00     0.050 A 
ATOM     17  C   LIG     1     -10.030  50.731   0.933  0.00  0.00     0.015 A 
BRANCH  14  18
ATOM     18  O   LIG     1      -6.486  51.269  -1.162  0.00  0.00    -0.503 OA
ATOM     19  H   LIG     1      -6.667  51.321  -2.114  0.00  0.00     0.292 HD
ENDBRANCH  14  18
BRANCH  15  20
ATOM     20  O   LIG     1      -8.674  52.901  -1.678  0.00  0.00    -0.503 OA
ATOM     21  H   LIG     1      -9.491  52.918  -2.201  0.00  0.00     0.292 HD
ENDBRANCH  15  20
ENDBRANCH   2  12
BRANCH   3  22
ATOM     22  O   LIG     1     -10.669  50.024   3.499  0.00  0.00    -0.501 OA
ATOM     23  H   LIG     1     -11.592  49.730   3.565  0.00  0.00     0.292 HD
ENDBRANCH   3  22
BRANCH   8  24
ATOM     24  O   LIG     1      -6.517  43.479   3.081  0.00  0.00    -0.507 OA
ATOM     25  H   LIG     1      -5.674  43.821   2.736  0.00  0.00     0.292 HD
ENDBRANCH   8  24
BRANCH   6  26
ATOM     26  O   LIG     1      -9.724  45.495   5.945  0.00  0.00    -0.506 OA
ATOM     27  H   LIG     1      -9.822  46.370   6.351  0.00  0.00     0.292 HD
ENDBRANCH   6  26
TORSDOF 6
ENDMDL
MODEL 9
REMARK VINA RESULT:      -6.7      2.812      6.529
REMARK  6 active torsions:
REMARK  status: ('A' for Active; 'I' for Inactive)
REMARK    1  A    between atoms: C_2  and  C_17 
REMARK    2  A    between atoms: C_3  and  O_15 
REMARK    3  A    between atoms: C_6  and  O_12 
REMARK    4  A    between atoms: C_8  and  O_10 
REMARK    5  A    between atoms: C_20  and  O_24 
REMARK    6  A    between atoms: C_21  and  O_22 
ROOT
ATOM      1  O   LIG     1       6.717  43.752  22.628  0.00  0.00    -0.451 OA
ATOM      2  C   LIG     1       5.964  43.670  21.467  0.00  0.00     0.181 A 
ATOM      3  C   LIG     1       6.217  44.366  20.343  0.00  0.00     0.208 A 
ATOM      4  C   LIG     1       7.387  45.276  20.314  0.00  0.00     0.238 A 
ATOM      5  C   LIG     1       8.189  45.348  21.544  0.00  0.00     0.109 A 
ATOM      6  C   LIG     1       9.314  46.174  21.617  0.00  0.00     0.135 A 
ATOM      7  C   LIG     1      10.056  46.224  22.797  0.00  0.00     0.091 A 
ATOM      8  C   LIG     1       9.677  45.455  23.898  0.00  0.00     0.124 A 
ATOM      9  C   LIG     1       8.553  44.632  23.822  0.00  0.00     0.092 A 
ATOM     10  O   LIG     1       7.669  45.933  19.320  0.00  0.00    -0.283 OA
ATOM     11  C   LIG     1       7.810  44.578  22.642  0.00  0.00     0.147 A 
ENDROOT
BRANCH   2  12
ATOM     12  C   LIG     1       4.820  42.749  21.587  0.00  0.00     0.025 A 
ATOM     13  C   LIG     1       3.521  43.222  21.408  0.00  0.00     0.060 A 
ATOM     14  C   LIG     1       2.438  42.349  21.520  0.00  0.00     0.159 A 
ATOM     15  C   LIG     1       2.656  41.002  21.813  0.00  0.00     0.158 A 
ATOM     16  C   LIG     1       3.956  40.529  21.992  0.00  0.00     0.050 A 
ATOM     17  C   LIG     1       5.038  41.402  21.879  0.00  0.00     0.015 A 
BRANCH  14  18
ATOM     18  O   LIG     1       1.173  42.822  21.345  0.00  0.00    -0.503 OA
ATOM     19  H   LIG     1       1.207  43.732  21.006  0.00  0.00     0.292 HD
ENDBRANCH  14  18
BRANCH  15  20
ATOM     20  O   LIG     1       1.607  40.140  21.924  0.00  0.00    -0.503 OA
ATOM     21  H   LIG     1       1.379  39.787  21.049  0.00  0.00     0.292 HD
ENDBRANCH  15  20
ENDBRANCH   2  12
BRANCH   3  22
ATOM     22  O   LIG     1       5.429  44.286  19.215  0.00  0.00    -0.501 OA
ATOM     23  H   LIG     1       5.928  43.872  18.493  0.00  0.00     0.292 HD
ENDBRANCH   3  22
BRANCH   8  24
ATOM     24  O   LIG     1      10.404  45.507  25.048  0.00  0.00    -0.507 OA
ATOM     25  H   LIG     1      10.430  44.619  25.445  0.00  0.00     0.292 HD
ENDBRANCH   8  24
BRANCH   6  26
ATOM     26  O   LIG     1       9.727  46.946  20.573  0.00  0.00    -0.506 OA
ATOM     27  H   LIG     1      10.374  46.469  20.032  0.00  0.00     0.292 HD
ENDBRANCH   6  26
TORSDOF 6
ENDMDL
