MODEL 1
REMARK VINA RESULT:      -7.9      0.000      0.000
REMARK  21 active torsions:
REMARK  status: ('A' for Active; 'I' for Inactive)
REMARK    1  A    between atoms: C_3  and  O_78 
REMARK    2  A    between atoms: C_5  and  O_77 
REMARK    3  A    between atoms: C_6  and  O_76 
REMARK    4  A    between atoms: C_7  and  O_15 
REMARK    5  A    between atoms: C_8  and  C_17 
REMARK    6  A    between atoms: C_9  and  O_13 
REMARK    7  A    between atoms: C_16  and  O_24 
REMARK    8  A    between atoms: C_18  and  O_22 
REMARK    9  A    between atoms: C_19  and  C_72 
REMARK   10  A    between atoms: C_20  and  O_23 
REMARK   11  A    between atoms: C_28  and  O_32 
REMARK   12  A    between atoms: C_30  and  O_33 
REMARK   13  A    between atoms: C_37  and  O_42 
REMARK   14  A    between atoms: C_39  and  O_43 
REMARK   15  A    between atoms: C_46  and  O_67 
REMARK   16  A    between atoms: C_48  and  O_65 
REMARK   17  A    between atoms: C_49  and  C_52 
REMARK   18  A    between atoms: C_50  and  O_66 
REMARK   19  A    between atoms: C_52  and  O_60 
REMARK   20  A    between atoms: C_54  and  O_60 
REMARK   21  A    between atoms: C_72  and  O_73 
ROOT
HETATM    1  C   UNK     0      -3.520   2.337 -31.939  0.00  0.00     0.058 A 
HETATM    2  C   UNK     0      -2.298   1.681 -31.939  0.00  0.00     0.060 A 
HETATM    3  C   UNK     0      -4.203   2.562 -33.121  0.00  0.00     0.102 A 
HETATM    4  C   UNK     0      -1.745   1.238 -33.149  0.00  0.00     0.127 A 
HETATM    5  C   UNK     0      -3.665   2.127 -34.316  0.00  0.00     0.135 A 
HETATM    6  C   UNK     0      -2.446   1.470 -34.326  0.00  0.00     0.137 A 
HETATM    7  C   UNK     0       2.338  -1.439 -32.346  0.00  0.00     0.114 A 
HETATM    8  C   UNK     0       2.499  -1.143 -30.995  0.00  0.00     0.030 A 
HETATM    9  C   UNK     0       1.328  -0.868 -33.104  0.00  0.00     0.134 A 
HETATM   10  C   UNK     0       1.598  -0.240 -30.415  0.00  0.00     0.059 A 
HETATM   11  C   UNK     0       0.443   0.024 -32.528  0.00  0.00     0.116 A 
HETATM   12  C   UNK     0       0.600   0.322 -31.191  0.00  0.00     0.329 A 
HETATM   13  O   UNK     0      -0.537   0.590 -33.310  0.00  0.00    -0.304 OA
HETATM   14  C   UNK     0       1.603   0.191 -29.012  0.00  0.00     0.295 C 
HETATM   15  C   UNK     0       4.674  -1.804 -21.732  0.00  0.00     0.026 A 
HETATM   16  C   UNK     0       3.709  -1.002 -22.335  0.00  0.00     0.006 A 
HETATM   17  C   UNK     0       5.628  -2.482 -22.468  0.00  0.00     0.111 A 
HETATM   18  C   UNK     0       3.725  -0.902 -23.738  0.00  0.00     0.054 A 
HETATM   19  C   UNK     0       5.634  -2.377 -23.843  0.00  0.00     0.100 A 
HETATM   20  C   UNK     0       4.686  -1.589 -24.468  0.00  0.00     0.058 A 
HETATM   21  O   UNK     0       4.686  -1.916 -20.376  0.00  0.00     0.000 OA
HETATM   22  C   UNK     0       3.289  -0.129 -20.064  0.00  0.00     0.026 A 
HETATM   23  C   UNK     0       2.765  -0.313 -21.344  0.00  0.00     0.006 A 
HETATM   24  C   UNK     0       2.549   0.447 -19.047  0.00  0.00     0.111 A 
HETATM   25  C   UNK     0       1.450   0.116 -21.571  0.00  0.00     0.054 A 
HETATM   26  C   UNK     0       1.254   0.860 -19.287  0.00  0.00     0.100 A 
HETATM   27  C   UNK     0       0.714   0.692 -20.546  0.00  0.00     0.058 A 
HETATM   28  C   UNK     0       0.757  -0.008 -22.844  0.00  0.00     0.294 C 
HETATM   29  O   UNK     0       4.561  -0.533 -19.807  0.00  0.00     0.000 OA
HETATM   30  O   UNK     0       0.336  -1.087 -23.194  0.00  0.00    -0.259 OA
HETATM   31  C   UNK     0      -0.819   1.941 -25.433  0.00  0.00     0.302 C 
HETATM   32  C   UNK     0      -0.088   0.757 -24.850  0.00  0.00     0.220 C 
HETATM   33  O   UNK     0      -1.539   1.503 -26.593  0.00  0.00    -0.348 OA
HETATM   34  C   UNK     0       0.926   0.323 -25.855  0.00  0.00     0.198 C 
HETATM   35  C   UNK     0      -0.779   0.859 -27.638  0.00  0.00     0.181 C 
HETATM   36  C   UNK     0       0.174  -0.242 -27.053  0.00  0.00     0.195 C 
HETATM   37  C   UNK     0      -1.749   0.192 -28.625  0.00  0.00     0.212 C 
HETATM   38  O   UNK     0       1.785  -0.646 -25.268  0.00  0.00    -0.306 OA
HETATM   39  O   UNK     0       1.104  -0.652 -28.059  0.00  0.00    -0.307 OA
HETATM   40  O   UNK     0       0.558   1.085 -23.637  0.00  0.00    -0.304 OA
HETATM   41  O   UNK     0      -2.347   1.099 -29.544  0.00  0.00    -0.328 OA
HETATM   42  C   UNK     0       2.800  -0.086 -24.537  0.00  0.00     0.294 C 
HETATM   43  O   UNK     0       2.957   1.111 -24.578  0.00  0.00    -0.259 OA
HETATM   44  O   UNK     0       1.986   1.298 -28.709  0.00  0.00    -0.259 OA
HETATM   45  C   UNK     0      -1.641   1.486 -30.642  0.00  0.00     0.179 C 
HETATM   46  O   UNK     0      -0.443   1.634 -30.556  0.00  0.00    -0.383 OA
HETATM   47  H   UNK     0       5.385  -2.490 -19.921  0.00  0.00     0.000 HD
HETATM   48  H   UNK     0       4.953  -0.412 -18.881  0.00  0.00     0.000 HD
ENDROOT
BRANCH   3  49
HETATM   49  O   UNK     0      -5.399   3.210 -33.108  0.00  0.00    -0.358 OA
HETATM   50  H   UNK     0      -5.879   3.404 -33.977  0.00  0.00     0.217 HD
ENDBRANCH   3  49
BRANCH   5  51
HETATM   51  O   UNK     0      -4.331   2.346 -35.483  0.00  0.00    -0.356 OA
HETATM   52  H   UNK     0      -5.320   2.561 -35.467  0.00  0.00     0.218 HD
ENDBRANCH   5  51
BRANCH   6  53
HETATM   53  O   UNK     0      -1.924   1.047 -35.509  0.00  0.00    -0.356 OA
HETATM   54  H   UNK     0      -1.865   0.057 -35.712  0.00  0.00     0.218 HD
ENDBRANCH   6  53
BRANCH   9  55
HETATM   55  O   UNK     0       1.216  -1.179 -34.424  0.00  0.00    -0.356 OA
HETATM   56  H   UNK     0       2.034  -1.465 -34.947  0.00  0.00     0.218 HD
ENDBRANCH   9  55
BRANCH   7  57
HETATM   57  O   UNK     0       3.204  -2.303 -32.940  0.00  0.00    -0.357 OA
HETATM   58  H   UNK     0       3.415  -3.190 -32.500  0.00  0.00     0.217 HD
ENDBRANCH   7  57
BRANCH   8  59
HETATM   59  C   UNK     0       3.675  -1.826 -30.315  0.00  0.00     0.023 A 
HETATM   60  C   UNK     0       3.355  -2.973 -29.596  0.00  0.00     0.113 A 
HETATM   61  C   UNK     0       4.320  -3.697 -28.918  0.00  0.00     0.133 A 
HETATM   62  C   UNK     0       5.637  -3.285 -28.952  0.00  0.00     0.102 A 
HETATM   63  C   UNK     0       5.976  -2.145 -29.655  0.00  0.00     0.049 A 
HETATM   64  C   UNK     0       5.012  -1.410 -30.332  0.00  0.00    -0.018 A 
BRANCH  60  65
HETATM   65  O   UNK     0       2.060  -3.386 -29.551  0.00  0.00    -0.357 OA
HETATM   66  H   UNK     0       1.365  -2.939 -30.134  0.00  0.00     0.217 HD
ENDBRANCH  60  65
BRANCH  61  67
HETATM   67  O   UNK     0       3.971  -4.808 -28.219  0.00  0.00    -0.356 OA
HETATM   68  H   UNK     0       4.681  -5.464 -27.920  0.00  0.00     0.218 HD
ENDBRANCH  61  67
BRANCH  62  69
HETATM   69  O   UNK     0       6.591  -3.995 -28.292  0.00  0.00    -0.358 OA
HETATM   70  H   UNK     0       7.265  -4.542 -28.811  0.00  0.00     0.217 HD
ENDBRANCH  62  69
BRANCH  64  71
HETATM   71  C   UNK     0       5.498  -0.178 -31.044  0.00  0.00     0.203 C 
BRANCH  71  72
HETATM   72  O   UNK     0       5.750  -0.513 -32.402  0.00  0.00    -0.396 OA
HETATM   73  H   UNK     0       6.703  -0.618 -32.729  0.00  0.00     0.209 HD
ENDBRANCH  71  72
ENDBRANCH  64  71
ENDBRANCH   8  59
BRANCH  31  74
HETATM   74  O   UNK     0      -1.724   2.470 -24.476  0.00  0.00    -0.283 OA
BRANCH  74  75
HETATM   75  C   UNK     0      -2.512   3.507 -24.855  0.00  0.00     0.295 C 
HETATM   76  O   UNK     0      -2.014   4.469 -25.391  0.00  0.00    -0.259 OA
BRANCH  75  77
HETATM   77  C   UNK     0      -3.963   3.470 -24.627  0.00  0.00     0.045 A 
HETATM   78  C   UNK     0      -4.746   4.581 -24.904  0.00  0.00     0.057 A 
HETATM   79  C   UNK     0      -6.113   4.536 -24.678  0.00  0.00     0.102 A 
HETATM   80  C   UNK     0      -6.696   3.385 -24.173  0.00  0.00     0.132 A 
HETATM   81  C   UNK     0      -5.914   2.275 -23.898  0.00  0.00     0.102 A 
HETATM   82  C   UNK     0      -4.548   2.317 -24.127  0.00  0.00     0.057 A 
BRANCH  79  83
HETATM   83  O   UNK     0      -6.885   5.624 -24.951  0.00  0.00    -0.358 OA
HETATM   84  H   UNK     0      -7.504   5.995 -24.242  0.00  0.00     0.217 HD
ENDBRANCH  79  83
BRANCH  80  85
HETATM   85  O   UNK     0      -8.036   3.344 -23.945  0.00  0.00    -0.356 OA
HETATM   86  H   UNK     0      -8.469   2.487 -23.623  0.00  0.00     0.218 HD
ENDBRANCH  80  85
BRANCH  81  87
HETATM   87  O   UNK     0      -6.485   1.147 -23.401  0.00  0.00    -0.358 OA
HETATM   88  H   UNK     0      -5.953   0.287 -23.355  0.00  0.00     0.217 HD
ENDBRANCH  81  87
ENDBRANCH  75  77
ENDBRANCH  74  75
ENDBRANCH  31  74
BRANCH  19  89
HETATM   89  O   UNK     0       6.571  -3.040 -24.573  0.00  0.00    -0.358 OA
HETATM   90  H   UNK     0       7.044  -3.843 -24.180  0.00  0.00     0.217 HD
ENDBRANCH  19  89
BRANCH  26  91
HETATM   91  O   UNK     0       0.516   1.421 -18.291  0.00  0.00    -0.358 OA
HETATM   92  H   UNK     0      -0.124   2.175 -18.500  0.00  0.00     0.217 HD
ENDBRANCH  26  91
BRANCH  17  93
HETATM   93  O   UNK     0       6.561  -3.248 -21.839  0.00  0.00    -0.357 OA
HETATM   94  H   UNK     0       7.485  -3.351 -22.240  0.00  0.00     0.217 HD
ENDBRANCH  17  93
BRANCH  24  95
HETATM   95  O   UNK     0       3.093   0.603 -17.809  0.00  0.00    -0.357 OA
HETATM   96  H   UNK     0       2.952   1.465 -17.299  0.00  0.00     0.217 HD
ENDBRANCH  24  95
TORSDOF 21
ENDMDL
MODEL 2
REMARK VINA RESULT:      -7.8     26.627     33.516
REMARK  21 active torsions:
REMARK  status: ('A' for Active; 'I' for Inactive)
REMARK    1  A    between atoms: C_3  and  O_78 
REMARK    2  A    between atoms: C_5  and  O_77 
REMARK    3  A    between atoms: C_6  and  O_76 
REMARK    4  A    between atoms: C_7  and  O_15 
REMARK    5  A    between atoms: C_8  and  C_17 
REMARK    6  A    between atoms: C_9  and  O_13 
REMARK    7  A    between atoms: C_16  and  O_24 
REMARK    8  A    between atoms: C_18  and  O_22 
REMARK    9  A    between atoms: C_19  and  C_72 
REMARK   10  A    between atoms: C_20  and  O_23 
REMARK   11  A    between atoms: C_28  and  O_32 
REMARK   12  A    between atoms: C_30  and  O_33 
REMARK   13  A    between atoms: C_37  and  O_42 
REMARK   14  A    between atoms: C_39  and  O_43 
REMARK   15  A    between atoms: C_46  and  O_67 
REMARK   16  A    between atoms: C_48  and  O_65 
REMARK   17  A    between atoms: C_49  and  C_52 
REMARK   18  A    between atoms: C_50  and  O_66 
REMARK   19  A    between atoms: C_52  and  O_60 
REMARK   20  A    between atoms: C_54  and  O_60 
REMARK   21  A    between atoms: C_72  and  O_73 
ROOT
HETATM    1  C   UNK     0     -26.485 -17.438 -22.988  0.00  0.00     0.058 A 
HETATM    2  C   UNK     0     -26.917 -16.999 -21.745  0.00  0.00     0.060 A 
HETATM    3  C   UNK     0     -26.117 -18.756 -23.185  0.00  0.00     0.102 A 
HETATM    4  C   UNK     0     -26.984 -17.900 -20.673  0.00  0.00     0.127 A 
HETATM    5  C   UNK     0     -26.182 -19.650 -22.133  0.00  0.00     0.135 A 
HETATM    6  C   UNK     0     -26.613 -19.221 -20.890  0.00  0.00     0.137 A 
HETATM    7  C   UNK     0     -29.072 -15.783 -16.719  0.00  0.00     0.114 A 
HETATM    8  C   UNK     0     -29.061 -14.468 -17.177  0.00  0.00     0.030 A 
HETATM    9  C   UNK     0     -28.518 -16.818 -17.456  0.00  0.00     0.134 A 
HETATM   10  C   UNK     0     -28.469 -14.218 -18.421  0.00  0.00     0.059 A 
HETATM   11  C   UNK     0     -27.933 -16.565 -18.682  0.00  0.00     0.116 A 
HETATM   12  C   UNK     0     -27.919 -15.265 -19.139  0.00  0.00     0.329 A 
HETATM   13  O   UNK     0     -27.375 -17.610 -19.381  0.00  0.00    -0.304 OA
HETATM   14  C   UNK     0     -28.367 -12.906 -19.071  0.00  0.00     0.295 C 
HETATM   15  C   UNK     0     -31.404  -5.352 -18.720  0.00  0.00     0.026 A 
HETATM   16  C   UNK     0     -30.656  -6.199 -19.534  0.00  0.00     0.006 A 
HETATM   17  C   UNK     0     -31.738  -5.689 -17.421  0.00  0.00     0.111 A 
HETATM   18  C   UNK     0     -30.245  -7.430 -18.993  0.00  0.00     0.054 A 
HETATM   19  C   UNK     0     -31.329  -6.899 -16.902  0.00  0.00     0.100 A 
HETATM   20  C   UNK     0     -30.588  -7.760 -17.688  0.00  0.00     0.058 A 
HETATM   21  O   UNK     0     -31.812  -4.151 -19.215  0.00  0.00     0.000 OA
HETATM   22  C   UNK     0     -30.390  -4.236 -21.008  0.00  0.00     0.026 A 
HETATM   23  C   UNK     0     -30.368  -5.628 -20.927  0.00  0.00     0.006 A 
HETATM   24  C   UNK     0     -30.183  -3.569 -22.203  0.00  0.00     0.111 A 
HETATM   25  C   UNK     0     -30.119  -6.341 -22.108  0.00  0.00     0.054 A 
HETATM   26  C   UNK     0     -29.944  -4.286 -23.358  0.00  0.00     0.100 A 
HETATM   27  C   UNK     0     -29.913  -5.665 -23.302  0.00  0.00     0.058 A 
HETATM   28  C   UNK     0     -30.067  -7.791 -22.194  0.00  0.00     0.294 C 
HETATM   29  O   UNK     0     -30.629  -3.513 -19.882  0.00  0.00     0.000 OA
HETATM   30  O   UNK     0     -31.095  -8.429 -22.171  0.00  0.00    -0.259 OA
HETATM   31  C   UNK     0     -27.874 -10.520 -23.047  0.00  0.00     0.302 C 
HETATM   32  C   UNK     0     -29.023  -9.843 -22.342  0.00  0.00     0.220 C 
HETATM   33  O   UNK     0     -28.154 -11.924 -23.125  0.00  0.00    -0.348 OA
HETATM   34  C   UNK     0     -29.052 -10.361 -20.943  0.00  0.00     0.198 C 
HETATM   35  C   UNK     0     -28.417 -12.615 -21.886  0.00  0.00     0.181 C 
HETATM   36  C   UNK     0     -29.450 -11.830 -21.004  0.00  0.00     0.195 C 
HETATM   37  C   UNK     0     -28.996 -14.003 -22.199  0.00  0.00     0.212 C 
HETATM   38  O   UNK     0     -29.974  -9.597 -20.177  0.00  0.00    -0.306 OA
HETATM   39  O   UNK     0     -29.470 -12.382 -19.685  0.00  0.00    -0.307 OA
HETATM   40  O   UNK     0     -28.873  -8.438 -22.323  0.00  0.00    -0.304 OA
HETATM   41  O   UNK     0     -28.017 -14.960 -22.588  0.00  0.00    -0.328 OA
HETATM   42  C   UNK     0     -29.434  -8.433 -19.698  0.00  0.00     0.294 C 
HETATM   43  O   UNK     0     -28.248  -8.242 -19.831  0.00  0.00    -0.259 OA
HETATM   44  O   UNK     0     -27.308 -12.322 -19.117  0.00  0.00    -0.259 OA
HETATM   45  C   UNK     0     -27.286 -15.584 -21.624  0.00  0.00     0.179 C 
HETATM   46  O   UNK     0     -26.969 -14.972 -20.630  0.00  0.00    -0.383 OA
HETATM   47  H   UNK     0     -32.351  -3.521 -18.635  0.00  0.00     0.000 HD
HETATM   48  H   UNK     0     -30.656  -2.501 -19.927  0.00  0.00     0.000 HD
ENDROOT
BRANCH   3  49
HETATM   49  O   UNK     0     -25.691 -19.173 -24.408  0.00  0.00    -0.358 OA
HETATM   50  H   UNK     0     -26.209 -18.915 -25.239  0.00  0.00     0.217 HD
ENDBRANCH   3  49
BRANCH   5  51
HETATM   51  O   UNK     0     -25.820 -20.948 -22.320  0.00  0.00    -0.356 OA
HETATM   52  H   UNK     0     -25.388 -21.233 -23.190  0.00  0.00     0.218 HD
ENDBRANCH   5  51
BRANCH   6  53
HETATM   53  O   UNK     0     -26.672 -20.109 -19.860  0.00  0.00    -0.356 OA
HETATM   54  H   UNK     0     -25.935 -20.792 -19.738  0.00  0.00     0.218 HD
ENDBRANCH   6  53
BRANCH   9  55
HETATM   55  O   UNK     0     -28.542 -18.085 -16.962  0.00  0.00    -0.356 OA
HETATM   56  H   UNK     0     -29.316 -18.700 -17.180  0.00  0.00     0.218 HD
ENDBRANCH   9  55
BRANCH   7  57
HETATM   57  O   UNK     0     -29.629 -16.056 -15.508  0.00  0.00    -0.357 OA
HETATM   58  H   UNK     0     -29.597 -15.364 -14.770  0.00  0.00     0.217 HD
ENDBRANCH   7  57
BRANCH   8  59
HETATM   59  C   UNK     0     -29.678 -13.446 -16.235  0.00  0.00     0.023 A 
HETATM   60  C   UNK     0     -31.039 -13.221 -16.418  0.00  0.00     0.113 A 
HETATM   61  C   UNK     0     -31.736 -12.314 -15.640  0.00  0.00     0.133 A 
HETATM   62  C   UNK     0     -31.078 -11.610 -14.651  0.00  0.00     0.102 A 
HETATM   63  C   UNK     0     -29.725 -11.812 -14.457  0.00  0.00     0.049 A 
HETATM   64  C   UNK     0     -29.018 -12.717 -15.238  0.00  0.00    -0.018 A 
BRANCH  60  65
HETATM   65  O   UNK     0     -31.698 -13.905 -17.392  0.00  0.00    -0.357 OA
HETATM   66  H   UNK     0     -31.403 -13.822 -18.356  0.00  0.00     0.217 HD
ENDBRANCH  60  65
BRANCH  61  67
HETATM   67  O   UNK     0     -33.063 -12.114 -15.851  0.00  0.00    -0.356 OA
HETATM   68  H   UNK     0     -33.412 -11.183 -16.038  0.00  0.00     0.218 HD
ENDBRANCH  61  67
BRANCH  62  69
HETATM   69  O   UNK     0     -31.758 -10.720 -13.880  0.00  0.00    -0.358 OA
HETATM   70  H   UNK     0     -31.718  -9.732 -14.092  0.00  0.00     0.217 HD
ENDBRANCH  62  69
BRANCH  64  71
HETATM   71  C   UNK     0     -27.549 -12.837 -14.946  0.00  0.00     0.203 C 
BRANCH  71  72
HETATM   72  O   UNK     0     -26.831 -12.135 -15.953  0.00  0.00    -0.396 OA
HETATM   73  H   UNK     0     -27.331 -11.661 -16.694  0.00  0.00     0.209 HD
ENDBRANCH  71  72
ENDBRANCH  64  71
ENDBRANCH   8  59
BRANCH  31  74
HETATM   74  O   UNK     0     -27.725  -9.985 -24.354  0.00  0.00    -0.283 OA
BRANCH  74  75
HETATM   75  C   UNK     0     -26.467  -9.775 -24.813  0.00  0.00     0.295 C 
HETATM   76  O   UNK     0     -25.796 -10.717 -25.167  0.00  0.00    -0.259 OA
BRANCH  75  77
HETATM   77  C   UNK     0     -25.913  -8.416 -24.890  0.00  0.00     0.045 A 
HETATM   78  C   UNK     0     -26.735  -7.339 -25.181  0.00  0.00     0.057 A 
HETATM   79  C   UNK     0     -26.200  -6.062 -25.258  0.00  0.00     0.102 A 
HETATM   80  C   UNK     0     -24.844  -5.864 -25.049  0.00  0.00     0.132 A 
HETATM   81  C   UNK     0     -24.023  -6.942 -24.757  0.00  0.00     0.102 A 
HETATM   82  C   UNK     0     -24.558  -8.217 -24.676  0.00  0.00     0.057 A 
BRANCH  79  83
HETATM   83  O   UNK     0     -27.004  -5.001 -25.542  0.00  0.00    -0.358 OA
HETATM   84  H   UNK     0     -27.953  -4.979 -25.193  0.00  0.00     0.217 HD
ENDBRANCH  79  83
BRANCH  80  85
HETATM   85  O   UNK     0     -24.318  -4.612 -25.132  0.00  0.00    -0.356 OA
HETATM   86  H   UNK     0     -23.778  -4.343 -25.946  0.00  0.00     0.218 HD
ENDBRANCH  80  85
BRANCH  81  87
HETATM   87  O   UNK     0     -22.693  -6.748 -24.554  0.00  0.00    -0.358 OA
HETATM   88  H   UNK     0     -22.341  -6.594 -23.618  0.00  0.00     0.217 HD
ENDBRANCH  81  87
ENDBRANCH  75  77
ENDBRANCH  74  75
ENDBRANCH  31  74
BRANCH  19  89
HETATM   89  O   UNK     0     -31.652  -7.236 -15.624  0.00  0.00    -0.358 OA
HETATM   90  H   UNK     0     -32.621  -7.370 -15.365  0.00  0.00     0.217 HD
ENDBRANCH  19  89
BRANCH  26  91
HETATM   91  O   UNK     0     -29.746  -3.640 -24.538  0.00  0.00    -0.358 OA
HETATM   92  H   UNK     0     -29.655  -4.170 -25.395  0.00  0.00     0.217 HD
ENDBRANCH  26  91
BRANCH  17  93
HETATM   93  O   UNK     0     -32.462  -4.828 -16.656  0.00  0.00    -0.357 OA
HETATM   94  H   UNK     0     -32.489  -3.843 -16.889  0.00  0.00     0.217 HD
ENDBRANCH  17  93
BRANCH  24  95
HETATM   95  O   UNK     0     -30.220  -2.210 -22.243  0.00  0.00    -0.357 OA
HETATM   96  H   UNK     0     -30.926  -1.708 -21.719  0.00  0.00     0.217 HD
ENDBRANCH  24  95
TORSDOF 21
ENDMDL
MODEL 3
REMARK VINA RESULT:      -7.8      5.345     10.809
REMARK  21 active torsions:
REMARK  status: ('A' for Active; 'I' for Inactive)
REMARK    1  A    between atoms: C_3  and  O_78 
REMARK    2  A    between atoms: C_5  and  O_77 
REMARK    3  A    between atoms: C_6  and  O_76 
REMARK    4  A    between atoms: C_7  and  O_15 
REMARK    5  A    between atoms: C_8  and  C_17 
REMARK    6  A    between atoms: C_9  and  O_13 
REMARK    7  A    between atoms: C_16  and  O_24 
REMARK    8  A    between atoms: C_18  and  O_22 
REMARK    9  A    between atoms: C_19  and  C_72 
REMARK   10  A    between atoms: C_20  and  O_23 
REMARK   11  A    between atoms: C_28  and  O_32 
REMARK   12  A    between atoms: C_30  and  O_33 
REMARK   13  A    between atoms: C_37  and  O_42 
REMARK   14  A    between atoms: C_39  and  O_43 
REMARK   15  A    between atoms: C_46  and  O_67 
REMARK   16  A    between atoms: C_48  and  O_65 
REMARK   17  A    between atoms: C_49  and  C_52 
REMARK   18  A    between atoms: C_50  and  O_66 
REMARK   19  A    between atoms: C_52  and  O_60 
REMARK   20  A    between atoms: C_54  and  O_60 
REMARK   21  A    between atoms: C_72  and  O_73 
ROOT
HETATM    1  C   UNK     0      -9.555   5.999 -22.682  0.00  0.00     0.058 A 
HETATM    2  C   UNK     0      -8.584   5.105 -23.107  0.00  0.00     0.060 A 
HETATM    3  C   UNK     0     -10.670   5.558 -21.992  0.00  0.00     0.102 A 
HETATM    4  C   UNK     0      -8.730   3.737 -22.835  0.00  0.00     0.127 A 
HETATM    5  C   UNK     0     -10.819   4.212 -21.719  0.00  0.00     0.135 A 
HETATM    6  C   UNK     0      -9.854   3.313 -22.138  0.00  0.00     0.137 A 
HETATM    7  C   UNK     0      -4.682   1.232 -24.185  0.00  0.00     0.114 A 
HETATM    8  C   UNK     0      -4.057   2.249 -24.902  0.00  0.00     0.030 A 
HETATM    9  C   UNK     0      -5.937   1.400 -23.622  0.00  0.00     0.134 A 
HETATM   10  C   UNK     0      -4.741   3.464 -25.038  0.00  0.00     0.059 A 
HETATM   11  C   UNK     0      -6.608   2.600 -23.760  0.00  0.00     0.116 A 
HETATM   12  C   UNK     0      -5.994   3.609 -24.470  0.00  0.00     0.329 A 
HETATM   13  O   UNK     0      -7.861   2.731 -23.206  0.00  0.00    -0.304 OA
HETATM   14  C   UNK     0      -4.246   4.649 -25.749  0.00  0.00     0.295 C 
HETATM   15  C   UNK     0       2.586   7.867 -28.812  0.00  0.00     0.026 A 
HETATM   16  C   UNK     0       1.274   8.190 -28.476  0.00  0.00     0.006 A 
HETATM   17  C   UNK     0       3.043   6.562 -28.812  0.00  0.00     0.111 A 
HETATM   18  C   UNK     0       0.410   7.136 -28.125  0.00  0.00     0.054 A 
HETATM   19  C   UNK     0       2.188   5.537 -28.465  0.00  0.00     0.100 A 
HETATM   20  C   UNK     0       0.881   5.830 -28.126  0.00  0.00     0.058 A 
HETATM   21  O   UNK     0       3.442   8.866 -29.161  0.00  0.00     0.000 OA
HETATM   22  C   UNK     0       1.772  10.406 -29.443  0.00  0.00     0.026 A 
HETATM   23  C   UNK     0       0.958   9.687 -28.569  0.00  0.00     0.006 A 
HETATM   24  C   UNK     0       1.636  11.773 -29.613  0.00  0.00     0.111 A 
HETATM   25  C   UNK     0      -0.020  10.400 -27.862  0.00  0.00     0.054 A 
HETATM   26  C   UNK     0       0.671  12.460 -28.905  0.00  0.00     0.100 A 
HETATM   27  C   UNK     0      -0.149  11.770 -28.036  0.00  0.00     0.058 A 
HETATM   28  C   UNK     0      -0.943   9.801 -26.911  0.00  0.00     0.294 C 
HETATM   29  O   UNK     0       2.732   9.747 -30.146  0.00  0.00     0.000 OA
HETATM   30  O   UNK     0      -0.549   9.489 -25.810  0.00  0.00    -0.259 OA
HETATM   31  C   UNK     0      -4.453   9.276 -26.289  0.00  0.00     0.302 C 
HETATM   32  C   UNK     0      -2.978   8.972 -26.208  0.00  0.00     0.220 C 
HETATM   33  O   UNK     0      -5.100   8.694 -25.149  0.00  0.00    -0.348 OA
HETATM   34  C   UNK     0      -2.822   7.493 -26.325  0.00  0.00     0.198 C 
HETATM   35  C   UNK     0      -4.923   7.276 -24.943  0.00  0.00     0.181 C 
HETATM   36  C   UNK     0      -3.414   6.866 -25.070  0.00  0.00     0.195 C 
HETATM   37  C   UNK     0      -5.412   6.911 -23.533  0.00  0.00     0.212 C 
HETATM   38  O   UNK     0      -1.444   7.175 -26.474  0.00  0.00    -0.306 OA
HETATM   39  O   UNK     0      -3.310   5.442 -25.144  0.00  0.00    -0.307 OA
HETATM   40  O   UNK     0      -2.253   9.608 -27.240  0.00  0.00    -0.304 OA
HETATM   41  O   UNK     0      -6.827   6.805 -23.425  0.00  0.00    -0.328 OA
HETATM   42  C   UNK     0      -1.007   7.289 -27.767  0.00  0.00     0.294 C 
HETATM   43  O   UNK     0      -1.816   7.490 -28.641  0.00  0.00    -0.259 OA
HETATM   44  O   UNK     0      -4.702   4.955 -26.826  0.00  0.00    -0.259 OA
HETATM   45  C   UNK     0      -7.435   5.658 -23.833  0.00  0.00     0.179 C 
HETATM   46  O   UNK     0      -6.996   5.061 -24.789  0.00  0.00    -0.383 OA
HETATM   47  H   UNK     0       4.397   8.647 -29.414  0.00  0.00     0.000 HD
HETATM   48  H   UNK     0       3.335  10.257 -30.779  0.00  0.00     0.000 HD
ENDROOT
BRANCH   3  49
HETATM   49  O   UNK     0     -11.617   6.445 -21.583  0.00  0.00    -0.358 OA
HETATM   50  H   UNK     0     -12.591   6.287 -21.812  0.00  0.00     0.217 HD
ENDBRANCH   3  49
BRANCH   5  51
HETATM   51  O   UNK     0     -11.914   3.772 -21.041  0.00  0.00    -0.356 OA
HETATM   52  H   UNK     0     -12.545   3.111 -21.476  0.00  0.00     0.218 HD
ENDBRANCH   5  51
BRANCH   6  53
HETATM   53  O   UNK     0     -10.011   1.989 -21.867  0.00  0.00    -0.356 OA
HETATM   54  H   UNK     0     -10.929   1.566 -21.919  0.00  0.00     0.218 HD
ENDBRANCH   6  53
BRANCH   9  55
HETATM   55  O   UNK     0      -6.513   0.373 -22.940  0.00  0.00    -0.356 OA
HETATM   56  H   UNK     0      -6.156  -0.568 -23.045  0.00  0.00     0.218 HD
ENDBRANCH   9  55
BRANCH   7  57
HETATM   57  O   UNK     0      -4.048   0.037 -24.047  0.00  0.00    -0.357 OA
HETATM   58  H   UNK     0      -3.407  -0.109 -23.277  0.00  0.00     0.217 HD
ENDBRANCH   7  57
BRANCH   8  59
HETATM   59  C   UNK     0      -2.698   1.894 -25.485  0.00  0.00     0.023 A 
HETATM   60  C   UNK     0      -1.605   2.329 -24.742  0.00  0.00     0.113 A 
HETATM   61  C   UNK     0      -0.307   2.087 -25.151  0.00  0.00     0.133 A 
HETATM   62  C   UNK     0      -0.073   1.392 -26.321  0.00  0.00     0.102 A 
HETATM   63  C   UNK     0      -1.144   0.956 -27.078  0.00  0.00     0.049 A 
HETATM   64  C   UNK     0      -2.450   1.201 -26.677  0.00  0.00    -0.018 A 
BRANCH  60  65
HETATM   65  O   UNK     0      -1.821   3.020 -23.590  0.00  0.00    -0.357 OA
HETATM   66  H   UNK     0      -2.736   3.011 -23.158  0.00  0.00     0.217 HD
ENDBRANCH  60  65
BRANCH  61  67
HETATM   67  O   UNK     0       0.737   2.534 -24.404  0.00  0.00    -0.356 OA
HETATM   68  H   UNK     0       0.741   2.395 -23.402  0.00  0.00     0.218 HD
ENDBRANCH  61  67
BRANCH  62  69
HETATM   69  O   UNK     0       1.201   1.145 -26.726  0.00  0.00    -0.358 OA
HETATM   70  H   UNK     0       1.603   0.226 -26.601  0.00  0.00     0.217 HD
ENDBRANCH  62  69
BRANCH  64  71
HETATM   71  C   UNK     0      -3.530   0.696 -27.592  0.00  0.00     0.203 C 
BRANCH  71  72
HETATM   72  O   UNK     0      -3.945  -0.585 -27.135  0.00  0.00    -0.396 OA
HETATM   73  H   UNK     0      -4.335  -0.689 -26.206  0.00  0.00     0.209 HD
ENDBRANCH  71  72
ENDBRANCH  64  71
ENDBRANCH   8  59
BRANCH  31  74
HETATM   74  O   UNK     0      -4.659  10.680 -26.294  0.00  0.00    -0.283 OA
BRANCH  74  75
HETATM   75  C   UNK     0      -5.562  11.185 -27.171  0.00  0.00     0.295 C 
HETATM   76  O   UNK     0      -5.397  12.294 -27.624  0.00  0.00    -0.259 OA
BRANCH  75  77
HETATM   77  C   UNK     0      -6.734  10.399 -27.579  0.00  0.00     0.045 A 
HETATM   78  C   UNK     0      -7.683  10.016 -26.643  0.00  0.00     0.057 A 
HETATM   79  C   UNK     0      -8.781   9.268 -27.039  0.00  0.00     0.102 A 
HETATM   80  C   UNK     0      -8.928   8.900 -28.367  0.00  0.00     0.132 A 
HETATM   81  C   UNK     0      -7.980   9.283 -29.302  0.00  0.00     0.102 A 
HETATM   82  C   UNK     0      -6.885  10.034 -28.908  0.00  0.00     0.057 A 
BRANCH  79  83
HETATM   83  O   UNK     0      -9.716   8.891 -26.124  0.00  0.00    -0.358 OA
HETATM   84  H   UNK     0     -10.540   9.459 -25.980  0.00  0.00     0.217 HD
ENDBRANCH  79  83
BRANCH  80  85
HETATM   85  O   UNK     0     -10.002   8.159 -28.754  0.00  0.00    -0.356 OA
HETATM   86  H   UNK     0     -10.424   7.503 -28.107  0.00  0.00     0.218 HD
ENDBRANCH  80  85
BRANCH  81  87
HETATM   87  O   UNK     0      -8.123   8.921 -30.604  0.00  0.00    -0.358 OA
HETATM   88  H   UNK     0      -7.833   9.552 -31.340  0.00  0.00     0.217 HD
ENDBRANCH  81  87
ENDBRANCH  75  77
ENDBRANCH  74  75
ENDBRANCH  31  74
BRANCH  19  89
HETATM   89  O   UNK     0       2.630   4.251 -28.465  0.00  0.00    -0.358 OA
HETATM   90  H   UNK     0       2.550   3.687 -29.302  0.00  0.00     0.217 HD
ENDBRANCH  19  89
BRANCH  26  91
HETATM   91  O   UNK     0       0.534  13.805 -29.059  0.00  0.00    -0.358 OA
HETATM   92  H   UNK     0      -0.388  14.213 -29.140  0.00  0.00     0.217 HD
ENDBRANCH  26  91
BRANCH  17  93
HETATM   93  O   UNK     0       4.331   6.289 -29.156  0.00  0.00    -0.357 OA
HETATM   94  H   UNK     0       4.914   7.015 -29.553  0.00  0.00     0.217 HD
ENDBRANCH  17  93
BRANCH  24  95
HETATM   95  O   UNK     0       2.455  12.441 -30.470  0.00  0.00    -0.357 OA
HETATM   96  H   UNK     0       2.949  11.935 -31.194  0.00  0.00     0.217 HD
ENDBRANCH  24  95
TORSDOF 21
ENDMDL
MODEL 4
REMARK VINA RESULT:      -7.6     19.618     23.846
REMARK  21 active torsions:
REMARK  status: ('A' for Active; 'I' for Inactive)
REMARK    1  A    between atoms: C_3  and  O_78 
REMARK    2  A    between atoms: C_5  and  O_77 
REMARK    3  A    between atoms: C_6  and  O_76 
REMARK    4  A    between atoms: C_7  and  O_15 
REMARK    5  A    between atoms: C_8  and  C_17 
REMARK    6  A    between atoms: C_9  and  O_13 
REMARK    7  A    between atoms: C_16  and  O_24 
REMARK    8  A    between atoms: C_18  and  O_22 
REMARK    9  A    between atoms: C_19  and  C_72 
REMARK   10  A    between atoms: C_20  and  O_23 
REMARK   11  A    between atoms: C_28  and  O_32 
REMARK   12  A    between atoms: C_30  and  O_33 
REMARK   13  A    between atoms: C_37  and  O_42 
REMARK   14  A    between atoms: C_39  and  O_43 
REMARK   15  A    between atoms: C_46  and  O_67 
REMARK   16  A    between atoms: C_48  and  O_65 
REMARK   17  A    between atoms: C_49  and  C_52 
REMARK   18  A    between atoms: C_50  and  O_66 
REMARK   19  A    between atoms: C_52  and  O_60 
REMARK   20  A    between atoms: C_54  and  O_60 
REMARK   21  A    between atoms: C_72  and  O_73 
ROOT
HETATM    1  C   UNK     0       1.362 -16.304 -39.570  0.00  0.00     0.058 A 
HETATM    2  C   UNK     0       1.740 -16.589 -38.266  0.00  0.00     0.060 A 
HETATM    3  C   UNK     0       2.023 -15.336 -40.304  0.00  0.00     0.102 A 
HETATM    4  C   UNK     0       2.806 -15.890 -37.682  0.00  0.00     0.127 A 
HETATM    5  C   UNK     0       3.075 -14.645 -39.734  0.00  0.00     0.135 A 
HETATM    6  C   UNK     0       3.460 -14.924 -38.434  0.00  0.00     0.137 A 
HETATM    7  C   UNK     0       3.916 -17.764 -33.239  0.00  0.00     0.114 A 
HETATM    8  C   UNK     0       2.801 -18.586 -33.093  0.00  0.00     0.030 A 
HETATM    9  C   UNK     0       4.072 -16.933 -34.337  0.00  0.00     0.134 A 
HETATM   10  C   UNK     0       1.830 -18.549 -34.102  0.00  0.00     0.059 A 
HETATM   11  C   UNK     0       3.110 -16.899 -35.329  0.00  0.00     0.116 A 
HETATM   12  C   UNK     0       2.004 -17.709 -35.187  0.00  0.00     0.329 A 
HETATM   13  O   UNK     0       3.284 -16.050 -36.397  0.00  0.00    -0.304 OA
HETATM   14  C   UNK     0       0.595 -19.342 -34.128  0.00  0.00     0.295 C 
HETATM   15  C   UNK     0      -2.910 -25.821 -30.645  0.00  0.00     0.026 A 
HETATM   16  C   UNK     0      -3.033 -24.956 -31.729  0.00  0.00     0.006 A 
HETATM   17  C   UNK     0      -2.012 -25.590 -29.619  0.00  0.00     0.111 A 
HETATM   18  C   UNK     0      -2.201 -23.822 -31.757  0.00  0.00     0.054 A 
HETATM   19  C   UNK     0      -1.202 -24.474 -29.658  0.00  0.00     0.100 A 
HETATM   20  C   UNK     0      -1.301 -23.600 -30.723  0.00  0.00     0.058 A 
HETATM   21  O   UNK     0      -3.706 -26.925 -30.588  0.00  0.00     0.000 OA
HETATM   22  C   UNK     0      -5.124 -26.173 -32.221  0.00  0.00     0.026 A 
HETATM   23  C   UNK     0      -4.105 -25.374 -32.740  0.00  0.00     0.006 A 
HETATM   24  C   UNK     0      -6.147 -26.661 -33.014  0.00  0.00     0.111 A 
HETATM   25  C   UNK     0      -4.155 -25.071 -34.108  0.00  0.00     0.054 A 
HETATM   26  C   UNK     0      -6.179 -26.357 -34.360  0.00  0.00     0.100 A 
HETATM   27  C   UNK     0      -5.184 -25.565 -34.897  0.00  0.00     0.058 A 
HETATM   28  C   UNK     0      -3.171 -24.258 -34.803  0.00  0.00     0.294 C 
HETATM   29  O   UNK     0      -5.107 -26.488 -30.898  0.00  0.00     0.000 OA
HETATM   30  O   UNK     0      -2.088 -24.727 -35.072  0.00  0.00    -0.259 OA
HETATM   31  C   UNK     0      -2.814 -21.214 -36.700  0.00  0.00     0.302 C 
HETATM   32  C   UNK     0      -2.368 -22.335 -35.793  0.00  0.00     0.220 C 
HETATM   33  O   UNK     0      -1.662 -20.690 -37.374  0.00  0.00    -0.348 OA
HETATM   34  C   UNK     0      -1.486 -21.736 -34.749  0.00  0.00     0.198 C 
HETATM   35  C   UNK     0      -0.572 -20.222 -36.552  0.00  0.00     0.181 C 
HETATM   36  C   UNK     0      -0.211 -21.266 -35.437  0.00  0.00     0.195 C 
HETATM   37  C   UNK     0       0.664 -20.004 -37.437  0.00  0.00     0.212 C 
HETATM   38  O   UNK     0      -1.217 -22.707 -33.747  0.00  0.00    -0.306 OA
HETATM   39  O   UNK     0       0.662 -20.661 -34.480  0.00  0.00    -0.307 OA
HETATM   40  O   UNK     0      -3.464 -22.978 -35.175  0.00  0.00    -0.304 OA
HETATM   41  O   UNK     0       0.632 -18.790 -38.179  0.00  0.00    -0.328 OA
HETATM   42  C   UNK     0      -2.211 -22.794 -32.808  0.00  0.00     0.294 C 
HETATM   43  O   UNK     0      -3.104 -21.980 -32.826  0.00  0.00    -0.259 OA
HETATM   44  O   UNK     0      -0.475 -18.823 -33.903  0.00  0.00    -0.259 OA
HETATM   45  C   UNK     0       0.983 -17.630 -37.560  0.00  0.00     0.179 C 
HETATM   46  O   UNK     0       0.702 -17.469 -36.394  0.00  0.00    -0.383 OA
HETATM   47  H   UNK     0      -3.634 -27.560 -29.804  0.00  0.00     0.000 HD
HETATM   48  H   UNK     0      -5.836 -27.072 -30.508  0.00  0.00     0.000 HD
ENDROOT
BRANCH   3  49
HETATM   49  O   UNK     0       1.640 -15.064 -41.580  0.00  0.00    -0.358 OA
HETATM   50  H   UNK     0       1.946 -15.659 -42.339  0.00  0.00     0.217 HD
ENDBRANCH   3  49
BRANCH   5  51
HETATM   51  O   UNK     0       3.729 -13.691 -40.450  0.00  0.00    -0.356 OA
HETATM   52  H   UNK     0       3.980 -12.813 -40.012  0.00  0.00     0.218 HD
ENDBRANCH   5  51
BRANCH   6  53
HETATM   53  O   UNK     0       4.496 -14.236 -37.882  0.00  0.00    -0.356 OA
HETATM   54  H   UNK     0       4.438 -13.231 -37.777  0.00  0.00     0.218 HD
ENDBRANCH   6  53
BRANCH   9  55
HETATM   55  O   UNK     0       5.174 -16.139 -34.431  0.00  0.00    -0.356 OA
HETATM   56  H   UNK     0       6.083 -16.501 -34.172  0.00  0.00     0.218 HD
ENDBRANCH   9  55
BRANCH   7  57
HETATM   57  O   UNK     0       4.871 -17.768 -32.270  0.00  0.00    -0.357 OA
HETATM   58  H   UNK     0       5.231 -16.893 -31.913  0.00  0.00     0.217 HD
ENDBRANCH   7  57
BRANCH   8  59
HETATM   59  C   UNK     0       2.764 -19.410 -31.816  0.00  0.00     0.023 A 
HETATM   60  C   UNK     0       2.442 -18.700 -30.664  0.00  0.00     0.113 A 
HETATM   61  C   UNK     0       2.377 -19.315 -29.427  0.00  0.00     0.133 A 
HETATM   62  C   UNK     0       2.631 -20.667 -29.318  0.00  0.00     0.102 A 
HETATM   63  C   UNK     0       2.960 -21.391 -30.449  0.00  0.00     0.049 A 
HETATM   64  C   UNK     0       3.033 -20.779 -31.692  0.00  0.00    -0.018 A 
BRANCH  60  65
HETATM   65  O   UNK     0       2.194 -17.366 -30.757  0.00  0.00    -0.357 OA
HETATM   66  H   UNK     0       1.326 -17.039 -31.161  0.00  0.00     0.217 HD
ENDBRANCH  60  65
BRANCH  61  67
HETATM   67  O   UNK     0       2.067 -18.589 -28.321  0.00  0.00    -0.356 OA
HETATM   68  H   UNK     0       1.893 -19.055 -27.440  0.00  0.00     0.218 HD
ENDBRANCH  61  67
BRANCH  62  69
HETATM   69  O   UNK     0       2.565 -21.279 -28.105  0.00  0.00    -0.358 OA
HETATM   70  H   UNK     0       1.920 -22.045 -27.959  0.00  0.00     0.217 HD
ENDBRANCH  62  69
BRANCH  64  71
HETATM   71  C   UNK     0       3.418 -21.665 -32.844  0.00  0.00     0.203 C 
BRANCH  71  72
HETATM   72  O   UNK     0       2.323 -22.522 -33.140  0.00  0.00    -0.396 OA
HETATM   73  H   UNK     0       2.405 -23.212 -33.876  0.00  0.00     0.209 HD
ENDBRANCH  71  72
ENDBRANCH  64  71
ENDBRANCH   8  59
BRANCH  31  74
HETATM   74  O   UNK     0      -3.747 -21.704 -37.651  0.00  0.00    -0.283 OA
BRANCH  74  75
HETATM   75  C   UNK     0      -4.903 -21.014 -37.819  0.00  0.00     0.295 C 
HETATM   76  O   UNK     0      -4.866 -19.888 -38.257  0.00  0.00    -0.259 OA
BRANCH  75  77
HETATM   77  C   UNK     0      -6.197 -21.622 -37.480  0.00  0.00     0.045 A 
HETATM   78  C   UNK     0      -7.264 -20.829 -37.089  0.00  0.00     0.057 A 
HETATM   79  C   UNK     0      -8.478 -21.415 -36.765  0.00  0.00     0.102 A 
HETATM   80  C   UNK     0      -8.623 -22.792 -36.829  0.00  0.00     0.132 A 
HETATM   81  C   UNK     0      -7.556 -23.584 -37.221  0.00  0.00     0.102 A 
HETATM   82  C   UNK     0      -6.344 -22.999 -37.548  0.00  0.00     0.057 A 
BRANCH  79  83
HETATM   83  O   UNK     0      -9.529 -20.639 -36.382  0.00  0.00    -0.358 OA
HETATM   84  H   UNK     0      -9.827 -20.632 -35.415  0.00  0.00     0.217 HD
ENDBRANCH  79  83
BRANCH  80  85
HETATM   85  O   UNK     0      -9.813 -23.367 -36.504  0.00  0.00    -0.356 OA
HETATM   86  H   UNK     0     -10.074 -23.474 -35.531  0.00  0.00     0.218 HD
ENDBRANCH  80  85
BRANCH  81  87
HETATM   87  O   UNK     0      -7.698 -24.934 -37.281  0.00  0.00    -0.358 OA
HETATM   88  H   UNK     0      -8.615 -25.342 -37.408  0.00  0.00     0.217 HD
ENDBRANCH  81  87
ENDBRANCH  75  77
ENDBRANCH  74  75
ENDBRANCH  31  74
BRANCH  19  89
HETATM   89  O   UNK     0      -0.318 -24.239 -28.652  0.00  0.00    -0.358 OA
HETATM   90  H   UNK     0      -0.638 -23.837 -27.780  0.00  0.00     0.217 HD
ENDBRANCH  19  89
BRANCH  26  91
HETATM   91  O   UNK     0      -7.177 -26.837 -35.149  0.00  0.00    -0.358 OA
HETATM   92  H   UNK     0      -8.071 -26.364 -35.178  0.00  0.00     0.217 HD
ENDBRANCH  26  91
BRANCH  17  93
HETATM   93  O   UNK     0      -1.931 -26.456 -28.573  0.00  0.00    -0.357 OA
HETATM   94  H   UNK     0      -1.813 -26.102 -27.631  0.00  0.00     0.217 HD
ENDBRANCH  17  93
BRANCH  24  95
HETATM   95  O   UNK     0      -7.119 -27.444 -32.471  0.00  0.00    -0.357 OA
HETATM   96  H   UNK     0      -7.253 -28.389 -32.807  0.00  0.00     0.217 HD
ENDBRANCH  24  95
TORSDOF 21
ENDMDL
MODEL 5
REMARK VINA RESULT:      -7.5     30.314     34.029
REMARK  21 active torsions:
REMARK  status: ('A' for Active; 'I' for Inactive)
REMARK    1  A    between atoms: C_3  and  O_78 
REMARK    2  A    between atoms: C_5  and  O_77 
REMARK    3  A    between atoms: C_6  and  O_76 
REMARK    4  A    between atoms: C_7  and  O_15 
REMARK    5  A    between atoms: C_8  and  C_17 
REMARK    6  A    between atoms: C_9  and  O_13 
REMARK    7  A    between atoms: C_16  and  O_24 
REMARK    8  A    between atoms: C_18  and  O_22 
REMARK    9  A    between atoms: C_19  and  C_72 
REMARK   10  A    between atoms: C_20  and  O_23 
REMARK   11  A    between atoms: C_28  and  O_32 
REMARK   12  A    between atoms: C_30  and  O_33 
REMARK   13  A    between atoms: C_37  and  O_42 
REMARK   14  A    between atoms: C_39  and  O_43 
REMARK   15  A    between atoms: C_46  and  O_67 
REMARK   16  A    between atoms: C_48  and  O_65 
REMARK   17  A    between atoms: C_49  and  C_52 
REMARK   18  A    between atoms: C_50  and  O_66 
REMARK   19  A    between atoms: C_52  and  O_60 
REMARK   20  A    between atoms: C_54  and  O_60 
REMARK   21  A    between atoms: C_72  and  O_73 
ROOT
HETATM    1  C   UNK     0     -27.817 -13.216 -13.177  0.00  0.00     0.058 A 
HETATM    2  C   UNK     0     -27.912 -14.215 -14.135  0.00  0.00     0.060 A 
HETATM    3  C   UNK     0     -27.724 -13.529 -11.833  0.00  0.00     0.102 A 
HETATM    4  C   UNK     0     -27.913 -15.560 -13.739  0.00  0.00     0.127 A 
HETATM    5  C   UNK     0     -27.722 -14.852 -11.437  0.00  0.00     0.135 A 
HETATM    6  C   UNK     0     -27.815 -15.856 -12.385  0.00  0.00     0.137 A 
HETATM    7  C   UNK     0     -27.767 -18.554 -17.676  0.00  0.00     0.114 A 
HETATM    8  C   UNK     0     -28.012 -17.595 -18.656  0.00  0.00     0.030 A 
HETATM    9  C   UNK     0     -27.764 -18.236 -16.326  0.00  0.00     0.134 A 
HETATM   10  C   UNK     0     -28.257 -16.282 -18.233  0.00  0.00     0.059 A 
HETATM   11  C   UNK     0     -28.008 -16.939 -15.915  0.00  0.00     0.116 A 
HETATM   12  C   UNK     0     -28.253 -15.988 -16.882  0.00  0.00     0.329 A 
HETATM   13  O   UNK     0     -28.018 -16.658 -14.569  0.00  0.00    -0.304 OA
HETATM   14  C   UNK     0     -28.529 -15.139 -19.112  0.00  0.00     0.295 C 
HETATM   15  C   UNK     0     -27.987 -12.798 -26.899  0.00  0.00     0.026 A 
HETATM   16  C   UNK     0     -28.191 -12.302 -25.614  0.00  0.00     0.006 A 
HETATM   17  C   UNK     0     -27.970 -14.154 -27.167  0.00  0.00     0.111 A 
HETATM   18  C   UNK     0     -28.379 -13.232 -24.576  0.00  0.00     0.054 A 
HETATM   19  C   UNK     0     -28.155 -15.057 -26.141  0.00  0.00     0.100 A 
HETATM   20  C   UNK     0     -28.358 -14.592 -24.856  0.00  0.00     0.058 A 
HETATM   21  O   UNK     0     -27.807 -11.921 -27.924  0.00  0.00     0.000 OA
HETATM   22  C   UNK     0     -28.553 -10.123 -26.718  0.00  0.00     0.026 A 
HETATM   23  C   UNK     0     -28.205 -10.771 -25.533  0.00  0.00     0.006 A 
HETATM   24  C   UNK     0     -28.578  -8.743 -26.817  0.00  0.00     0.111 A 
HETATM   25  C   UNK     0     -27.884  -9.970 -24.428  0.00  0.00     0.054 A 
HETATM   26  C   UNK     0     -28.255  -7.969 -25.721  0.00  0.00     0.100 A 
HETATM   27  C   UNK     0     -27.911  -8.587 -24.536  0.00  0.00     0.058 A 
HETATM   28  C   UNK     0     -27.497 -10.489 -23.126  0.00  0.00     0.294 C 
HETATM   29  O   UNK     0     -28.870 -10.869 -27.810  0.00  0.00     0.000 OA
HETATM   30  O   UNK     0     -26.386 -10.939 -22.967  0.00  0.00    -0.259 OA
HETATM   31  C   UNK     0     -28.480 -10.508 -19.659  0.00  0.00     0.302 C 
HETATM   32  C   UNK     0     -27.830 -11.042 -20.912  0.00  0.00     0.220 C 
HETATM   33  O   UNK     0     -27.805 -11.067 -18.524  0.00  0.00    -0.348 OA
HETATM   34  C   UNK     0     -28.068 -12.515 -20.942  0.00  0.00     0.198 C 
HETATM   35  C   UNK     0     -27.736 -12.506 -18.440  0.00  0.00     0.181 C 
HETATM   36  C   UNK     0     -27.273 -13.135 -19.801  0.00  0.00     0.195 C 
HETATM   37  C   UNK     0     -26.724 -12.896 -17.352  0.00  0.00     0.212 C 
HETATM   38  O   UNK     0     -27.667 -13.030 -22.205  0.00  0.00    -0.306 OA
HETATM   39  O   UNK     0     -27.488 -14.548 -19.772  0.00  0.00    -0.307 OA
HETATM   40  O   UNK     0     -28.368 -10.450 -22.076  0.00  0.00    -0.304 OA
HETATM   41  O   UNK     0     -27.234 -12.789 -16.028  0.00  0.00    -0.328 OA
HETATM   42  C   UNK     0     -28.630 -12.889 -23.169  0.00  0.00     0.294 C 
HETATM   43  O   UNK     0     -29.728 -12.500 -22.845  0.00  0.00    -0.259 OA
HETATM   44  O   UNK     0     -29.647 -14.685 -19.204  0.00  0.00    -0.259 OA
HETATM   45  C   UNK     0     -28.009 -13.794 -15.537  0.00  0.00     0.179 C 
HETATM   46  O   UNK     0     -28.764 -14.379 -16.280  0.00  0.00    -0.383 OA
HETATM   47  H   UNK     0     -27.663 -12.265 -28.865  0.00  0.00     0.000 HD
HETATM   48  H   UNK     0     -29.118 -10.412 -28.679  0.00  0.00     0.000 HD
ENDROOT
BRANCH   3  49
HETATM   49  O   UNK     0     -27.635 -12.539 -10.905  0.00  0.00    -0.358 OA
HETATM   50  H   UNK     0     -28.118 -11.662 -11.051  0.00  0.00     0.217 HD
ENDBRANCH   3  49
BRANCH   5  51
HETATM   51  O   UNK     0     -27.632 -15.167 -10.116  0.00  0.00    -0.356 OA
HETATM   52  H   UNK     0     -28.231 -15.883  -9.725  0.00  0.00     0.218 HD
ENDBRANCH   5  51
BRANCH   6  53
HETATM   53  O   UNK     0     -27.815 -17.157 -11.985  0.00  0.00    -0.356 OA
HETATM   54  H   UNK     0     -28.516 -17.796 -12.339  0.00  0.00     0.218 HD
ENDBRANCH   6  53
BRANCH   9  55
HETATM   55  O   UNK     0     -27.531 -19.209 -15.405  0.00  0.00    -0.356 OA
HETATM   56  H   UNK     0     -27.796 -20.167 -15.601  0.00  0.00     0.218 HD
ENDBRANCH   9  55
BRANCH   7  57
HETATM   57  O   UNK     0     -27.538 -19.840 -18.054  0.00  0.00    -0.357 OA
HETATM   58  H   UNK     0     -28.256 -20.359 -18.543  0.00  0.00     0.217 HD
ENDBRANCH   7  57
BRANCH   8  59
HETATM   59  C   UNK     0     -28.014 -18.112 -20.085  0.00  0.00     0.023 A 
HETATM   60  C   UNK     0     -26.757 -18.250 -20.664  0.00  0.00     0.113 A 
HETATM   61  C   UNK     0     -26.601 -18.703 -21.962  0.00  0.00     0.133 A 
HETATM   62  C   UNK     0     -27.712 -19.034 -22.712  0.00  0.00     0.102 A 
HETATM   63  C   UNK     0     -28.971 -18.898 -22.159  0.00  0.00     0.049 A 
HETATM   64  C   UNK     0     -29.135 -18.438 -20.859  0.00  0.00    -0.018 A 
BRANCH  60  65
HETATM   65  O   UNK     0     -25.654 -17.923 -19.938  0.00  0.00    -0.357 OA
HETATM   66  H   UNK     0     -25.518 -16.971 -19.626  0.00  0.00     0.217 HD
ENDBRANCH  60  65
BRANCH  61  67
HETATM   67  O   UNK     0     -25.358 -18.818 -22.499  0.00  0.00    -0.356 OA
HETATM   68  H   UNK     0     -25.186 -18.519 -23.450  0.00  0.00     0.218 HD
ENDBRANCH  61  67
BRANCH  62  69
HETATM   69  O   UNK     0     -27.566 -19.484 -23.987  0.00  0.00    -0.358 OA
HETATM   70  H   UNK     0     -27.641 -18.839 -24.763  0.00  0.00     0.217 HD
ENDBRANCH  62  69
BRANCH  64  71
HETATM   71  C   UNK     0     -30.553 -18.314 -20.374  0.00  0.00     0.203 C 
BRANCH  71  72
HETATM   72  O   UNK     0     -31.015 -17.002 -20.666  0.00  0.00    -0.396 OA
HETATM   73  H   UNK     0     -31.949 -16.864 -21.031  0.00  0.00     0.209 HD
ENDBRANCH  71  72
ENDBRANCH  64  71
ENDBRANCH   8  59
BRANCH  31  74
HETATM   74  O   UNK     0     -28.382  -9.092 -19.629  0.00  0.00    -0.283 OA
BRANCH  74  75
HETATM   75  C   UNK     0     -29.532  -8.376 -19.679  0.00  0.00     0.295 C 
HETATM   76  O   UNK     0     -30.206  -8.261 -18.682  0.00  0.00    -0.259 OA
BRANCH  75  77
HETATM   77  C   UNK     0     -29.963  -7.734 -20.928  0.00  0.00     0.045 A 
HETATM   78  C   UNK     0     -31.118  -8.153 -21.570  0.00  0.00     0.057 A 
HETATM   79  C   UNK     0     -31.512  -7.544 -22.752  0.00  0.00     0.102 A 
HETATM   80  C   UNK     0     -30.749  -6.521 -23.293  0.00  0.00     0.132 A 
HETATM   81  C   UNK     0     -29.595  -6.103 -22.651  0.00  0.00     0.102 A 
HETATM   82  C   UNK     0     -29.204  -6.708 -21.468  0.00  0.00     0.057 A 
BRANCH  79  83
HETATM   83  O   UNK     0     -32.646  -7.952 -23.385  0.00  0.00    -0.358 OA
HETATM   84  H   UNK     0     -33.552  -7.679 -23.025  0.00  0.00     0.217 HD
ENDBRANCH  79  83
BRANCH  80  85
HETATM   85  O   UNK     0     -31.131  -5.929 -24.457  0.00  0.00    -0.356 OA
HETATM   86  H   UNK     0     -31.943  -6.271 -24.956  0.00  0.00     0.218 HD
ENDBRANCH  80  85
BRANCH  81  87
HETATM   87  O   UNK     0     -28.846  -5.101 -23.182  0.00  0.00    -0.358 OA
HETATM   88  H   UNK     0     -28.473  -4.375 -22.584  0.00  0.00     0.217 HD
ENDBRANCH  81  87
ENDBRANCH  75  77
ENDBRANCH  74  75
ENDBRANCH  31  74
BRANCH  19  89
HETATM   89  O   UNK     0     -28.142 -16.393 -26.398  0.00  0.00    -0.358 OA
HETATM   90  H   UNK     0     -28.942 -16.833 -26.835  0.00  0.00     0.217 HD
ENDBRANCH  19  89
BRANCH  26  91
HETATM   91  O   UNK     0     -28.270  -6.612 -25.810  0.00  0.00    -0.358 OA
HETATM   92  H   UNK     0     -29.134  -6.129 -26.015  0.00  0.00     0.217 HD
ENDBRANCH  26  91
BRANCH  17  93
HETATM   93  O   UNK     0     -27.776 -14.598 -28.439  0.00  0.00    -0.357 OA
HETATM   94  H   UNK     0     -28.415 -14.322 -29.174  0.00  0.00     0.217 HD
ENDBRANCH  17  93
BRANCH  24  95
HETATM   95  O   UNK     0     -28.916  -8.148 -27.993  0.00  0.00    -0.357 OA
HETATM   96  H   UNK     0     -29.571  -7.377 -28.000  0.00  0.00     0.217 HD
ENDBRANCH  24  95
TORSDOF 21
ENDMDL
MODEL 6
REMARK VINA RESULT:      -7.4     29.916     33.516
REMARK  21 active torsions:
REMARK  status: ('A' for Active; 'I' for Inactive)
REMARK    1  A    between atoms: C_3  and  O_78 
REMARK    2  A    between atoms: C_5  and  O_77 
REMARK    3  A    between atoms: C_6  and  O_76 
REMARK    4  A    between atoms: C_7  and  O_15 
REMARK    5  A    between atoms: C_8  and  C_17 
REMARK    6  A    between atoms: C_9  and  O_13 
REMARK    7  A    between atoms: C_16  and  O_24 
REMARK    8  A    between atoms: C_18  and  O_22 
REMARK    9  A    between atoms: C_19  and  C_72 
REMARK   10  A    between atoms: C_20  and  O_23 
REMARK   11  A    between atoms: C_28  and  O_32 
REMARK   12  A    between atoms: C_30  and  O_33 
REMARK   13  A    between atoms: C_37  and  O_42 
REMARK   14  A    between atoms: C_39  and  O_43 
REMARK   15  A    between atoms: C_46  and  O_67 
REMARK   16  A    between atoms: C_48  and  O_65 
REMARK   17  A    between atoms: C_49  and  C_52 
REMARK   18  A    between atoms: C_50  and  O_66 
REMARK   19  A    between atoms: C_52  and  O_60 
REMARK   20  A    between atoms: C_54  and  O_60 
REMARK   21  A    between atoms: C_72  and  O_73 
ROOT
HETATM    1  C   UNK     0     -27.218 -17.608 -20.257  0.00  0.00     0.058 A 
HETATM    2  C   UNK     0     -27.453 -16.566 -21.142  0.00  0.00     0.060 A 
HETATM    3  C   UNK     0     -26.729 -18.822 -20.705  0.00  0.00     0.102 A 
HETATM    4  C   UNK     0     -27.193 -16.742 -22.509  0.00  0.00     0.127 A 
HETATM    5  C   UNK     0     -26.469 -19.001 -22.050  0.00  0.00     0.135 A 
HETATM    6  C   UNK     0     -26.699 -17.967 -22.940  0.00  0.00     0.137 A 
HETATM    7  C   UNK     0     -27.776 -12.492 -24.974  0.00  0.00     0.114 A 
HETATM    8  C   UNK     0     -28.385 -11.762 -23.956  0.00  0.00     0.030 A 
HETATM    9  C   UNK     0     -27.444 -13.829 -24.816  0.00  0.00     0.134 A 
HETATM   10  C   UNK     0     -28.655 -12.425 -22.752  0.00  0.00     0.059 A 
HETATM   11  C   UNK     0     -27.715 -14.479 -23.627  0.00  0.00     0.116 A 
HETATM   12  C   UNK     0     -28.319 -13.760 -22.618  0.00  0.00     0.329 A 
HETATM   13  O   UNK     0     -27.392 -15.810 -23.507  0.00  0.00    -0.304 OA
HETATM   14  C   UNK     0     -29.284 -11.826 -21.569  0.00  0.00     0.295 C 
HETATM   15  C   UNK     0     -31.140  -4.598 -18.293  0.00  0.00     0.026 A 
HETATM   16  C   UNK     0     -31.044  -5.953 -17.985  0.00  0.00     0.006 A 
HETATM   17  C   UNK     0     -31.041  -4.134 -19.592  0.00  0.00     0.111 A 
HETATM   18  C   UNK     0     -30.837  -6.852 -19.046  0.00  0.00     0.054 A 
HETATM   19  C   UNK     0     -30.837  -5.025 -20.625  0.00  0.00     0.100 A 
HETATM   20  C   UNK     0     -30.737  -6.375 -20.346  0.00  0.00     0.058 A 
HETATM   21  O   UNK     0     -31.345  -3.705 -17.287  0.00  0.00     0.000 OA
HETATM   22  C   UNK     0     -31.938  -5.317 -15.773  0.00  0.00     0.026 A 
HETATM   23  C   UNK     0     -31.211  -6.264 -16.493  0.00  0.00     0.006 A 
HETATM   24  C   UNK     0     -32.147  -5.437 -14.410  0.00  0.00     0.111 A 
HETATM   25  C   UNK     0     -30.697  -7.360 -15.785  0.00  0.00     0.054 A 
HETATM   26  C   UNK     0     -31.629  -6.519 -13.728  0.00  0.00     0.100 A 
HETATM   27  C   UNK     0     -30.909  -7.471 -14.419  0.00  0.00     0.058 A 
HETATM   28  C   UNK     0     -29.915  -8.428 -16.386  0.00  0.00     0.294 C 
HETATM   29  O   UNK     0     -32.451  -4.241 -16.427  0.00  0.00     0.000 OA
HETATM   30  O   UNK     0     -28.758  -8.232 -16.680  0.00  0.00    -0.259 OA
HETATM   31  C   UNK     0     -29.914 -11.987 -16.952  0.00  0.00     0.302 C 
HETATM   32  C   UNK     0     -29.570 -10.546 -17.235  0.00  0.00     0.220 C 
HETATM   33  O   UNK     0     -28.898 -12.818 -17.530  0.00  0.00    -0.348 OA
HETATM   34  C   UNK     0     -29.639 -10.355 -18.713  0.00  0.00     0.198 C 
HETATM   35  C   UNK     0     -28.645 -12.664 -18.943  0.00  0.00     0.181 C 
HETATM   36  C   UNK     0     -28.499 -11.152 -19.334  0.00  0.00     0.195 C 
HETATM   37  C   UNK     0     -27.338 -13.390 -19.298  0.00  0.00     0.212 C 
HETATM   38  O   UNK     0     -29.538  -8.969 -19.013  0.00  0.00    -0.306 OA
HETATM   39  O   UNK     0     -28.534 -11.021 -20.757  0.00  0.00    -0.307 OA
HETATM   40  O   UNK     0     -30.467  -9.658 -16.600  0.00  0.00    -0.304 OA
HETATM   41  O   UNK     0     -27.480 -14.800 -19.422  0.00  0.00    -0.328 OA
HETATM   42  C   UNK     0     -30.735  -8.312 -18.908  0.00  0.00     0.294 C 
HETATM   43  O   UNK     0     -31.741  -8.957 -18.728  0.00  0.00    -0.259 OA
HETATM   44  O   UNK     0     -30.429 -12.088 -21.281  0.00  0.00    -0.259 OA
HETATM   45  C   UNK     0     -27.973 -15.314 -20.582  0.00  0.00     0.179 C 
HETATM   46  O   UNK     0     -28.829 -14.706 -21.184  0.00  0.00    -0.383 OA
HETATM   47  H   UNK     0     -31.423  -2.718 -17.496  0.00  0.00     0.000 HD
HETATM   48  H   UNK     0     -32.976  -3.542 -15.916  0.00  0.00     0.000 HD
ENDROOT
BRANCH   3  49
HETATM   49  O   UNK     0     -26.505 -19.836 -19.826  0.00  0.00    -0.358 OA
HETATM   50  H   UNK     0     -26.301 -20.766 -20.169  0.00  0.00     0.217 HD
ENDBRANCH   3  49
BRANCH   5  51
HETATM   51  O   UNK     0     -25.989 -20.193 -22.497  0.00  0.00    -0.356 OA
HETATM   52  H   UNK     0     -25.569 -20.256 -23.416  0.00  0.00     0.218 HD
ENDBRANCH   5  51
BRANCH   6  53
HETATM   53  O   UNK     0     -26.442 -18.154 -24.263  0.00  0.00    -0.356 OA
HETATM   54  H   UNK     0     -26.812 -17.507 -24.948  0.00  0.00     0.218 HD
ENDBRANCH   6  53
BRANCH   9  55
HETATM   55  O   UNK     0     -26.861 -14.504 -25.843  0.00  0.00    -0.356 OA
HETATM   56  H   UNK     0     -25.889 -14.780 -25.780  0.00  0.00     0.218 HD
ENDBRANCH   9  55
BRANCH   7  57
HETATM   57  O   UNK     0     -27.512 -11.879 -26.159  0.00  0.00    -0.357 OA
HETATM   58  H   UNK     0     -26.561 -11.623 -26.395  0.00  0.00     0.217 HD
ENDBRANCH   7  57
BRANCH   8  59
HETATM   59  C   UNK     0     -28.715 -10.318 -24.300  0.00  0.00     0.023 A 
HETATM   60  C   UNK     0     -27.657  -9.424 -24.168  0.00  0.00     0.113 A 
HETATM   61  C   UNK     0     -27.808  -8.076 -24.438  0.00  0.00     0.133 A 
HETATM   62  C   UNK     0     -29.032  -7.592 -24.854  0.00  0.00     0.102 A 
HETATM   63  C   UNK     0     -30.099  -8.461 -24.986  0.00  0.00     0.049 A 
HETATM   64  C   UNK     0     -29.956  -9.814 -24.710  0.00  0.00    -0.018 A 
BRANCH  60  65
HETATM   65  O   UNK     0     -26.447  -9.887 -23.754  0.00  0.00    -0.357 OA
HETATM   66  H   UNK     0     -25.819 -10.325 -24.415  0.00  0.00     0.217 HD
ENDBRANCH  60  65
BRANCH  61  67
HETATM   67  O   UNK     0     -26.755  -7.229 -24.291  0.00  0.00    -0.356 OA
HETATM   68  H   UNK     0     -26.118  -7.073 -25.062  0.00  0.00     0.218 HD
ENDBRANCH  61  67
BRANCH  62  69
HETATM   69  O   UNK     0     -29.187  -6.268 -25.126  0.00  0.00    -0.358 OA
HETATM   70  H   UNK     0     -30.113  -5.883 -25.258  0.00  0.00     0.217 HD
ENDBRANCH  62  69
BRANCH  64  71
HETATM   71  C   UNK     0     -31.190 -10.657 -24.870  0.00  0.00     0.203 C 
BRANCH  71  72
HETATM   72  O   UNK     0     -31.872 -10.699 -23.624  0.00  0.00    -0.396 OA
HETATM   73  H   UNK     0     -32.419 -11.513 -23.373  0.00  0.00     0.209 HD
ENDBRANCH  71  72
ENDBRANCH  64  71
ENDBRANCH   8  59
BRANCH  31  74
HETATM   74  O   UNK     0     -29.974 -12.205 -15.550  0.00  0.00    -0.283 OA
BRANCH  74  75
HETATM   75  C   UNK     0     -28.859 -11.950 -14.821  0.00  0.00     0.295 C 
HETATM   76  O   UNK     0     -27.866 -12.615 -14.999  0.00  0.00    -0.259 OA
BRANCH  75  77
HETATM   77  C   UNK     0     -28.845 -10.871 -13.824  0.00  0.00     0.045 A 
HETATM   78  C   UNK     0     -27.749 -10.029 -13.716  0.00  0.00     0.057 A 
HETATM   79  C   UNK     0     -27.744  -9.019 -12.767  0.00  0.00     0.102 A 
HETATM   80  C   UNK     0     -28.832  -8.853 -11.924  0.00  0.00     0.132 A 
HETATM   81  C   UNK     0     -29.928  -9.694 -12.033  0.00  0.00     0.102 A 
HETATM   82  C   UNK     0     -29.935 -10.701 -12.984  0.00  0.00     0.057 A 
BRANCH  79  83
HETATM   83  O   UNK     0     -26.670  -8.189 -12.659  0.00  0.00    -0.358 OA
HETATM   84  H   UNK     0     -26.770  -7.290 -12.207  0.00  0.00     0.217 HD
ENDBRANCH  79  83
BRANCH  80  85
HETATM   85  O   UNK     0     -28.824  -7.867 -10.987  0.00  0.00    -0.356 OA
HETATM   86  H   UNK     0     -29.508  -7.121 -11.031  0.00  0.00     0.218 HD
ENDBRANCH  80  85
BRANCH  81  87
HETATM   87  O   UNK     0     -30.993  -9.533 -11.205  0.00  0.00    -0.358 OA
HETATM   88  H   UNK     0     -31.383 -10.331 -10.720  0.00  0.00     0.217 HD
ENDBRANCH  81  87
ENDBRANCH  75  77
ENDBRANCH  74  75
ENDBRANCH  31  74
BRANCH  19  89
HETATM   89  O   UNK     0     -30.741  -4.575 -21.904  0.00  0.00    -0.358 OA
HETATM   90  H   UNK     0     -31.579  -4.420 -22.451  0.00  0.00     0.217 HD
ENDBRANCH  19  89
BRANCH  26  91
HETATM   91  O   UNK     0     -31.823  -6.642 -12.387  0.00  0.00    -0.358 OA
HETATM   92  H   UNK     0     -31.646  -5.855 -11.776  0.00  0.00     0.217 HD
ENDBRANCH  26  91
BRANCH  17  93
HETATM   93  O   UNK     0     -31.149  -2.802 -19.852  0.00  0.00    -0.357 OA
HETATM   94  H   UNK     0     -31.901  -2.265 -19.438  0.00  0.00     0.217 HD
ENDBRANCH  17  93
BRANCH  24  95
HETATM   95  O   UNK     0     -32.856  -4.487 -13.741  0.00  0.00    -0.357 OA
HETATM   96  H   UNK     0     -33.360  -3.776 -14.255  0.00  0.00     0.217 HD
ENDBRANCH  24  95
TORSDOF 21
ENDMDL
MODEL 7
REMARK VINA RESULT:      -7.4      3.060      8.269
REMARK  21 active torsions:
REMARK  status: ('A' for Active; 'I' for Inactive)
REMARK    1  A    between atoms: C_3  and  O_78 
REMARK    2  A    between atoms: C_5  and  O_77 
REMARK    3  A    between atoms: C_6  and  O_76 
REMARK    4  A    between atoms: C_7  and  O_15 
REMARK    5  A    between atoms: C_8  and  C_17 
REMARK    6  A    between atoms: C_9  and  O_13 
REMARK    7  A    between atoms: C_16  and  O_24 
REMARK    8  A    between atoms: C_18  and  O_22 
REMARK    9  A    between atoms: C_19  and  C_72 
REMARK   10  A    between atoms: C_20  and  O_23 
REMARK   11  A    between atoms: C_28  and  O_32 
REMARK   12  A    between atoms: C_30  and  O_33 
REMARK   13  A    between atoms: C_37  and  O_42 
REMARK   14  A    between atoms: C_39  and  O_43 
REMARK   15  A    between atoms: C_46  and  O_67 
REMARK   16  A    between atoms: C_48  and  O_65 
REMARK   17  A    between atoms: C_49  and  C_52 
REMARK   18  A    between atoms: C_50  and  O_66 
REMARK   19  A    between atoms: C_52  and  O_60 
REMARK   20  A    between atoms: C_54  and  O_60 
REMARK   21  A    between atoms: C_72  and  O_73 
ROOT
HETATM    1  C   UNK     0       7.019   0.565 -35.523  0.00  0.00     0.058 A 
HETATM    2  C   UNK     0       5.665   0.264 -35.564  0.00  0.00     0.060 A 
HETATM    3  C   UNK     0       7.775   0.586 -36.681  0.00  0.00     0.102 A 
HETATM    4  C   UNK     0       5.053  -0.022 -36.793  0.00  0.00     0.127 A 
HETATM    5  C   UNK     0       7.178   0.306 -37.894  0.00  0.00     0.135 A 
HETATM    6  C   UNK     0       5.827   0.006 -37.945  0.00  0.00     0.137 A 
HETATM    7  C   UNK     0       0.158  -0.499 -36.251  0.00  0.00     0.114 A 
HETATM    8  C   UNK     0       0.121  -0.532 -34.860  0.00  0.00     0.030 A 
HETATM    9  C   UNK     0       1.354  -0.433 -36.949  0.00  0.00     0.134 A 
HETATM   10  C   UNK     0       1.343  -0.496 -34.176  0.00  0.00     0.059 A 
HETATM   11  C   UNK     0       2.557  -0.399 -36.270  0.00  0.00     0.116 A 
HETATM   12  C   UNK     0       2.524  -0.434 -34.892  0.00  0.00     0.329 A 
HETATM   13  O   UNK     0       3.727  -0.354 -36.990  0.00  0.00    -0.304 OA
HETATM   14  C   UNK     0       1.507  -0.516 -32.718  0.00  0.00     0.295 C 
HETATM   15  C   UNK     0      -2.678   0.536 -25.804  0.00  0.00     0.026 A 
HETATM   16  C   UNK     0      -1.380   0.436 -26.299  0.00  0.00     0.006 A 
HETATM   17  C   UNK     0      -3.784   0.266 -26.589  0.00  0.00     0.111 A 
HETATM   18  C   UNK     0      -1.220   0.052 -27.643  0.00  0.00     0.054 A 
HETATM   19  C   UNK     0      -3.615  -0.109 -27.905  0.00  0.00     0.100 A 
HETATM   20  C   UNK     0      -2.338  -0.214 -28.422  0.00  0.00     0.058 A 
HETATM   21  O   UNK     0      -2.864   0.900 -24.506  0.00  0.00     0.000 OA
HETATM   22  C   UNK     0      -0.674   0.547 -23.936  0.00  0.00     0.026 A 
HETATM   23  C   UNK     0      -0.294   0.746 -25.262  0.00  0.00     0.006 A 
HETATM   24  C   UNK     0       0.181   0.814 -22.882  0.00  0.00     0.111 A 
HETATM   25  C   UNK     0       1.002   1.225 -25.499  0.00  0.00     0.054 A 
HETATM   26  C   UNK     0       1.452   1.290 -23.132  0.00  0.00     0.100 A 
HETATM   27  C   UNK     0       1.853   1.492 -24.437  0.00  0.00     0.058 A 
HETATM   28  C   UNK     0       1.549   1.489 -26.820  0.00  0.00     0.294 C 
HETATM   29  O   UNK     0      -1.924   0.083 -23.669  0.00  0.00     0.000 OA
HETATM   30  O   UNK     0       1.204   2.480 -27.424  0.00  0.00    -0.259 OA
HETATM   31  C   UNK     0       4.202   0.513 -29.054  0.00  0.00     0.302 C 
HETATM   32  C   UNK     0       2.839   1.040 -28.679  0.00  0.00     0.220 C 
HETATM   33  O   UNK     0       4.559   1.050 -30.335  0.00  0.00    -0.348 OA
HETATM   34  C   UNK     0       1.865   0.495 -29.668  0.00  0.00     0.198 C 
HETATM   35  C   UNK     0       3.647   0.813 -31.428  0.00  0.00     0.181 C 
HETATM   36  C   UNK     0       2.168   1.137 -31.016  0.00  0.00     0.195 C 
HETATM   37  C   UNK     0       4.035   1.716 -32.608  0.00  0.00     0.212 C 
HETATM   38  O   UNK     0       0.542   0.782 -29.233  0.00  0.00    -0.306 OA
HETATM   39  O   UNK     0       1.273   0.629 -32.008  0.00  0.00    -0.307 OA
HETATM   40  O   UNK     0       2.463   0.643 -27.376  0.00  0.00    -0.304 OA
HETATM   41  O   UNK     0       5.144   1.235 -33.359  0.00  0.00    -0.328 OA
HETATM   42  C   UNK     0       0.071  -0.126 -28.322  0.00  0.00     0.294 C 
HETATM   43  O   UNK     0       0.724  -1.117 -28.095  0.00  0.00    -0.259 OA
HETATM   44  O   UNK     0       1.902  -1.513 -32.156  0.00  0.00    -0.259 OA
HETATM   45  C   UNK     0       4.939   0.264 -34.289  0.00  0.00     0.179 C 
HETATM   46  O   UNK     0       4.113  -0.596 -34.079  0.00  0.00    -0.383 OA
HETATM   47  H   UNK     0      -3.800   0.971 -24.130  0.00  0.00     0.000 HD
HETATM   48  H   UNK     0      -2.217  -0.060 -22.710  0.00  0.00     0.000 HD
ENDROOT
BRANCH   3  49
HETATM   49  O   UNK     0       9.102   0.879 -36.626  0.00  0.00    -0.358 OA
HETATM   50  H   UNK     0       9.485   1.346 -35.814  0.00  0.00     0.217 HD
ENDBRANCH   3  49
BRANCH   5  51
HETATM   51  O   UNK     0       7.916   0.324 -39.037  0.00  0.00    -0.356 OA
HETATM   52  H   UNK     0       7.460   0.231 -39.936  0.00  0.00     0.218 HD
ENDBRANCH   5  51
BRANCH   6  53
HETATM   53  O   UNK     0       5.248  -0.270 -39.145  0.00  0.00    -0.356 OA
HETATM   54  H   UNK     0       5.598  -1.032 -39.713  0.00  0.00     0.218 HD
ENDBRANCH   6  53
BRANCH   9  55
HETATM   55  O   UNK     0       1.340  -0.414 -38.310  0.00  0.00    -0.356 OA
HETATM   56  H   UNK     0       0.565   0.010 -38.803  0.00  0.00     0.218 HD
ENDBRANCH   9  55
BRANCH   7  57
HETATM   57  O   UNK     0      -1.012  -0.545 -36.944  0.00  0.00    -0.357 OA
HETATM   58  H   UNK     0      -1.544   0.303 -37.093  0.00  0.00     0.217 HD
ENDBRANCH   7  57
BRANCH   8  59
HETATM   59  C   UNK     0      -1.267  -0.639 -34.248  0.00  0.00     0.023 A 
HETATM   60  C   UNK     0      -1.825  -1.913 -34.269  0.00  0.00     0.113 A 
HETATM   61  C   UNK     0      -3.085  -2.162 -33.756  0.00  0.00     0.133 A 
HETATM   62  C   UNK     0      -3.817  -1.132 -33.202  0.00  0.00     0.102 A 
HETATM   63  C   UNK     0      -3.285   0.144 -33.177  0.00  0.00     0.049 A 
HETATM   64  C   UNK     0      -2.024   0.402 -33.696  0.00  0.00    -0.018 A 
BRANCH  60  65
HETATM   65  O   UNK     0      -1.116  -2.937 -34.817  0.00  0.00    -0.357 OA
HETATM   66  H   UNK     0      -0.214  -2.759 -35.238  0.00  0.00     0.217 HD
ENDBRANCH  60  65
BRANCH  61  67
HETATM   67  O   UNK     0      -3.602  -3.418 -33.799  0.00  0.00    -0.356 OA
HETATM   68  H   UNK     0      -3.005  -4.219 -33.636  0.00  0.00     0.218 HD
ENDBRANCH  61  67
BRANCH  62  69
HETATM   69  O   UNK     0      -5.055  -1.370 -32.691  0.00  0.00    -0.358 OA
HETATM   70  H   UNK     0      -5.826  -0.759 -32.925  0.00  0.00     0.217 HD
ENDBRANCH  62  69
BRANCH  64  71
HETATM   71  C   UNK     0      -1.561   1.831 -33.630  0.00  0.00     0.203 C 
BRANCH  71  72
HETATM   72  O   UNK     0      -1.098   2.094 -32.312  0.00  0.00    -0.396 OA
HETATM   73  H   UNK     0      -0.184   1.769 -32.022  0.00  0.00     0.209 HD
ENDBRANCH  71  72
ENDBRANCH  64  71
ENDBRANCH   8  59
BRANCH  31  74
HETATM   74  O   UNK     0       5.159   0.908 -28.083  0.00  0.00    -0.283 OA
BRANCH  74  75
HETATM   75  C   UNK     0       5.835  -0.067 -27.426  0.00  0.00     0.295 C 
HETATM   76  O   UNK     0       6.965  -0.338 -27.760  0.00  0.00    -0.259 OA
BRANCH  75  77
HETATM   77  C   UNK     0       5.212  -0.792 -26.310  0.00  0.00     0.045 A 
HETATM   78  C   UNK     0       4.649  -2.043 -26.512  0.00  0.00     0.057 A 
HETATM   79  C   UNK     0       4.058  -2.714 -25.453  0.00  0.00     0.102 A 
HETATM   80  C   UNK     0       4.026  -2.135 -24.195  0.00  0.00     0.132 A 
HETATM   81  C   UNK     0       4.589  -0.885 -23.993  0.00  0.00     0.102 A 
HETATM   82  C   UNK     0       5.183  -0.215 -25.050  0.00  0.00     0.057 A 
BRANCH  79  83
HETATM   83  O   UNK     0       3.507  -3.944 -25.647  0.00  0.00    -0.358 OA
HETATM   84  H   UNK     0       2.513  -4.031 -25.818  0.00  0.00     0.217 HD
ENDBRANCH  79  83
BRANCH  80  85
HETATM   85  O   UNK     0       3.440  -2.791 -23.157  0.00  0.00    -0.356 OA
HETATM   86  H   UNK     0       2.844  -3.590 -23.336  0.00  0.00     0.218 HD
ENDBRANCH  80  85
BRANCH  81  87
HETATM   87  O   UNK     0       4.556  -0.315 -22.760  0.00  0.00    -0.358 OA
HETATM   88  H   UNK     0       5.336  -0.432 -22.126  0.00  0.00     0.217 HD
ENDBRANCH  81  87
ENDBRANCH  75  77
ENDBRANCH  74  75
ENDBRANCH  31  74
BRANCH  19  89
HETATM   89  O   UNK     0      -4.699  -0.378 -28.682  0.00  0.00    -0.358 OA
HETATM   90  H   UNK     0      -4.677  -0.168 -29.672  0.00  0.00     0.217 HD
ENDBRANCH  19  89
BRANCH  26  91
HETATM   91  O   UNK     0       2.298   1.563 -22.102  0.00  0.00    -0.358 OA
HETATM   92  H   UNK     0       2.195   2.420 -21.576  0.00  0.00     0.217 HD
ENDBRANCH  26  91
BRANCH  17  93
HETATM   93  O   UNK     0      -5.036   0.366 -26.064  0.00  0.00    -0.357 OA
HETATM   94  H   UNK     0      -5.782  -0.219 -26.419  0.00  0.00     0.217 HD
ENDBRANCH  17  93
BRANCH  24  95
HETATM   95  O   UNK     0      -0.229   0.614 -21.599  0.00  0.00    -0.357 OA
HETATM   96  H   UNK     0      -0.918  -0.098 -21.394  0.00  0.00     0.217 HD
ENDBRANCH  24  95
TORSDOF 21
ENDMDL
MODEL 8
REMARK VINA RESULT:      -7.4     30.133     33.841
REMARK  21 active torsions:
REMARK  status: ('A' for Active; 'I' for Inactive)
REMARK    1  A    between atoms: C_3  and  O_78 
REMARK    2  A    between atoms: C_5  and  O_77 
REMARK    3  A    between atoms: C_6  and  O_76 
REMARK    4  A    between atoms: C_7  and  O_15 
REMARK    5  A    between atoms: C_8  and  C_17 
REMARK    6  A    between atoms: C_9  and  O_13 
REMARK    7  A    between atoms: C_16  and  O_24 
REMARK    8  A    between atoms: C_18  and  O_22 
REMARK    9  A    between atoms: C_19  and  C_72 
REMARK   10  A    between atoms: C_20  and  O_23 
REMARK   11  A    between atoms: C_28  and  O_32 
REMARK   12  A    between atoms: C_30  and  O_33 
REMARK   13  A    between atoms: C_37  and  O_42 
REMARK   14  A    between atoms: C_39  and  O_43 
REMARK   15  A    between atoms: C_46  and  O_67 
REMARK   16  A    between atoms: C_48  and  O_65 
REMARK   17  A    between atoms: C_49  and  C_52 
REMARK   18  A    between atoms: C_50  and  O_66 
REMARK   19  A    between atoms: C_52  and  O_60 
REMARK   20  A    between atoms: C_54  and  O_60 
REMARK   21  A    between atoms: C_72  and  O_73 
ROOT
HETATM    1  C   UNK     0     -28.761 -19.101 -18.208  0.00  0.00     0.058 A 
HETATM    2  C   UNK     0     -28.657 -18.437 -19.422  0.00  0.00     0.060 A 
HETATM    3  C   UNK     0     -28.519 -20.460 -18.122  0.00  0.00     0.102 A 
HETATM    4  C   UNK     0     -28.301 -19.148 -20.576  0.00  0.00     0.127 A 
HETATM    5  C   UNK     0     -28.166 -21.166 -19.256  0.00  0.00     0.135 A 
HETATM    6  C   UNK     0     -28.058 -20.512 -20.471  0.00  0.00     0.137 A 
HETATM    7  C   UNK     0     -27.631 -16.078 -24.399  0.00  0.00     0.114 A 
HETATM    8  C   UNK     0     -28.161 -14.929 -23.817  0.00  0.00     0.030 A 
HETATM    9  C   UNK     0     -27.633 -17.298 -23.740  0.00  0.00     0.134 A 
HETATM   10  C   UNK     0     -28.701 -15.042 -22.530  0.00  0.00     0.059 A 
HETATM   11  C   UNK     0     -28.170 -17.404 -22.471  0.00  0.00     0.116 A 
HETATM   12  C   UNK     0     -28.697 -16.269 -21.892  0.00  0.00     0.329 A 
HETATM   13  O   UNK     0     -28.175 -18.632 -21.850  0.00  0.00    -0.304 OA
HETATM   14  C   UNK     0     -29.297 -13.948 -21.755  0.00  0.00     0.295 C 
HETATM   15  C   UNK     0     -29.784  -5.816 -21.517  0.00  0.00     0.026 A 
HETATM   16  C   UNK     0     -30.035  -6.955 -20.755  0.00  0.00     0.006 A 
HETATM   17  C   UNK     0     -29.445  -5.889 -22.855  0.00  0.00     0.111 A 
HETATM   18  C   UNK     0     -29.928  -8.204 -21.393  0.00  0.00     0.054 A 
HETATM   19  C   UNK     0     -29.343  -7.120 -23.469  0.00  0.00     0.100 A 
HETATM   20  C   UNK     0     -29.584  -8.266 -22.736  0.00  0.00     0.058 A 
HETATM   21  O   UNK     0     -29.885  -4.593 -20.928  0.00  0.00     0.000 OA
HETATM   22  C   UNK     0     -30.988  -5.400 -19.091  0.00  0.00     0.026 A 
HETATM   23  C   UNK     0     -30.425  -6.658 -19.303  0.00  0.00     0.006 A 
HETATM   24  C   UNK     0     -31.361  -4.969 -17.830  0.00  0.00     0.111 A 
HETATM   25  C   UNK     0     -30.253  -7.487 -18.185  0.00  0.00     0.054 A 
HETATM   26  C   UNK     0     -31.181  -5.796 -16.739  0.00  0.00     0.100 A 
HETATM   27  C   UNK     0     -30.629  -7.047 -16.924  0.00  0.00     0.058 A 
HETATM   28  C   UNK     0     -29.678  -8.821 -18.236  0.00  0.00     0.294 C 
HETATM   29  O   UNK     0     -31.169  -4.570 -20.152  0.00  0.00     0.000 OA
HETATM   30  O   UNK     0     -28.483  -8.954 -18.365  0.00  0.00    -0.259 OA
HETATM   31  C   UNK     0     -30.433 -12.278 -17.551  0.00  0.00     0.302 C 
HETATM   32  C   UNK     0     -29.740 -11.128 -18.239  0.00  0.00     0.220 C 
HETATM   33  O   UNK     0     -29.579 -13.428 -17.620  0.00  0.00    -0.348 OA
HETATM   34  C   UNK     0     -29.606 -11.488 -19.681  0.00  0.00     0.198 C 
HETATM   35  C   UNK     0     -29.149 -13.854 -18.930  0.00  0.00     0.181 C 
HETATM   36  C   UNK     0     -28.620 -12.644 -19.777  0.00  0.00     0.195 C 
HETATM   37  C   UNK     0     -28.013 -14.877 -18.775  0.00  0.00     0.212 C 
HETATM   38  O   UNK     0     -29.159 -10.352 -20.409  0.00  0.00    -0.306 OA
HETATM   39  O   UNK     0     -28.474 -13.044 -21.142  0.00  0.00    -0.307 OA
HETATM   40  O   UNK     0     -30.472  -9.925 -18.117  0.00  0.00    -0.304 OA
HETATM   41  O   UNK     0     -28.460 -16.185 -18.437  0.00  0.00    -0.328 OA
HETATM   42  C   UNK     0     -30.179  -9.503 -20.752  0.00  0.00     0.294 C 
HETATM   43  O   UNK     0     -31.319  -9.849 -20.549  0.00  0.00    -0.259 OA
HETATM   44  O   UNK     0     -30.496 -13.879 -21.607  0.00  0.00    -0.259 OA
HETATM   45  C   UNK     0     -28.933 -16.996 -19.423  0.00  0.00     0.179 C 
HETATM   46  O   UNK     0     -29.558 -16.514 -20.340  0.00  0.00    -0.383 OA
HETATM   47  H   UNK     0     -29.713  -3.756 -21.469  0.00  0.00     0.000 HD
HETATM   48  H   UNK     0     -31.570  -3.651 -20.013  0.00  0.00     0.000 HD
ENDROOT
BRANCH   3  49
HETATM   49  O   UNK     0     -28.628 -21.101 -16.927  0.00  0.00    -0.358 OA
HETATM   50  H   UNK     0     -28.184 -20.714 -16.103  0.00  0.00     0.217 HD
ENDBRANCH   3  49
BRANCH   5  51
HETATM   51  O   UNK     0     -27.927 -22.504 -19.178  0.00  0.00    -0.356 OA
HETATM   52  H   UNK     0     -27.007 -22.839 -18.923  0.00  0.00     0.218 HD
ENDBRANCH   5  51
BRANCH   6  53
HETATM   53  O   UNK     0     -27.713 -21.216 -21.582  0.00  0.00    -0.356 OA
HETATM   54  H   UNK     0     -27.402 -22.176 -21.497  0.00  0.00     0.218 HD
ENDBRANCH   6  53
BRANCH   9  55
HETATM   55  O   UNK     0     -27.115 -18.396 -24.353  0.00  0.00    -0.356 OA
HETATM   56  H   UNK     0     -26.588 -19.074 -23.817  0.00  0.00     0.218 HD
ENDBRANCH   9  55
BRANCH   7  57
HETATM   57  O   UNK     0     -27.110 -16.003 -25.653  0.00  0.00    -0.357 OA
HETATM   58  H   UNK     0     -27.720 -15.845 -26.445  0.00  0.00     0.217 HD
ENDBRANCH   7  57
BRANCH   8  59
HETATM   59  C   UNK     0     -28.113 -13.681 -24.684  0.00  0.00     0.023 A 
HETATM   60  C   UNK     0     -27.046 -12.825 -24.427  0.00  0.00     0.113 A 
HETATM   61  C   UNK     0     -26.875 -11.647 -25.131  0.00  0.00     0.133 A 
HETATM   62  C   UNK     0     -27.775 -11.300 -26.118  0.00  0.00     0.102 A 
HETATM   63  C   UNK     0     -28.846 -12.132 -26.385  0.00  0.00     0.049 A 
HETATM   64  C   UNK     0     -29.027 -13.313 -25.679  0.00  0.00    -0.018 A 
BRANCH  60  65
HETATM   65  O   UNK     0     -26.155 -13.153 -23.453  0.00  0.00    -0.357 OA
HETATM   66  H   UNK     0     -26.329 -13.949 -22.854  0.00  0.00     0.217 HD
ENDBRANCH  60  65
BRANCH  61  67
HETATM   67  O   UNK     0     -25.826 -10.831 -24.848  0.00  0.00    -0.356 OA
HETATM   68  H   UNK     0     -25.545 -10.118 -25.510  0.00  0.00     0.218 HD
ENDBRANCH  61  67
BRANCH  62  69
HETATM   69  O   UNK     0     -27.611 -10.145 -26.817  0.00  0.00    -0.358 OA
HETATM   70  H   UNK     0     -26.681  -9.813 -27.035  0.00  0.00     0.217 HD
ENDBRANCH  62  69
BRANCH  64  71
HETATM   71  C   UNK     0     -30.238 -14.125 -26.045  0.00  0.00     0.203 C 
BRANCH  71  72
HETATM   72  O   UNK     0     -29.843 -15.136 -26.962  0.00  0.00    -0.396 OA
HETATM   73  H   UNK     0     -29.944 -14.985 -27.957  0.00  0.00     0.209 HD
ENDBRANCH  71  72
ENDBRANCH  64  71
ENDBRANCH   8  59
BRANCH  31  74
HETATM   74  O   UNK     0     -30.689 -11.948 -16.194  0.00  0.00    -0.283 OA
BRANCH  74  75
HETATM   75  C   UNK     0     -29.756 -12.291 -15.272  0.00  0.00     0.295 C 
HETATM   76  O   UNK     0     -29.583 -13.457 -15.004  0.00  0.00    -0.259 OA
BRANCH  75  77
HETATM   77  C   UNK     0     -28.949 -11.261 -14.602  0.00  0.00     0.045 A 
HETATM   78  C   UNK     0     -27.798 -11.610 -13.913  0.00  0.00     0.057 A 
HETATM   79  C   UNK     0     -27.048 -10.631 -13.279  0.00  0.00     0.102 A 
HETATM   80  C   UNK     0     -27.452  -9.306 -13.331  0.00  0.00     0.132 A 
HETATM   81  C   UNK     0     -28.602  -8.958 -14.020  0.00  0.00     0.102 A 
HETATM   82  C   UNK     0     -29.349  -9.935 -14.657  0.00  0.00     0.057 A 
BRANCH  79  83
HETATM   83  O   UNK     0     -25.916 -10.969 -12.603  0.00  0.00    -0.358 OA
HETATM   84  H   UNK     0     -25.063 -10.446 -12.751  0.00  0.00     0.217 HD
ENDBRANCH  79  83
BRANCH  80  85
HETATM   85  O   UNK     0     -26.720  -8.347 -12.702  0.00  0.00    -0.356 OA
HETATM   86  H   UNK     0     -25.726  -8.271 -12.879  0.00  0.00     0.218 HD
ENDBRANCH  80  85
BRANCH  81  87
HETATM   87  O   UNK     0     -28.999  -7.659 -14.069  0.00  0.00    -0.358 OA
HETATM   88  H   UNK     0     -28.353  -6.923 -13.817  0.00  0.00     0.217 HD
ENDBRANCH  81  87
ENDBRANCH  75  77
ENDBRANCH  74  75
ENDBRANCH  31  74
BRANCH  19  89
HETATM   89  O   UNK     0     -29.012  -7.199 -24.786  0.00  0.00    -0.358 OA
HETATM   90  H   UNK     0     -28.136  -7.625 -25.064  0.00  0.00     0.217 HD
ENDBRANCH  19  89
BRANCH  26  91
HETATM   91  O   UNK     0     -31.538  -5.378 -15.495  0.00  0.00    -0.358 OA
HETATM   92  H   UNK     0     -31.142  -5.824 -14.679  0.00  0.00     0.217 HD
ENDBRANCH  26  91
BRANCH  17  93
HETATM   93  O   UNK     0     -29.218  -4.752 -23.566  0.00  0.00    -0.357 OA
HETATM   94  H   UNK     0     -29.223  -4.778 -24.578  0.00  0.00     0.217 HD
ENDBRANCH  17  93
BRANCH  24  95
HETATM   95  O   UNK     0     -31.901  -3.731 -17.662  0.00  0.00    -0.357 OA
HETATM   96  H   UNK     0     -31.783  -3.027 -18.380  0.00  0.00     0.217 HD
ENDBRANCH  24  95
TORSDOF 21
ENDMDL
MODEL 9
REMARK VINA RESULT:      -7.3     27.144     33.531
REMARK  21 active torsions:
REMARK  status: ('A' for Active; 'I' for Inactive)
REMARK    1  A    between atoms: C_3  and  O_78 
REMARK    2  A    between atoms: C_5  and  O_77 
REMARK    3  A    between atoms: C_6  and  O_76 
REMARK    4  A    between atoms: C_7  and  O_15 
REMARK    5  A    between atoms: C_8  and  C_17 
REMARK    6  A    between atoms: C_9  and  O_13 
REMARK    7  A    between atoms: C_16  and  O_24 
REMARK    8  A    between atoms: C_18  and  O_22 
REMARK    9  A    between atoms: C_19  and  C_72 
REMARK   10  A    between atoms: C_20  and  O_23 
REMARK   11  A    between atoms: C_28  and  O_32 
REMARK   12  A    between atoms: C_30  and  O_33 
REMARK   13  A    between atoms: C_37  and  O_42 
REMARK   14  A    between atoms: C_39  and  O_43 
REMARK   15  A    between atoms: C_46  and  O_67 
REMARK   16  A    between atoms: C_48  and  O_65 
REMARK   17  A    between atoms: C_49  and  C_52 
REMARK   18  A    between atoms: C_50  and  O_66 
REMARK   19  A    between atoms: C_52  and  O_60 
REMARK   20  A    between atoms: C_54  and  O_60 
REMARK   21  A    between atoms: C_72  and  O_73 
ROOT
HETATM    1  C   UNK     0     -27.854 -15.690 -23.596  0.00  0.00     0.058 A 
HETATM    2  C   UNK     0     -27.902 -15.160 -22.315  0.00  0.00     0.060 A 
HETATM    3  C   UNK     0     -27.465 -17.001 -23.806  0.00  0.00     0.102 A 
HETATM    4  C   UNK     0     -27.555 -15.960 -21.217  0.00  0.00     0.127 A 
HETATM    5  C   UNK     0     -27.123 -17.795 -22.728  0.00  0.00     0.135 A 
HETATM    6  C   UNK     0     -27.170 -17.275 -21.446  0.00  0.00     0.137 A 
HETATM    7  C   UNK     0     -28.439 -13.592 -16.963  0.00  0.00     0.114 A 
HETATM    8  C   UNK     0     -28.678 -12.327 -17.494  0.00  0.00     0.030 A 
HETATM    9  C   UNK     0     -28.069 -14.662 -17.763  0.00  0.00     0.134 A 
HETATM   10  C   UNK     0     -28.532 -12.164 -18.877  0.00  0.00     0.059 A 
HETATM   11  C   UNK     0     -27.925 -14.495 -19.127  0.00  0.00     0.116 A 
HETATM   12  C   UNK     0     -28.158 -13.244 -19.656  0.00  0.00     0.329 A 
HETATM   13  O   UNK     0     -27.537 -15.571 -19.892  0.00  0.00    -0.304 OA
HETATM   14  C   UNK     0     -28.744 -10.915 -19.618  0.00  0.00     0.295 C 
HETATM   15  C   UNK     0     -32.095  -3.526 -18.850  0.00  0.00     0.026 A 
HETATM   16  C   UNK     0     -31.580  -4.406 -19.798  0.00  0.00     0.006 A 
HETATM   17  C   UNK     0     -31.971  -3.757 -17.492  0.00  0.00     0.111 A 
HETATM   18  C   UNK     0     -30.923  -5.559 -19.332  0.00  0.00     0.054 A 
HETATM   19  C   UNK     0     -31.325  -4.891 -17.046  0.00  0.00     0.100 A 
HETATM   20  C   UNK     0     -30.807  -5.782 -17.966  0.00  0.00     0.058 A 
HETATM   21  O   UNK     0     -32.731  -2.399 -19.271  0.00  0.00     0.000 OA
HETATM   22  C   UNK     0     -31.949  -2.578 -21.416  0.00  0.00     0.026 A 
HETATM   23  C   UNK     0     -31.794  -3.953 -21.247  0.00  0.00     0.006 A 
HETATM   24  C   UNK     0     -32.185  -2.016 -22.659  0.00  0.00     0.111 A 
HETATM   25  C   UNK     0     -31.877  -4.759 -22.391  0.00  0.00     0.054 A 
HETATM   26  C   UNK     0     -32.269  -2.824 -23.774  0.00  0.00     0.100 A 
HETATM   27  C   UNK     0     -32.115  -4.188 -23.633  0.00  0.00     0.058 A 
HETATM   28  C   UNK     0     -31.742  -6.207 -22.384  0.00  0.00     0.294 C 
HETATM   29  O   UNK     0     -31.875  -1.766 -20.328  0.00  0.00     0.000 OA
HETATM   30  O   UNK     0     -32.657  -6.892 -21.985  0.00  0.00    -0.259 OA
HETATM   31  C   UNK     0     -29.727  -8.888 -23.701  0.00  0.00     0.302 C 
HETATM   32  C   UNK     0     -30.642  -8.208 -22.713  0.00  0.00     0.220 C 
HETATM   33  O   UNK     0     -29.907 -10.306 -23.583  0.00  0.00    -0.348 OA
HETATM   34  C   UNK     0     -30.185  -8.594 -21.346  0.00  0.00     0.198 C 
HETATM   35  C   UNK     0     -29.707 -10.891 -22.279  0.00  0.00     0.181 C 
HETATM   36  C   UNK     0     -30.466 -10.081 -21.169  0.00  0.00     0.195 C 
HETATM   37  C   UNK     0     -30.246 -12.330 -22.288  0.00  0.00     0.212 C 
HETATM   38  O   UNK     0     -30.873  -7.810 -20.381  0.00  0.00    -0.306 OA
HETATM   39  O   UNK     0     -30.023 -10.508 -19.879  0.00  0.00    -0.307 OA
HETATM   40  O   UNK     0     -30.604  -6.802 -22.845  0.00  0.00    -0.304 OA
HETATM   41  O   UNK     0     -29.369 -13.268 -22.902  0.00  0.00    -0.328 OA
HETATM   42  C   UNK     0     -30.301  -6.580 -20.187  0.00  0.00     0.294 C 
HETATM   43  O   UNK     0     -29.238  -6.343 -20.709  0.00  0.00    -0.259 OA
HETATM   44  O   UNK     0     -27.804 -10.285 -20.045  0.00  0.00    -0.259 OA
HETATM   45  C   UNK     0     -28.324 -13.761 -22.183  0.00  0.00     0.179 C 
HETATM   46  O   UNK     0     -27.756 -13.043 -21.391  0.00  0.00    -0.383 OA
HETATM   47  H   UNK     0     -33.105  -1.746 -18.595  0.00  0.00     0.000 HD
HETATM   48  H   UNK     0     -31.993  -0.766 -20.435  0.00  0.00     0.000 HD
ENDROOT
BRANCH   3  49
HETATM   49  O   UNK     0     -27.419 -17.508 -25.067  0.00  0.00    -0.358 OA
HETATM   50  H   UNK     0     -26.832 -18.307 -25.270  0.00  0.00     0.217 HD
ENDBRANCH   3  49
BRANCH   5  51
HETATM   51  O   UNK     0     -26.739 -19.085 -22.927  0.00  0.00    -0.356 OA
HETATM   52  H   UNK     0     -26.593 -19.697 -22.135  0.00  0.00     0.218 HD
ENDBRANCH   5  51
BRANCH   6  53
HETATM   53  O   UNK     0     -26.829 -18.064 -20.391  0.00  0.00    -0.356 OA
HETATM   54  H   UNK     0     -27.274 -18.965 -20.268  0.00  0.00     0.218 HD
ENDBRANCH   6  53
BRANCH   9  55
HETATM   55  O   UNK     0     -27.835 -15.878 -17.198  0.00  0.00    -0.356 OA
HETATM   56  H   UNK     0     -27.580 -15.941 -16.220  0.00  0.00     0.218 HD
ENDBRANCH   9  55
BRANCH   7  57
HETATM   57  O   UNK     0     -28.561 -13.779 -15.621  0.00  0.00    -0.357 OA
HETATM   58  H   UNK     0     -29.335 -14.318 -15.255  0.00  0.00     0.217 HD
ENDBRANCH   7  57
BRANCH   8  59
HETATM   59  C   UNK     0     -29.042 -11.255 -16.479  0.00  0.00     0.023 A 
HETATM   60  C   UNK     0     -27.967 -10.712 -15.783  0.00  0.00     0.113 A 
HETATM   61  C   UNK     0     -28.144  -9.732 -14.823  0.00  0.00     0.133 A 
HETATM   62  C   UNK     0     -29.413  -9.268 -14.541  0.00  0.00     0.102 A 
HETATM   63  C   UNK     0     -30.496  -9.798 -15.216  0.00  0.00     0.049 A 
HETATM   64  C   UNK     0     -30.326 -10.786 -16.177  0.00  0.00    -0.018 A 
BRANCH  60  65
HETATM   65  O   UNK     0     -26.711 -11.165 -16.047  0.00  0.00    -0.357 OA
HETATM   66  H   UNK     0     -26.227 -10.857 -16.880  0.00  0.00     0.217 HD
ENDBRANCH  60  65
BRANCH  61  67
HETATM   67  O   UNK     0     -27.071  -9.230 -14.156  0.00  0.00    -0.356 OA
HETATM   68  H   UNK     0     -26.313  -8.796 -14.667  0.00  0.00     0.218 HD
ENDBRANCH  61  67
BRANCH  62  69
HETATM   69  O   UNK     0     -29.594  -8.302 -13.602  0.00  0.00    -0.358 OA
HETATM   70  H   UNK     0     -29.298  -7.353 -13.788  0.00  0.00     0.217 HD
ENDBRANCH  62  69
BRANCH  64  71
HETATM   71  C   UNK     0     -31.580 -11.298 -16.829  0.00  0.00     0.203 C 
BRANCH  71  72
HETATM   72  O   UNK     0     -31.917 -10.428 -17.901  0.00  0.00    -0.396 OA
HETATM   73  H   UNK     0     -31.752 -10.715 -18.858  0.00  0.00     0.209 HD
ENDBRANCH  71  72
ENDBRANCH  64  71
ENDBRANCH   8  59
BRANCH  31  74
HETATM   74  O   UNK     0     -30.042  -8.471 -25.021  0.00  0.00    -0.283 OA
BRANCH  74  75
HETATM   75  C   UNK     0     -29.045  -8.464 -25.939  0.00  0.00     0.295 C 
HETATM   76  O   UNK     0     -29.283  -8.786 -27.080  0.00  0.00    -0.259 OA
BRANCH  75  77
HETATM   77  C   UNK     0     -27.681  -8.065 -25.564  0.00  0.00     0.045 A 
HETATM   78  C   UNK     0     -26.757  -9.017 -25.160  0.00  0.00     0.057 A 
HETATM   79  C   UNK     0     -25.476  -8.627 -24.802  0.00  0.00     0.102 A 
HETATM   80  C   UNK     0     -25.120  -7.288 -24.844  0.00  0.00     0.132 A 
HETATM   81  C   UNK     0     -26.044  -6.338 -25.248  0.00  0.00     0.102 A 
HETATM   82  C   UNK     0     -27.323  -6.727 -25.610  0.00  0.00     0.057 A 
BRANCH  79  83
HETATM   83  O   UNK     0     -24.565  -9.559 -24.407  0.00  0.00    -0.358 OA
HETATM   84  H   UNK     0     -24.269 -10.281 -25.050  0.00  0.00     0.217 HD
ENDBRANCH  79  83
BRANCH  80  85
HETATM   85  O   UNK     0     -23.865  -6.906 -24.485  0.00  0.00    -0.356 OA
HETATM   86  H   UNK     0     -23.221  -7.583 -24.095  0.00  0.00     0.218 HD
ENDBRANCH  80  85
BRANCH  81  87
HETATM   87  O   UNK     0     -25.696  -5.025 -25.287  0.00  0.00    -0.358 OA
HETATM   88  H   UNK     0     -25.382  -4.559 -24.445  0.00  0.00     0.217 HD
ENDBRANCH  81  87
ENDBRANCH  75  77
ENDBRANCH  74  75
ENDBRANCH  31  74
BRANCH  19  89
HETATM   89  O   UNK     0     -31.199  -5.124 -15.712  0.00  0.00    -0.358 OA
HETATM   90  H   UNK     0     -31.640  -4.503 -15.046  0.00  0.00     0.217 HD
ENDBRANCH  19  89
BRANCH  26  91
HETATM   91  O   UNK     0     -32.507  -2.282 -24.999  0.00  0.00    -0.358 OA
HETATM   92  H   UNK     0     -32.858  -1.337 -25.073  0.00  0.00     0.217 HD
ENDBRANCH  26  91
BRANCH  17  93
HETATM   93  O   UNK     0     -32.480  -2.867 -16.598  0.00  0.00    -0.357 OA
HETATM   94  H   UNK     0     -33.242  -3.140 -15.989  0.00  0.00     0.217 HD
ENDBRANCH  17  93
BRANCH  24  95
HETATM   95  O   UNK     0     -32.339  -0.670 -22.782  0.00  0.00    -0.357 OA
HETATM   96  H   UNK     0     -32.935  -0.168 -22.137  0.00  0.00     0.217 HD
ENDBRANCH  24  95
TORSDOF 21
ENDMDL
MODEL 10
REMARK VINA RESULT:      -7.3     30.073     33.693
REMARK  21 active torsions:
REMARK  status: ('A' for Active; 'I' for Inactive)
REMARK    1  A    between atoms: C_3  and  O_78 
REMARK    2  A    between atoms: C_5  and  O_77 
REMARK    3  A    between atoms: C_6  and  O_76 
REMARK    4  A    between atoms: C_7  and  O_15 
REMARK    5  A    between atoms: C_8  and  C_17 
REMARK    6  A    between atoms: C_9  and  O_13 
REMARK    7  A    between atoms: C_16  and  O_24 
REMARK    8  A    between atoms: C_18  and  O_22 
REMARK    9  A    between atoms: C_19  and  C_72 
REMARK   10  A    between atoms: C_20  and  O_23 
REMARK   11  A    between atoms: C_28  and  O_32 
REMARK   12  A    between atoms: C_30  and  O_33 
REMARK   13  A    between atoms: C_37  and  O_42 
REMARK   14  A    between atoms: C_39  and  O_43 
REMARK   15  A    between atoms: C_46  and  O_67 
REMARK   16  A    between atoms: C_48  and  O_65 
REMARK   17  A    between atoms: C_49  and  C_52 
REMARK   18  A    between atoms: C_50  and  O_66 
REMARK   19  A    between atoms: C_52  and  O_60 
REMARK   20  A    between atoms: C_54  and  O_60 
REMARK   21  A    between atoms: C_72  and  O_73 
ROOT
HETATM    1  C   UNK     0     -31.076  -6.294 -16.738  0.00  0.00     0.058 A 
HETATM    2  C   UNK     0     -30.730  -6.625 -18.040  0.00  0.00     0.060 A 
HETATM    3  C   UNK     0     -31.533  -5.026 -16.427  0.00  0.00     0.102 A 
HETATM    4  C   UNK     0     -30.844  -5.665 -19.056  0.00  0.00     0.127 A 
HETATM    5  C   UNK     0     -31.650  -4.077 -17.424  0.00  0.00     0.135 A 
HETATM    6  C   UNK     0     -31.308  -4.398 -18.726  0.00  0.00     0.137 A 
HETATM    7  C   UNK     0     -29.930  -7.672 -23.485  0.00  0.00     0.114 A 
HETATM    8  C   UNK     0     -29.422  -8.891 -23.043  0.00  0.00     0.030 A 
HETATM    9  C   UNK     0     -30.298  -6.670 -22.602  0.00  0.00     0.134 A 
HETATM   10  C   UNK     0     -29.294  -9.079 -21.661  0.00  0.00     0.059 A 
HETATM   11  C   UNK     0     -30.168  -6.859 -21.239  0.00  0.00     0.116 A 
HETATM   12  C   UNK     0     -29.664  -8.064 -20.797  0.00  0.00     0.329 A 
HETATM   13  O   UNK     0     -30.524  -5.839 -20.388  0.00  0.00    -0.304 OA
HETATM   14  C   UNK     0     -28.787 -10.290 -21.006  0.00  0.00     0.295 C 
HETATM   15  C   UNK     0     -27.178 -18.144 -22.472  0.00  0.00     0.026 A 
HETATM   16  C   UNK     0     -27.328 -17.228 -21.434  0.00  0.00     0.006 A 
HETATM   17  C   UNK     0     -27.128 -17.749 -23.796  0.00  0.00     0.111 A 
HETATM   18  C   UNK     0     -27.434 -15.867 -21.773  0.00  0.00     0.054 A 
HETATM   19  C   UNK     0     -27.234 -16.412 -24.117  0.00  0.00     0.100 A 
HETATM   20  C   UNK     0     -27.386 -15.482 -23.106  0.00  0.00     0.058 A 
HETATM   21  O   UNK     0     -27.067 -19.467 -22.174  0.00  0.00     0.000 OA
HETATM   22  C   UNK     0     -26.667 -19.088 -19.951  0.00  0.00     0.026 A 
HETATM   23  C   UNK     0     -27.328 -17.863 -20.039  0.00  0.00     0.006 A 
HETATM   24  C   UNK     0     -26.608 -19.805 -18.769  0.00  0.00     0.111 A 
HETATM   25  C   UNK     0     -27.933 -17.370 -18.874  0.00  0.00     0.054 A 
HETATM   26  C   UNK     0     -27.214 -19.307 -17.633  0.00  0.00     0.100 A 
HETATM   27  C   UNK     0     -27.871 -18.095 -17.693  0.00  0.00     0.058 A 
HETATM   28  C   UNK     0     -28.662 -16.115 -18.800  0.00  0.00     0.294 C 
HETATM   29  O   UNK     0     -26.069 -19.597 -21.061  0.00  0.00     0.000 OA
HETATM   30  O   UNK     0     -29.778 -16.042 -19.263  0.00  0.00    -0.259 OA
HETATM   31  C   UNK     0     -28.660 -12.911 -17.151  0.00  0.00     0.302 C 
HETATM   32  C   UNK     0     -28.948 -13.890 -18.262  0.00  0.00     0.220 C 
HETATM   33  O   UNK     0     -29.621 -11.849 -17.221  0.00  0.00    -0.348 OA
HETATM   34  C   UNK     0     -28.718 -13.177 -19.552  0.00  0.00     0.198 C 
HETATM   35  C   UNK     0     -29.719 -11.128 -18.468  0.00  0.00     0.181 C 
HETATM   36  C   UNK     0     -29.797 -12.111 -19.689  0.00  0.00     0.195 C 
HETATM   37  C   UNK     0     -30.991 -10.267 -18.450  0.00  0.00     0.212 C 
HETATM   38  O   UNK     0     -28.763 -14.112 -20.621  0.00  0.00    -0.306 OA
HETATM   39  O   UNK     0     -29.606 -11.380 -20.903  0.00  0.00    -0.307 OA
HETATM   40  O   UNK     0     -28.110 -15.025 -18.192  0.00  0.00    -0.304 OA
HETATM   41  O   UNK     0     -30.860  -9.063 -17.703  0.00  0.00    -0.328 OA
HETATM   42  C   UNK     0     -27.574 -14.765 -20.810  0.00  0.00     0.294 C 
HETATM   43  O   UNK     0     -26.604 -14.402 -20.187  0.00  0.00    -0.259 OA
HETATM   44  O   UNK     0     -27.684 -10.307 -20.510  0.00  0.00    -0.259 OA
HETATM   45  C   UNK     0     -30.253  -7.991 -18.281  0.00  0.00     0.179 C 
HETATM   46  O   UNK     0     -29.327  -8.170 -19.040  0.00  0.00    -0.383 OA
HETATM   47  H   UNK     0     -26.951 -20.145 -22.916  0.00  0.00     0.000 HD
HETATM   48  H   UNK     0     -25.592 -20.489 -21.015  0.00  0.00     0.000 HD
ENDROOT
BRANCH   3  49
HETATM   49  O   UNK     0     -31.866  -4.714 -15.146  0.00  0.00    -0.358 OA
HETATM   50  H   UNK     0     -32.833  -4.541 -14.902  0.00  0.00     0.217 HD
ENDBRANCH   3  49
BRANCH   5  51
HETATM   51  O   UNK     0     -32.098  -2.827 -17.125  0.00  0.00    -0.356 OA
HETATM   52  H   UNK     0     -33.007  -2.525 -17.452  0.00  0.00     0.218 HD
ENDBRANCH   5  51
BRANCH   6  53
HETATM   53  O   UNK     0     -31.424  -3.455 -19.700  0.00  0.00    -0.356 OA
HETATM   54  H   UNK     0     -31.895  -3.679 -20.568  0.00  0.00     0.218 HD
ENDBRANCH   6  53
BRANCH   9  55
HETATM   55  O   UNK     0     -30.779  -5.491 -23.081  0.00  0.00    -0.356 OA
HETATM   56  H   UNK     0     -30.989  -4.733 -22.444  0.00  0.00     0.218 HD
ENDBRANCH   9  55
BRANCH   7  57
HETATM   57  O   UNK     0     -30.055  -7.456 -24.822  0.00  0.00    -0.357 OA
HETATM   58  H   UNK     0     -30.151  -6.511 -25.174  0.00  0.00     0.217 HD
ENDBRANCH   7  57
BRANCH   8  59
HETATM   59  C   UNK     0     -29.034  -9.870 -24.139  0.00  0.00     0.023 A 
HETATM   60  C   UNK     0     -27.709  -9.796 -24.555  0.00  0.00     0.113 A 
HETATM   61  C   UNK     0     -27.212 -10.619 -25.549  0.00  0.00     0.133 A 
HETATM   62  C   UNK     0     -28.040 -11.546 -26.151  0.00  0.00     0.102 A 
HETATM   63  C   UNK     0     -29.363 -11.632 -25.758  0.00  0.00     0.049 A 
HETATM   64  C   UNK     0     -29.869 -10.805 -24.765  0.00  0.00    -0.018 A 
BRANCH  60  65
HETATM   65  O   UNK     0     -26.883  -8.884 -23.973  0.00  0.00    -0.357 OA
HETATM   66  H   UNK     0     -26.782  -7.963 -24.378  0.00  0.00     0.217 HD
ENDBRANCH  60  65
BRANCH  61  67
HETATM   67  O   UNK     0     -25.913 -10.514 -25.936  0.00  0.00    -0.356 OA
HETATM   68  H   UNK     0     -25.241 -10.054 -25.335  0.00  0.00     0.218 HD
ENDBRANCH  61  67
BRANCH  62  69
HETATM   69  O   UNK     0     -27.558 -12.361 -27.126  0.00  0.00    -0.358 OA
HETATM   70  H   UNK     0     -28.158 -12.649 -27.888  0.00  0.00     0.217 HD
ENDBRANCH  62  69
BRANCH  64  71
HETATM   71  C   UNK     0     -31.326 -10.978 -24.438  0.00  0.00     0.203 C 
BRANCH  71  72
HETATM   72  O   UNK     0     -31.432 -11.742 -23.245  0.00  0.00    -0.396 OA
HETATM   73  H   UNK     0     -30.793 -11.575 -22.478  0.00  0.00     0.209 HD
ENDBRANCH  71  72
ENDBRANCH  64  71
ENDBRANCH   8  59
BRANCH  31  74
HETATM   74  O   UNK     0     -28.755 -13.563 -15.894  0.00  0.00    -0.283 OA
BRANCH  74  75
HETATM   75  C   UNK     0     -27.737 -13.395 -15.014  0.00  0.00     0.295 C 
HETATM   76  O   UNK     0     -27.186 -12.322 -14.938  0.00  0.00    -0.259 OA
BRANCH  75  77
HETATM   77  C   UNK     0     -27.302 -14.500 -14.149  0.00  0.00     0.045 A 
HETATM   78  C   UNK     0     -26.741 -14.241 -12.908  0.00  0.00     0.057 A 
HETATM   79  C   UNK     0     -26.328 -15.292 -12.103  0.00  0.00     0.102 A 
HETATM   80  C   UNK     0     -26.472 -16.599 -12.540  0.00  0.00     0.132 A 
HETATM   81  C   UNK     0     -27.033 -16.857 -13.781  0.00  0.00     0.102 A 
HETATM   82  C   UNK     0     -27.450 -15.808 -14.583  0.00  0.00     0.057 A 
BRANCH  79  83
HETATM   83  O   UNK     0     -25.778 -15.042 -10.883  0.00  0.00    -0.358 OA
HETATM   84  H   UNK     0     -25.663 -15.794 -10.216  0.00  0.00     0.217 HD
ENDBRANCH  79  83
BRANCH  80  85
HETATM   85  O   UNK     0     -26.059 -17.630 -11.754  0.00  0.00    -0.356 OA
HETATM   86  H   UNK     0     -26.537 -18.522 -11.797  0.00  0.00     0.218 HD
ENDBRANCH  80  85
BRANCH  81  87
HETATM   87  O   UNK     0     -27.173 -18.139 -14.210  0.00  0.00    -0.358 OA
HETATM   88  H   UNK     0     -27.221 -18.895 -13.540  0.00  0.00     0.217 HD
ENDBRANCH  81  87
ENDBRANCH  75  77
ENDBRANCH  74  75
ENDBRANCH  31  74
BRANCH  19  89
HETATM   89  O   UNK     0     -27.185 -16.017 -25.417  0.00  0.00    -0.358 OA
HETATM   90  H   UNK     0     -26.973 -16.690 -26.143  0.00  0.00     0.217 HD
ENDBRANCH  19  89
BRANCH  26  91
HETATM   91  O   UNK     0     -27.167 -20.007 -16.467  0.00  0.00    -0.358 OA
HETATM   92  H   UNK     0     -26.318 -20.486 -16.199  0.00  0.00     0.217 HD
ENDBRANCH  26  91
BRANCH  17  93
HETATM   93  O   UNK     0     -26.971 -18.676 -24.781  0.00  0.00    -0.357 OA
HETATM   94  H   UNK     0     -27.739 -18.884 -25.407  0.00  0.00     0.217 HD
ENDBRANCH  17  93
BRANCH  24  95
HETATM   95  O   UNK     0     -25.961 -21.001 -18.725  0.00  0.00    -0.357 OA
HETATM   96  H   UNK     0     -24.974 -21.034 -18.504  0.00  0.00     0.217 HD
ENDBRANCH  24  95
TORSDOF 21
ENDMDL
MODEL 11
REMARK VINA RESULT:      -7.3     26.527     32.921
REMARK  21 active torsions:
REMARK  status: ('A' for Active; 'I' for Inactive)
REMARK    1  A    between atoms: C_3  and  O_78 
REMARK    2  A    between atoms: C_5  and  O_77 
REMARK    3  A    between atoms: C_6  and  O_76 
REMARK    4  A    between atoms: C_7  and  O_15 
REMARK    5  A    between atoms: C_8  and  C_17 
REMARK    6  A    between atoms: C_9  and  O_13 
REMARK    7  A    between atoms: C_16  and  O_24 
REMARK    8  A    between atoms: C_18  and  O_22 
REMARK    9  A    between atoms: C_19  and  C_72 
REMARK   10  A    between atoms: C_20  and  O_23 
REMARK   11  A    between atoms: C_28  and  O_32 
REMARK   12  A    between atoms: C_30  and  O_33 
REMARK   13  A    between atoms: C_37  and  O_42 
REMARK   14  A    between atoms: C_39  and  O_43 
REMARK   15  A    between atoms: C_46  and  O_67 
REMARK   16  A    between atoms: C_48  and  O_65 
REMARK   17  A    between atoms: C_49  and  C_52 
REMARK   18  A    between atoms: C_50  and  O_66 
REMARK   19  A    between atoms: C_52  and  O_60 
REMARK   20  A    between atoms: C_54  and  O_60 
REMARK   21  A    between atoms: C_72  and  O_73 
ROOT
HETATM    1  C   UNK     0     -27.877 -14.597 -27.214  0.00  0.00     0.058 A 
HETATM    2  C   UNK     0     -27.901 -14.741 -25.835  0.00  0.00     0.060 A 
HETATM    3  C   UNK     0     -27.580 -15.672 -28.033  0.00  0.00     0.102 A 
HETATM    4  C   UNK     0     -27.623 -15.988 -25.260  0.00  0.00     0.127 A 
HETATM    5  C   UNK     0     -27.307 -16.904 -27.473  0.00  0.00     0.135 A 
HETATM    6  C   UNK     0     -27.331 -17.057 -26.097  0.00  0.00     0.137 A 
HETATM    7  C   UNK     0     -28.384 -15.883 -20.372  0.00  0.00     0.114 A 
HETATM    8  C   UNK     0     -28.526 -14.506 -20.229  0.00  0.00     0.030 A 
HETATM    9  C   UNK     0     -28.082 -16.464 -21.594  0.00  0.00     0.134 A 
HETATM   10  C   UNK     0     -28.354 -13.713 -21.371  0.00  0.00     0.059 A 
HETATM   11  C   UNK     0     -27.911 -15.677 -22.717  0.00  0.00     0.116 A 
HETATM   12  C   UNK     0     -28.049 -14.313 -22.579  0.00  0.00     0.329 A 
HETATM   13  O   UNK     0     -27.593 -16.281 -23.911  0.00  0.00    -0.304 OA
HETATM   14  C   UNK     0     -28.469 -12.250 -21.421  0.00  0.00     0.295 C 
HETATM   15  C   UNK     0     -31.295  -5.916 -17.143  0.00  0.00     0.026 A 
HETATM   16  C   UNK     0     -30.834  -6.269 -18.408  0.00  0.00     0.006 A 
HETATM   17  C   UNK     0     -31.203  -6.774 -16.063  0.00  0.00     0.111 A 
HETATM   18  C   UNK     0     -30.265  -7.547 -18.564  0.00  0.00     0.054 A 
HETATM   19  C   UNK     0     -30.644  -8.025 -16.228  0.00  0.00     0.100 A 
HETATM   20  C   UNK     0     -30.180  -8.402 -17.473  0.00  0.00     0.058 A 
HETATM   21  O   UNK     0     -31.845  -4.684 -16.961  0.00  0.00     0.000 OA
HETATM   22  C   UNK     0     -31.055  -3.871 -18.950  0.00  0.00     0.026 A 
HETATM   23  C   UNK     0     -30.999  -5.167 -19.460  0.00  0.00     0.006 A 
HETATM   24  C   UNK     0     -31.236  -2.770 -19.768  0.00  0.00     0.111 A 
HETATM   25  C   UNK     0     -31.127  -5.322 -20.848  0.00  0.00     0.054 A 
HETATM   26  C   UNK     0     -31.365  -2.940 -21.132  0.00  0.00     0.100 A 
HETATM   27  C   UNK     0     -31.310  -4.213 -21.661  0.00  0.00     0.058 A 
HETATM   28  C   UNK     0     -31.095  -6.603 -21.535  0.00  0.00     0.294 C 
HETATM   29  O   UNK     0     -30.935  -3.683 -17.609  0.00  0.00     0.000 OA
HETATM   30  O   UNK     0     -32.060  -7.332 -21.488  0.00  0.00    -0.259 OA
HETATM   31  C   UNK     0     -29.261  -8.460 -24.020  0.00  0.00     0.302 C 
HETATM   32  C   UNK     0     -30.136  -8.273 -22.805  0.00  0.00     0.220 C 
HETATM   33  O   UNK     0     -29.542  -9.747 -24.587  0.00  0.00    -0.348 OA
HETATM   34  C   UNK     0     -29.723  -9.295 -21.799  0.00  0.00     0.198 C 
HETATM   35  C   UNK     0     -29.399 -10.895 -23.725  0.00  0.00     0.181 C 
HETATM   36  C   UNK     0     -30.110 -10.663 -22.345  0.00  0.00     0.195 C 
HETATM   37  C   UNK     0     -30.038 -12.115 -24.405  0.00  0.00     0.212 C 
HETATM   38  O   UNK     0     -30.364  -9.022 -20.560  0.00  0.00    -0.306 OA
HETATM   39  O   UNK     0     -29.713 -11.683 -21.426  0.00  0.00    -0.307 OA
HETATM   40  O   UNK     0     -29.997  -6.981 -22.251  0.00  0.00    -0.304 OA
HETATM   41  O   UNK     0     -29.223 -12.703 -25.413  0.00  0.00    -0.328 OA
HETATM   42  C   UNK     0     -29.708  -8.076 -19.817  0.00  0.00     0.294 C 
HETATM   43  O   UNK     0     -28.625  -7.690 -20.188  0.00  0.00    -0.259 OA
HETATM   44  O   UNK     0     -27.482 -11.558 -21.519  0.00  0.00    -0.259 OA
HETATM   45  C   UNK     0     -28.224 -13.548 -25.042  0.00  0.00     0.179 C 
HETATM   46  O   UNK     0     -27.615 -13.336 -24.018  0.00  0.00    -0.383 OA
HETATM   47  H   UNK     0     -32.179  -4.410 -16.046  0.00  0.00     0.000 HD
HETATM   48  H   UNK     0     -30.980  -2.748 -17.223  0.00  0.00     0.000 HD
ENDROOT
BRANCH   3  49
HETATM   49  O   UNK     0     -27.556 -15.517 -29.384  0.00  0.00    -0.358 OA
HETATM   50  H   UNK     0     -27.253 -14.640 -29.788  0.00  0.00     0.217 HD
ENDBRANCH   3  49
BRANCH   5  51
HETATM   51  O   UNK     0     -27.013 -17.966 -28.272  0.00  0.00    -0.356 OA
HETATM   52  H   UNK     0     -26.531 -17.819 -29.150  0.00  0.00     0.218 HD
ENDBRANCH   5  51
BRANCH   6  53
HETATM   53  O   UNK     0     -27.058 -18.275 -25.555  0.00  0.00    -0.356 OA
HETATM   54  H   UNK     0     -26.098 -18.575 -25.439  0.00  0.00     0.218 HD
ENDBRANCH   6  53
BRANCH   9  55
HETATM   55  O   UNK     0     -27.941 -17.815 -21.682  0.00  0.00    -0.356 OA
HETATM   56  H   UNK     0     -28.316 -18.312 -22.480  0.00  0.00     0.218 HD
ENDBRANCH   9  55
BRANCH   7  57
HETATM   57  O   UNK     0     -28.533 -16.679 -19.279  0.00  0.00    -0.357 OA
HETATM   58  H   UNK     0     -28.694 -17.672 -19.395  0.00  0.00     0.217 HD
ENDBRANCH   7  57
BRANCH   8  59
HETATM   59  C   UNK     0     -28.824 -14.025 -18.818  0.00  0.00     0.023 A 
HETATM   60  C   UNK     0     -27.716 -13.600 -18.093  0.00  0.00     0.113 A 
HETATM   61  C   UNK     0     -27.830 -13.142 -16.793  0.00  0.00     0.133 A 
HETATM   62  C   UNK     0     -29.070 -13.098 -16.187  0.00  0.00     0.102 A 
HETATM   63  C   UNK     0     -30.184 -13.522 -16.886  0.00  0.00     0.049 A 
HETATM   64  C   UNK     0     -30.075 -13.988 -18.190  0.00  0.00    -0.018 A 
BRANCH  60  65
HETATM   65  O   UNK     0     -26.487 -13.643 -18.676  0.00  0.00    -0.357 OA
HETATM   66  H   UNK     0     -26.120 -12.826 -19.146  0.00  0.00     0.217 HD
ENDBRANCH  60  65
BRANCH  61  67
HETATM   67  O   UNK     0     -26.725 -12.741 -16.111  0.00  0.00    -0.356 OA
HETATM   68  H   UNK     0     -26.777 -11.953 -15.478  0.00  0.00     0.218 HD
ENDBRANCH  61  67
BRANCH  62  69
HETATM   69  O   UNK     0     -29.191 -12.645 -14.910  0.00  0.00    -0.358 OA
HETATM   70  H   UNK     0     -28.921 -13.237 -14.136  0.00  0.00     0.217 HD
ENDBRANCH  62  69
BRANCH  64  71
HETATM   71  C   UNK     0     -31.353 -14.441 -18.840  0.00  0.00     0.203 C 
BRANCH  71  72
HETATM   72  O   UNK     0     -31.458 -15.850 -18.696  0.00  0.00    -0.396 OA
HETATM   73  H   UNK     0     -32.269 -16.255 -18.245  0.00  0.00     0.209 HD
ENDBRANCH  71  72
ENDBRANCH  64  71
ENDBRANCH   8  59
BRANCH  31  74
HETATM   74  O   UNK     0     -29.532  -7.444 -24.972  0.00  0.00    -0.283 OA
BRANCH  74  75
HETATM   75  C   UNK     0     -28.559  -7.138 -25.867  0.00  0.00     0.295 C 
HETATM   76  O   UNK     0     -28.862  -6.858 -27.003  0.00  0.00    -0.259 OA
BRANCH  75  77
HETATM   77  C   UNK     0     -27.145  -7.137 -25.467  0.00  0.00     0.045 A 
HETATM   78  C   UNK     0     -26.523  -8.316 -25.087  0.00  0.00     0.057 A 
HETATM   79  C   UNK     0     -25.190  -8.302 -24.706  0.00  0.00     0.102 A 
HETATM   80  C   UNK     0     -24.482  -7.111 -24.702  0.00  0.00     0.132 A 
HETATM   81  C   UNK     0     -25.104  -5.933 -25.083  0.00  0.00     0.102 A 
HETATM   82  C   UNK     0     -26.435  -5.947 -25.468  0.00  0.00     0.057 A 
BRANCH  79  83
HETATM   83  O   UNK     0     -24.575  -9.458 -24.333  0.00  0.00    -0.358 OA
HETATM   84  H   UNK     0     -24.401 -10.182 -25.018  0.00  0.00     0.217 HD
ENDBRANCH  79  83
BRANCH  80  85
HETATM   85  O   UNK     0     -23.176  -7.096 -24.321  0.00  0.00    -0.356 OA
HETATM   86  H   UNK     0     -22.550  -6.389 -24.686  0.00  0.00     0.218 HD
ENDBRANCH  80  85
BRANCH  81  87
HETATM   87  O   UNK     0     -24.410  -4.764 -25.077  0.00  0.00    -0.358 OA
HETATM   88  H   UNK     0     -24.894  -3.889 -24.923  0.00  0.00     0.217 HD
ENDBRANCH  81  87
ENDBRANCH  75  77
ENDBRANCH  74  75
ENDBRANCH  31  74
BRANCH  19  89
HETATM   89  O   UNK     0     -30.549  -8.873 -15.169  0.00  0.00    -0.358 OA
HETATM   90  H   UNK     0     -29.676  -9.351 -14.980  0.00  0.00     0.217 HD
ENDBRANCH  19  89
BRANCH  26  91
HETATM   91  O   UNK     0     -31.551  -1.865 -21.943  0.00  0.00    -0.358 OA
HETATM   92  H   UNK     0     -30.752  -1.376 -22.326  0.00  0.00     0.217 HD
ENDBRANCH  26  91
BRANCH  17  93
HETATM   93  O   UNK     0     -31.657  -6.387 -14.840  0.00  0.00    -0.357 OA
HETATM   94  H   UNK     0     -31.452  -5.457 -14.495  0.00  0.00     0.217 HD
ENDBRANCH  17  93
BRANCH  24  95
HETATM   95  O   UNK     0     -31.293  -1.520 -19.231  0.00  0.00    -0.357 OA
HETATM   96  H   UNK     0     -31.422  -0.717 -19.833  0.00  0.00     0.217 HD
ENDBRANCH  24  95
TORSDOF 21
ENDMDL
MODEL 12
REMARK VINA RESULT:      -7.3      3.235     13.133
REMARK  21 active torsions:
REMARK  status: ('A' for Active; 'I' for Inactive)
REMARK    1  A    between atoms: C_3  and  O_78 
REMARK    2  A    between atoms: C_5  and  O_77 
REMARK    3  A    between atoms: C_6  and  O_76 
REMARK    4  A    between atoms: C_7  and  O_15 
REMARK    5  A    between atoms: C_8  and  C_17 
REMARK    6  A    between atoms: C_9  and  O_13 
REMARK    7  A    between atoms: C_16  and  O_24 
REMARK    8  A    between atoms: C_18  and  O_22 
REMARK    9  A    between atoms: C_19  and  C_72 
REMARK   10  A    between atoms: C_20  and  O_23 
REMARK   11  A    between atoms: C_28  and  O_32 
REMARK   12  A    between atoms: C_30  and  O_33 
REMARK   13  A    between atoms: C_37  and  O_42 
REMARK   14  A    between atoms: C_39  and  O_43 
REMARK   15  A    between atoms: C_46  and  O_67 
REMARK   16  A    between atoms: C_48  and  O_65 
REMARK   17  A    between atoms: C_49  and  C_52 
REMARK   18  A    between atoms: C_50  and  O_66 
REMARK   19  A    between atoms: C_52  and  O_60 
REMARK   20  A    between atoms: C_54  and  O_60 
REMARK   21  A    between atoms: C_72  and  O_73 
ROOT
HETATM    1  C   UNK     0       9.107  -4.495 -20.723  0.00  0.00     0.058 A 
HETATM    2  C   UNK     0       7.920  -3.781 -20.806  0.00  0.00     0.060 A 
HETATM    3  C   UNK     0       9.680  -4.776 -19.496  0.00  0.00     0.102 A 
HETATM    4  C   UNK     0       7.290  -3.339 -19.634  0.00  0.00     0.127 A 
HETATM    5  C   UNK     0       9.063  -4.344 -18.337  0.00  0.00     0.135 A 
HETATM    6  C   UNK     0       7.878  -3.633 -18.410  0.00  0.00     0.137 A 
HETATM    7  C   UNK     0       2.887  -1.325 -20.654  0.00  0.00     0.114 A 
HETATM    8  C   UNK     0       3.024  -1.255 -22.038  0.00  0.00     0.030 A 
HETATM    9  C   UNK     0       3.913  -1.780 -19.840  0.00  0.00     0.134 A 
HETATM   10  C   UNK     0       4.243  -1.665 -22.593  0.00  0.00     0.059 A 
HETATM   11  C   UNK     0       5.115  -2.180 -20.392  0.00  0.00     0.116 A 
HETATM   12  C   UNK     0       5.256  -2.111 -21.762  0.00  0.00     0.329 A 
HETATM   13  O   UNK     0       6.122  -2.608 -19.558  0.00  0.00    -0.304 OA
HETATM   14  C   UNK     0       4.574  -1.669 -24.022  0.00  0.00     0.295 C 
HETATM   15  C   UNK     0       1.099  -1.211 -31.380  0.00  0.00     0.026 A 
HETATM   16  C   UNK     0       2.297  -1.537 -30.749  0.00  0.00     0.006 A 
HETATM   17  C   UNK     0       0.050  -0.619 -30.701  0.00  0.00     0.111 A 
HETATM   18  C   UNK     0       2.412  -1.248 -29.376  0.00  0.00     0.054 A 
HETATM   19  C   UNK     0       0.174  -0.342 -29.356  0.00  0.00     0.100 A 
HETATM   20  C   UNK     0       1.351  -0.657 -28.704  0.00  0.00     0.058 A 
HETATM   21  O   UNK     0       0.961  -1.473 -32.708  0.00  0.00     0.000 OA
HETATM   22  C   UNK     0       3.201  -1.821 -33.028  0.00  0.00     0.026 A 
HETATM   23  C   UNK     0       3.344  -2.155 -31.682  0.00  0.00     0.006 A 
HETATM   24  C   UNK     0       4.046  -2.326 -34.001  0.00  0.00     0.111 A 
HETATM   25  C   UNK     0       4.388  -3.025 -31.339  0.00  0.00     0.054 A 
HETATM   26  C   UNK     0       5.067  -3.185 -33.646  0.00  0.00     0.100 A 
HETATM   27  C   UNK     0       5.230  -3.527 -32.320  0.00  0.00     0.058 A 
HETATM   28  C   UNK     0       4.668  -3.473 -29.984  0.00  0.00     0.294 C 
HETATM   29  O   UNK     0       2.199  -0.980 -33.398  0.00  0.00     0.000 OA
HETATM   30  O   UNK     0       3.964  -4.315 -29.474  0.00  0.00    -0.259 OA
HETATM   31  C   UNK     0       7.217  -3.430 -27.437  0.00  0.00     0.302 C 
HETATM   32  C   UNK     0       5.811  -3.491 -27.980  0.00  0.00     0.220 C 
HETATM   33  O   UNK     0       7.237  -4.077 -26.157  0.00  0.00    -0.348 OA
HETATM   34  C   UNK     0       4.947  -2.684 -27.068  0.00  0.00     0.198 C 
HETATM   35  C   UNK     0       6.325  -3.584 -25.153  0.00  0.00     0.181 C 
HETATM   36  C   UNK     0       4.877  -3.415 -25.734  0.00  0.00     0.195 C 
HETATM   37  C   UNK     0       6.271  -4.586 -23.990  0.00  0.00     0.212 C 
HETATM   38  O   UNK     0       3.661  -2.530 -27.653  0.00  0.00    -0.306 OA
HETATM   39  O   UNK     0       4.077  -2.668 -24.814  0.00  0.00    -0.307 OA
HETATM   40  O   UNK     0       5.731  -2.971 -29.291  0.00  0.00    -0.304 OA
HETATM   41  O   UNK     0       7.381  -4.495 -23.103  0.00  0.00    -0.328 OA
HETATM   42  C   UNK     0       3.607  -1.502 -28.558  0.00  0.00     0.294 C 
HETATM   43  O   UNK     0       4.558  -0.765 -28.662  0.00  0.00    -0.259 OA
HETATM   44  O   UNK     0       5.323  -0.839 -24.484  0.00  0.00    -0.259 OA
HETATM   45  C   UNK     0       7.384  -3.526 -22.148  0.00  0.00     0.179 C 
HETATM   46  O   UNK     0       6.898  -2.446 -22.396  0.00  0.00    -0.383 OA
HETATM   47  H   UNK     0       0.099  -1.236 -33.183  0.00  0.00     0.000 HD
HETATM   48  H   UNK     0       2.078  -0.734 -34.372  0.00  0.00     0.000 HD
ENDROOT
BRANCH   3  49
HETATM   49  O   UNK     0      10.846  -5.473 -19.428  0.00  0.00    -0.358 OA
HETATM   50  H   UNK     0      10.906  -6.400 -19.832  0.00  0.00     0.217 HD
ENDBRANCH   3  49
BRANCH   5  51
HETATM   51  O   UNK     0       9.622  -4.616 -17.127  0.00  0.00    -0.356 OA
HETATM   52  H   UNK     0       9.693  -5.574 -16.806  0.00  0.00     0.218 HD
ENDBRANCH   5  51
BRANCH   6  53
HETATM   53  O   UNK     0       7.280  -3.210 -17.264  0.00  0.00    -0.356 OA
HETATM   54  H   UNK     0       7.210  -3.833 -16.469  0.00  0.00     0.218 HD
ENDBRANCH   6  53
BRANCH   9  55
HETATM   55  O   UNK     0       3.737  -1.819 -18.492  0.00  0.00    -0.356 OA
HETATM   56  H   UNK     0       4.246  -1.178 -17.896  0.00  0.00     0.218 HD
ENDBRANCH   9  55
BRANCH   7  57
HETATM   57  O   UNK     0       1.719  -0.924 -20.085  0.00  0.00    -0.357 OA
HETATM   58  H   UNK     0       1.410  -1.342 -19.217  0.00  0.00     0.217 HD
ENDBRANCH   7  57
BRANCH   8  59
HETATM   59  C   UNK     0       1.819  -0.703 -22.784  0.00  0.00     0.023 A 
HETATM   60  C   UNK     0       1.812   0.677 -22.952  0.00  0.00     0.113 A 
HETATM   61  C   UNK     0       0.777   1.324 -23.604  0.00  0.00     0.133 A 
HETATM   62  C   UNK     0      -0.279   0.593 -24.110  0.00  0.00     0.102 A 
HETATM   63  C   UNK     0      -0.295  -0.780 -23.948  0.00  0.00     0.049 A 
HETATM   64  C   UNK     0       0.737  -1.434 -23.289  0.00  0.00    -0.018 A 
BRANCH  60  65
HETATM   65  O   UNK     0       2.844   1.411 -22.454  0.00  0.00    -0.357 OA
HETATM   66  H   UNK     0       2.992   1.463 -21.455  0.00  0.00     0.217 HD
ENDBRANCH  60  65
BRANCH  61  67
HETATM   67  O   UNK     0       0.799   2.675 -23.744  0.00  0.00    -0.356 OA
HETATM   68  H   UNK     0       0.700   3.271 -22.931  0.00  0.00     0.218 HD
ENDBRANCH  61  67
BRANCH  62  69
HETATM   69  O   UNK     0      -1.297   1.221 -24.756  0.00  0.00    -0.358 OA
HETATM   70  H   UNK     0      -1.306   2.230 -24.826  0.00  0.00     0.217 HD
ENDBRANCH  62  69
BRANCH  64  71
HETATM   71  C   UNK     0       0.598  -2.925 -23.158  0.00  0.00     0.203 C 
BRANCH  71  72
HETATM   72  O   UNK     0       1.390  -3.542 -24.164  0.00  0.00    -0.396 OA
HETATM   73  H   UNK     0       1.193  -4.492 -24.452  0.00  0.00     0.209 HD
ENDBRANCH  71  72
ENDBRANCH  64  71
ENDBRANCH   8  59
BRANCH  31  74
HETATM   74  O   UNK     0       8.108  -4.090 -28.324  0.00  0.00    -0.283 OA
BRANCH  74  75
HETATM   75  C   UNK     0       8.599  -5.296 -27.948  0.00  0.00     0.295 C 
HETATM   76  O   UNK     0       9.704  -5.365 -27.463  0.00  0.00    -0.259 OA
BRANCH  75  77
HETATM   77  C   UNK     0       7.800  -6.518 -28.116  0.00  0.00     0.045 A 
HETATM   78  C   UNK     0       7.150  -6.772 -29.314  0.00  0.00     0.057 A 
HETATM   79  C   UNK     0       6.394  -7.925 -29.460  0.00  0.00     0.102 A 
HETATM   80  C   UNK     0       6.284  -8.820 -28.407  0.00  0.00     0.132 A 
HETATM   81  C   UNK     0       6.934  -8.566 -27.210  0.00  0.00     0.102 A 
HETATM   82  C   UNK     0       7.693  -7.417 -27.066  0.00  0.00     0.057 A 
BRANCH  79  83
HETATM   83  O   UNK     0       5.756  -8.178 -30.635  0.00  0.00    -0.358 OA
HETATM   84  H   UNK     0       6.192  -7.925 -31.512  0.00  0.00     0.217 HD
ENDBRANCH  79  83
BRANCH  80  85
HETATM   85  O   UNK     0       5.536  -9.947 -28.548  0.00  0.00    -0.356 OA
HETATM   86  H   UNK     0       5.827 -10.808 -28.099  0.00  0.00     0.218 HD
ENDBRANCH  80  85
BRANCH  81  87
HETATM   87  O   UNK     0       6.825  -9.443 -26.178  0.00  0.00    -0.358 OA
HETATM   88  H   UNK     0       6.018 -10.051 -26.113  0.00  0.00     0.217 HD
ENDBRANCH  81  87
ENDBRANCH  75  77
ENDBRANCH  74  75
ENDBRANCH  31  74
BRANCH  19  89
HETATM   89  O   UNK     0      -0.853   0.242 -28.682  0.00  0.00    -0.358 OA
HETATM   90  H   UNK     0      -1.637  -0.318 -28.370  0.00  0.00     0.217 HD
ENDBRANCH  19  89
BRANCH  26  91
HETATM   91  O   UNK     0       5.898  -3.692 -34.596  0.00  0.00    -0.358 OA
HETATM   92  H   UNK     0       5.660  -3.607 -35.575  0.00  0.00     0.217 HD
ENDBRANCH  26  91
BRANCH  17  93
HETATM   93  O   UNK     0      -1.100  -0.308 -31.358  0.00  0.00    -0.357 OA
HETATM   94  H   UNK     0      -1.936  -0.077 -30.834  0.00  0.00     0.217 HD
ENDBRANCH  17  93
BRANCH  24  95
HETATM   95  O   UNK     0       3.870  -1.982 -35.306  0.00  0.00    -0.357 OA
HETATM   96  H   UNK     0       4.060  -2.656 -36.036  0.00  0.00     0.217 HD
ENDBRANCH  24  95
TORSDOF 21
ENDMDL
MODEL 13
REMARK VINA RESULT:      -7.3     28.307     32.719
REMARK  21 active torsions:
REMARK  status: ('A' for Active; 'I' for Inactive)
REMARK    1  A    between atoms: C_3  and  O_78 
REMARK    2  A    between atoms: C_5  and  O_77 
REMARK    3  A    between atoms: C_6  and  O_76 
REMARK    4  A    between atoms: C_7  and  O_15 
REMARK    5  A    between atoms: C_8  and  C_17 
REMARK    6  A    between atoms: C_9  and  O_13 
REMARK    7  A    between atoms: C_16  and  O_24 
REMARK    8  A    between atoms: C_18  and  O_22 
REMARK    9  A    between atoms: C_19  and  C_72 
REMARK   10  A    between atoms: C_20  and  O_23 
REMARK   11  A    between atoms: C_28  and  O_32 
REMARK   12  A    between atoms: C_30  and  O_33 
REMARK   13  A    between atoms: C_37  and  O_42 
REMARK   14  A    between atoms: C_39  and  O_43 
REMARK   15  A    between atoms: C_46  and  O_67 
REMARK   16  A    between atoms: C_48  and  O_65 
REMARK   17  A    between atoms: C_49  and  C_52 
REMARK   18  A    between atoms: C_50  and  O_66 
REMARK   19  A    between atoms: C_52  and  O_60 
REMARK   20  A    between atoms: C_54  and  O_60 
REMARK   21  A    between atoms: C_72  and  O_73 
ROOT
HETATM    1  C   UNK     0     -33.476  -1.932 -21.555  0.00  0.00     0.058 A 
HETATM    2  C   UNK     0     -32.560  -2.671 -22.290  0.00  0.00     0.060 A 
HETATM    3  C   UNK     0     -34.006  -0.758 -22.060  0.00  0.00     0.102 A 
HETATM    4  C   UNK     0     -32.167  -2.228 -23.560  0.00  0.00     0.127 A 
HETATM    5  C   UNK     0     -33.623  -0.317 -23.312  0.00  0.00     0.135 A 
HETATM    6  C   UNK     0     -32.712  -1.049 -24.053  0.00  0.00     0.137 A 
HETATM    7  C   UNK     0     -29.300  -5.589 -25.788  0.00  0.00     0.114 A 
HETATM    8  C   UNK     0     -29.080  -6.414 -24.688  0.00  0.00     0.030 A 
HETATM    9  C   UNK     0     -30.027  -4.413 -25.687  0.00  0.00     0.134 A 
HETATM   10  C   UNK     0     -29.623  -6.017 -23.459  0.00  0.00     0.059 A 
HETATM   11  C   UNK     0     -30.558  -4.025 -24.472  0.00  0.00     0.116 A 
HETATM   12  C   UNK     0     -30.342  -4.838 -23.379  0.00  0.00     0.329 A 
HETATM   13  O   UNK     0     -31.258  -2.843 -24.398  0.00  0.00    -0.304 OA
HETATM   14  C   UNK     0     -29.504  -6.752 -22.195  0.00  0.00     0.295 C 
HETATM   15  C   UNK     0     -27.514 -14.078 -19.231  0.00  0.00     0.026 A 
HETATM   16  C   UNK     0     -28.123 -12.877 -18.875  0.00  0.00     0.006 A 
HETATM   17  C   UNK     0     -26.839 -14.232 -20.428  0.00  0.00     0.111 A 
HETATM   18  C   UNK     0     -28.035 -11.806 -19.783  0.00  0.00     0.054 A 
HETATM   19  C   UNK     0     -26.760 -13.175 -21.310  0.00  0.00     0.100 A 
HETATM   20  C   UNK     0     -27.357 -11.972 -20.983  0.00  0.00     0.058 A 
HETATM   21  O   UNK     0     -27.578 -15.130 -18.370  0.00  0.00     0.000 OA
HETATM   22  C   UNK     0     -28.269 -13.842 -16.608  0.00  0.00     0.026 A 
HETATM   23  C   UNK     0     -28.791 -12.903 -17.496  0.00  0.00     0.006 A 
HETATM   24  C   UNK     0     -28.787 -14.012 -15.336  0.00  0.00     0.111 A 
HETATM   25  C   UNK     0     -29.867 -12.121 -17.053  0.00  0.00     0.054 A 
HETATM   26  C   UNK     0     -29.849 -13.238 -14.916  0.00  0.00     0.100 A 
HETATM   27  C   UNK     0     -30.381 -12.299 -15.777  0.00  0.00     0.058 A 
HETATM   28  C   UNK     0     -30.526 -11.104 -17.856  0.00  0.00     0.294 C 
HETATM   29  O   UNK     0     -27.226 -14.618 -17.004  0.00  0.00     0.000 OA
HETATM   30  O   UNK     0     -31.289 -11.436 -18.735  0.00  0.00    -0.259 OA
HETATM   31  C   UNK     0     -31.253  -7.576 -17.951  0.00  0.00     0.302 C 
HETATM   32  C   UNK     0     -30.997  -8.947 -18.526  0.00  0.00     0.220 C 
HETATM   33  O   UNK     0     -32.051  -6.835 -18.885  0.00  0.00    -0.348 OA
HETATM   34  C   UNK     0     -30.174  -8.766 -19.757  0.00  0.00     0.198 C 
HETATM   35  C   UNK     0     -31.537  -6.693 -20.226  0.00  0.00     0.181 C 
HETATM   36  C   UNK     0     -31.044  -8.070 -20.795  0.00  0.00     0.195 C 
HETATM   37  C   UNK     0     -32.653  -6.159 -21.136  0.00  0.00     0.212 C 
HETATM   38  O   UNK     0     -29.724 -10.035 -20.212  0.00  0.00    -0.306 OA
HETATM   39  O   UNK     0     -30.291  -7.852 -21.991  0.00  0.00    -0.307 OA
HETATM   40  O   UNK     0     -30.310  -9.779 -17.614  0.00  0.00    -0.304 OA
HETATM   41  O   UNK     0     -32.872  -4.758 -21.015  0.00  0.00    -0.328 OA
HETATM   42  C   UNK     0     -28.596 -10.465 -19.563  0.00  0.00     0.294 C 
HETATM   43  O   UNK     0     -28.030  -9.707 -18.813  0.00  0.00    -0.259 OA
HETATM   44  O   UNK     0     -28.767  -6.359 -21.321  0.00  0.00    -0.259 OA
HETATM   45  C   UNK     0     -32.047  -3.902 -21.678  0.00  0.00     0.179 C 
HETATM   46  O   UNK     0     -30.876  -4.181 -21.800  0.00  0.00    -0.383 OA
HETATM   47  H   UNK     0     -27.135 -16.008 -18.610  0.00  0.00     0.000 HD
HETATM   48  H   UNK     0     -26.841 -15.310 -16.372  0.00  0.00     0.000 HD
ENDROOT
BRANCH   3  49
HETATM   49  O   UNK     0     -34.900  -0.040 -21.328  0.00  0.00    -0.358 OA
HETATM   50  H   UNK     0     -35.229  -0.397 -20.440  0.00  0.00     0.217 HD
ENDBRANCH   3  49
BRANCH   5  51
HETATM   51  O   UNK     0     -34.141   0.837 -23.815  0.00  0.00    -0.356 OA
HETATM   52  H   UNK     0     -34.898   0.802 -24.486  0.00  0.00     0.218 HD
ENDBRANCH   5  51
BRANCH   6  53
HETATM   53  O   UNK     0     -32.340  -0.605 -25.284  0.00  0.00    -0.356 OA
HETATM   54  H   UNK     0     -32.652   0.301 -25.611  0.00  0.00     0.218 HD
ENDBRANCH   6  53
BRANCH   9  55
HETATM   55  O   UNK     0     -30.205  -3.634 -26.788  0.00  0.00    -0.356 OA
HETATM   56  H   UNK     0     -30.489  -2.668 -26.683  0.00  0.00     0.218 HD
ENDBRANCH   9  55
BRANCH   7  57
HETATM   57  O   UNK     0     -28.775  -5.942 -26.993  0.00  0.00    -0.357 OA
HETATM   58  H   UNK     0     -28.170  -6.750 -27.063  0.00  0.00     0.217 HD
ENDBRANCH   7  57
BRANCH   8  59
HETATM   59  C   UNK     0     -28.235  -7.649 -24.959  0.00  0.00     0.023 A 
HETATM   60  C   UNK     0     -26.880  -7.510 -24.677  0.00  0.00     0.113 A 
HETATM   61  C   UNK     0     -25.987  -8.546 -24.880  0.00  0.00     0.133 A 
HETATM   62  C   UNK     0     -26.437  -9.755 -25.371  0.00  0.00     0.102 A 
HETATM   63  C   UNK     0     -27.778  -9.913 -25.665  0.00  0.00     0.049 A 
HETATM   64  C   UNK     0     -28.680  -8.875 -25.469  0.00  0.00    -0.018 A 
BRANCH  60  65
HETATM   65  O   UNK     0     -26.422  -6.322 -24.197  0.00  0.00    -0.357 OA
HETATM   66  H   UNK     0     -25.727  -6.307 -23.463  0.00  0.00     0.217 HD
ENDBRANCH  60  65
BRANCH  61  67
HETATM   67  O   UNK     0     -24.668  -8.373 -24.600  0.00  0.00    -0.356 OA
HETATM   68  H   UNK     0     -24.070  -7.885 -25.255  0.00  0.00     0.218 HD
ENDBRANCH  61  67
BRANCH  62  69
HETATM   69  O   UNK     0     -25.565 -10.780 -25.569  0.00  0.00    -0.358 OA
HETATM   70  H   UNK     0     -24.913 -11.038 -24.839  0.00  0.00     0.217 HD
ENDBRANCH  62  69
BRANCH  64  71
HETATM   71  C   UNK     0     -30.108  -9.159 -25.843  0.00  0.00     0.203 C 
BRANCH  71  72
HETATM   72  O   UNK     0     -30.845  -9.405 -24.653  0.00  0.00    -0.396 OA
HETATM   73  H   UNK     0     -31.314 -10.293 -24.523  0.00  0.00     0.209 HD
ENDBRANCH  71  72
ENDBRANCH  64  71
ENDBRANCH   8  59
BRANCH  31  74
HETATM   74  O   UNK     0     -31.941  -7.689 -16.715  0.00  0.00    -0.283 OA
BRANCH  74  75
HETATM   75  C   UNK     0     -31.320  -7.230 -15.600  0.00  0.00     0.295 C 
HETATM   76  O   UNK     0     -31.383  -6.055 -15.324  0.00  0.00    -0.259 OA
BRANCH  75  77
HETATM   77  C   UNK     0     -30.578  -8.146 -14.723  0.00  0.00     0.045 A 
HETATM   78  C   UNK     0     -29.194  -8.091 -14.660  0.00  0.00     0.057 A 
HETATM   79  C   UNK     0     -28.504  -8.964 -13.833  0.00  0.00     0.102 A 
HETATM   80  C   UNK     0     -29.197  -9.895 -13.074  0.00  0.00     0.132 A 
HETATM   81  C   UNK     0     -30.580  -9.949 -13.137  0.00  0.00     0.102 A 
HETATM   82  C   UNK     0     -31.270  -9.074 -13.960  0.00  0.00     0.057 A 
BRANCH  79  83
HETATM   83  O   UNK     0     -27.146  -8.912 -13.767  0.00  0.00    -0.358 OA
HETATM   84  H   UNK     0     -26.641  -9.575 -13.194  0.00  0.00     0.217 HD
ENDBRANCH  79  83
BRANCH  80  85
HETATM   85  O   UNK     0     -28.519 -10.757 -12.269  0.00  0.00    -0.356 OA
HETATM   86  H   UNK     0     -28.725 -10.792 -11.278  0.00  0.00     0.218 HD
ENDBRANCH  80  85
BRANCH  81  87
HETATM   87  O   UNK     0     -31.259 -10.862 -12.395  0.00  0.00    -0.358 OA
HETATM   88  H   UNK     0     -31.624 -10.606 -11.486  0.00  0.00     0.217 HD
ENDBRANCH  81  87
ENDBRANCH  75  77
ENDBRANCH  74  75
ENDBRANCH  31  74
BRANCH  19  89
HETATM   89  O   UNK     0     -26.096 -13.319 -22.488  0.00  0.00    -0.358 OA
HETATM   90  H   UNK     0     -26.003 -12.530 -23.117  0.00  0.00     0.217 HD
ENDBRANCH  19  89
BRANCH  26  91
HETATM   91  O   UNK     0     -30.370 -13.402 -13.671  0.00  0.00    -0.358 OA
HETATM   92  H   UNK     0     -30.292 -14.296 -13.204  0.00  0.00     0.217 HD
ENDBRANCH  26  91
BRANCH  17  93
HETATM   93  O   UNK     0     -26.250 -15.420 -20.733  0.00  0.00    -0.357 OA
HETATM   94  H   UNK     0     -25.351 -15.434 -21.200  0.00  0.00     0.217 HD
ENDBRANCH  17  93
BRANCH  24  95
HETATM   95  O   UNK     0     -28.255 -14.946 -14.500  0.00  0.00    -0.357 OA
HETATM   96  H   UNK     0     -28.641 -15.073 -13.573  0.00  0.00     0.217 HD
ENDBRANCH  24  95
TORSDOF 21
ENDMDL
MODEL 14
REMARK VINA RESULT:      -7.3      2.987      9.234
REMARK  21 active torsions:
REMARK  status: ('A' for Active; 'I' for Inactive)
REMARK    1  A    between atoms: C_3  and  O_78 
REMARK    2  A    between atoms: C_5  and  O_77 
REMARK    3  A    between atoms: C_6  and  O_76 
REMARK    4  A    between atoms: C_7  and  O_15 
REMARK    5  A    between atoms: C_8  and  C_17 
REMARK    6  A    between atoms: C_9  and  O_13 
REMARK    7  A    between atoms: C_16  and  O_24 
REMARK    8  A    between atoms: C_18  and  O_22 
REMARK    9  A    between atoms: C_19  and  C_72 
REMARK   10  A    between atoms: C_20  and  O_23 
REMARK   11  A    between atoms: C_28  and  O_32 
REMARK   12  A    between atoms: C_30  and  O_33 
REMARK   13  A    between atoms: C_37  and  O_42 
REMARK   14  A    between atoms: C_39  and  O_43 
REMARK   15  A    between atoms: C_46  and  O_67 
REMARK   16  A    between atoms: C_48  and  O_65 
REMARK   17  A    between atoms: C_49  and  C_52 
REMARK   18  A    between atoms: C_50  and  O_66 
REMARK   19  A    between atoms: C_52  and  O_60 
REMARK   20  A    between atoms: C_54  and  O_60 
REMARK   21  A    between atoms: C_72  and  O_73 
ROOT
HETATM    1  C   UNK     0       8.048  -5.525 -31.428  0.00  0.00     0.058 A 
HETATM    2  C   UNK     0       6.923  -4.754 -31.682  0.00  0.00     0.060 A 
HETATM    3  C   UNK     0       8.766  -6.093 -32.464  0.00  0.00     0.102 A 
HETATM    4  C   UNK     0       6.505  -4.547 -33.004  0.00  0.00     0.127 A 
HETATM    5  C   UNK     0       8.361  -5.891 -33.769  0.00  0.00     0.135 A 
HETATM    6  C   UNK     0       7.240  -5.123 -34.033  0.00  0.00     0.137 A 
HETATM    7  C   UNK     0       2.760  -1.318 -33.182  0.00  0.00     0.114 A 
HETATM    8  C   UNK     0       2.481  -1.272 -31.819  0.00  0.00     0.030 A 
HETATM    9  C   UNK     0       3.732  -2.160 -33.702  0.00  0.00     0.134 A 
HETATM   10  C   UNK     0       3.222  -2.109 -30.975  0.00  0.00     0.059 A 
HETATM   11  C   UNK     0       4.458  -2.985 -32.865  0.00  0.00     0.116 A 
HETATM   12  C   UNK     0       4.185  -2.944 -31.514  0.00  0.00     0.329 A 
HETATM   13  O   UNK     0       5.402  -3.823 -33.411  0.00  0.00    -0.304 OA
HETATM   14  C   UNK     0       3.078  -2.197 -29.517  0.00  0.00     0.295 C 
HETATM   15  C   UNK     0      -0.140   1.769 -23.167  0.00  0.00     0.026 A 
HETATM   16  C   UNK     0       0.749   0.746 -23.488  0.00  0.00     0.006 A 
HETATM   17  C   UNK     0      -0.953   2.359 -24.117  0.00  0.00     0.111 A 
HETATM   18  C   UNK     0       0.803   0.324 -24.829  0.00  0.00     0.054 A 
HETATM   19  C   UNK     0      -0.891   1.937 -25.429  0.00  0.00     0.100 A 
HETATM   20  C   UNK     0      -0.016   0.925 -25.775  0.00  0.00     0.058 A 
HETATM   21  O   UNK     0      -0.218   2.195 -21.877  0.00  0.00     0.000 OA
HETATM   22  C   UNK     0       0.917   0.385 -21.052  0.00  0.00     0.026 A 
HETATM   23  C   UNK     0       1.535   0.207 -22.288  0.00  0.00     0.006 A 
HETATM   24  C   UNK     0       1.514  -0.017 -19.870  0.00  0.00     0.111 A 
HETATM   25  C   UNK     0       2.796  -0.408 -22.298  0.00  0.00     0.054 A 
HETATM   26  C   UNK     0       2.757  -0.615 -19.897  0.00  0.00     0.100 A 
HETATM   27  C   UNK     0       3.388  -0.807 -21.109  0.00  0.00     0.058 A 
HETATM   28  C   UNK     0       3.573  -0.662 -23.500  0.00  0.00     0.294 C 
HETATM   29  O   UNK     0      -0.306   0.978 -21.004  0.00  0.00     0.000 OA
HETATM   30  O   UNK     0       4.150   0.252 -24.045  0.00  0.00    -0.259 OA
HETATM   31  C   UNK     0       5.037  -3.324 -25.438  0.00  0.00     0.302 C 
HETATM   32  C   UNK     0       4.431  -1.963 -25.201  0.00  0.00     0.220 C 
HETATM   33  O   UNK     0       5.875  -3.251 -26.599  0.00  0.00    -0.348 OA
HETATM   34  C   UNK     0       3.543  -1.664 -26.363  0.00  0.00     0.198 C 
HETATM   35  C   UNK     0       5.268  -2.788 -27.824  0.00  0.00     0.181 C 
HETATM   36  C   UNK     0       4.431  -1.482 -27.587  0.00  0.00     0.195 C 
HETATM   37  C   UNK     0       6.373  -2.482 -28.846  0.00  0.00     0.212 C 
HETATM   38  O   UNK     0       2.783  -0.496 -26.086  0.00  0.00    -0.306 OA
HETATM   39  O   UNK     0       3.624  -1.216 -28.737  0.00  0.00    -0.307 OA
HETATM   40  O   UNK     0       3.677  -1.924 -24.007  0.00  0.00    -0.304 OA
HETATM   41  O   UNK     0       6.903  -3.639 -29.483  0.00  0.00    -0.328 OA
HETATM   42  C   UNK     0       1.662  -0.753 -25.340  0.00  0.00     0.294 C 
HETATM   43  O   UNK     0       1.355  -1.902 -25.126  0.00  0.00    -0.259 OA
HETATM   44  O   UNK     0       2.539  -3.153 -29.008  0.00  0.00    -0.259 OA
HETATM   45  C   UNK     0       6.220  -4.190 -30.524  0.00  0.00     0.179 C 
HETATM   46  O   UNK     0       5.010  -4.179 -30.513  0.00  0.00    -0.383 OA
HETATM   47  H   UNK     0      -0.863   2.933 -21.626  0.00  0.00     0.000 HD
HETATM   48  H   UNK     0      -0.765   1.120 -20.112  0.00  0.00     0.000 HD
ENDROOT
BRANCH   3  49
HETATM   49  O   UNK     0       9.866  -6.849 -32.201  0.00  0.00    -0.358 OA
HETATM   50  H   UNK     0       9.773  -7.715 -31.685  0.00  0.00     0.217 HD
ENDBRANCH   3  49
BRANCH   5  51
HETATM   51  O   UNK     0       9.062  -6.449 -34.794  0.00  0.00    -0.356 OA
HETATM   52  H   UNK     0      10.048  -6.249 -34.899  0.00  0.00     0.218 HD
ENDBRANCH   5  51
BRANCH   6  53
HETATM   53  O   UNK     0       6.847  -4.932 -35.321  0.00  0.00    -0.356 OA
HETATM   54  H   UNK     0       7.211  -5.527 -36.055  0.00  0.00     0.218 HD
ENDBRANCH   6  53
BRANCH   9  55
HETATM   55  O   UNK     0       3.961  -2.179 -35.043  0.00  0.00    -0.356 OA
HETATM   56  H   UNK     0       3.904  -1.322 -35.578  0.00  0.00     0.218 HD
ENDBRANCH   9  55
BRANCH   7  57
HETATM   57  O   UNK     0       2.049  -0.526 -34.029  0.00  0.00    -0.357 OA
HETATM   58  H   UNK     0       2.262  -0.525 -35.019  0.00  0.00     0.217 HD
ENDBRANCH   7  57
BRANCH   8  59
HETATM   59  C   UNK     0       1.365  -0.322 -31.415  0.00  0.00     0.023 A 
HETATM   60  C   UNK     0       0.100  -0.896 -31.343  0.00  0.00     0.113 A 
HETATM   61  C   UNK     0      -1.015  -0.155 -30.996  0.00  0.00     0.133 A 
HETATM   62  C   UNK     0      -0.884   1.189 -30.707  0.00  0.00     0.102 A 
HETATM   63  C   UNK     0       0.363   1.781 -30.779  0.00  0.00     0.049 A 
HETATM   64  C   UNK     0       1.485   1.044 -31.133  0.00  0.00    -0.018 A 
BRANCH  60  65
HETATM   65  O   UNK     0      -0.045  -2.218 -31.630  0.00  0.00    -0.357 OA
HETATM   66  H   UNK     0      -0.880  -2.711 -31.342  0.00  0.00     0.217 HD
ENDBRANCH  60  65
BRANCH  61  67
HETATM   67  O   UNK     0      -2.238  -0.746 -30.943  0.00  0.00    -0.356 OA
HETATM   68  H   UNK     0      -3.065  -0.224 -31.200  0.00  0.00     0.218 HD
ENDBRANCH  61  67
BRANCH  62  69
HETATM   69  O   UNK     0      -1.975   1.923 -30.361  0.00  0.00    -0.358 OA
HETATM   70  H   UNK     0      -2.763   1.477 -29.911  0.00  0.00     0.217 HD
ENDBRANCH  62  69
BRANCH  64  71
HETATM   71  C   UNK     0       2.782   1.802 -31.196  0.00  0.00     0.203 C 
BRANCH  71  72
HETATM   72  O   UNK     0       3.509   1.552 -30.001  0.00  0.00    -0.396 OA
HETATM   73  H   UNK     0       3.152   1.884 -29.113  0.00  0.00     0.209 HD
ENDBRANCH  71  72
ENDBRANCH  64  71
ENDBRANCH   8  59
BRANCH  31  74
HETATM   74  O   UNK     0       5.808  -3.713 -24.312  0.00  0.00    -0.283 OA
BRANCH  74  75
HETATM   75  C   UNK     0       5.487  -4.878 -23.696  0.00  0.00     0.295 C 
HETATM   76  O   UNK     0       4.571  -4.903 -22.908  0.00  0.00    -0.259 OA
BRANCH  75  77
HETATM   77  C   UNK     0       6.236  -6.110 -23.983  0.00  0.00     0.045 A 
HETATM   78  C   UNK     0       7.485  -6.319 -23.419  0.00  0.00     0.057 A 
HETATM   79  C   UNK     0       8.184  -7.482 -23.702  0.00  0.00     0.102 A 
HETATM   80  C   UNK     0       7.638  -8.432 -24.550  0.00  0.00     0.132 A 
HETATM   81  C   UNK     0       6.389  -8.223 -25.113  0.00  0.00     0.102 A 
HETATM   82  C   UNK     0       5.688  -7.063 -24.827  0.00  0.00     0.057 A 
BRANCH  79  83
HETATM   83  O   UNK     0       9.410  -7.692 -23.148  0.00  0.00    -0.358 OA
HETATM   84  H   UNK     0       9.501  -7.803 -22.147  0.00  0.00     0.217 HD
ENDBRANCH  79  83
BRANCH  80  85
HETATM   85  O   UNK     0       8.328  -9.570 -24.833  0.00  0.00    -0.356 OA
HETATM   86  H   UNK     0       8.117 -10.427 -24.337  0.00  0.00     0.218 HD
ENDBRANCH  80  85
BRANCH  81  87
HETATM   87  O   UNK     0       5.854  -9.153 -25.946  0.00  0.00    -0.358 OA
HETATM   88  H   UNK     0       6.457  -9.702 -26.545  0.00  0.00     0.217 HD
ENDBRANCH  81  87
ENDBRANCH  75  77
ENDBRANCH  74  75
ENDBRANCH  31  74
BRANCH  19  89
HETATM   89  O   UNK     0      -1.689   2.512 -26.368  0.00  0.00    -0.358 OA
HETATM   90  H   UNK     0      -1.333   3.267 -26.942  0.00  0.00     0.217 HD
ENDBRANCH  19  89
BRANCH  26  91
HETATM   91  O   UNK     0       3.356  -1.008 -18.740  0.00  0.00    -0.358 OA
HETATM   92  H   UNK     0       3.400  -1.989 -18.501  0.00  0.00     0.217 HD
ENDBRANCH  26  91
BRANCH  17  93
HETATM   93  O   UNK     0      -1.815   3.350 -23.760  0.00  0.00    -0.357 OA
HETATM   94  H   UNK     0      -1.480   4.299 -23.654  0.00  0.00     0.217 HD
ENDBRANCH  17  93
BRANCH  24  95
HETATM   95  O   UNK     0       0.881   0.182 -18.681  0.00  0.00    -0.357 OA
HETATM   96  H   UNK     0       0.843  -0.563 -17.998  0.00  0.00     0.217 HD
ENDBRANCH  24  95
TORSDOF 21
ENDMDL
MODEL 15
REMARK VINA RESULT:      -7.2     19.784     23.894
REMARK  21 active torsions:
REMARK  status: ('A' for Active; 'I' for Inactive)
REMARK    1  A    between atoms: C_3  and  O_78 
REMARK    2  A    between atoms: C_5  and  O_77 
REMARK    3  A    between atoms: C_6  and  O_76 
REMARK    4  A    between atoms: C_7  and  O_15 
REMARK    5  A    between atoms: C_8  and  C_17 
REMARK    6  A    between atoms: C_9  and  O_13 
REMARK    7  A    between atoms: C_16  and  O_24 
REMARK    8  A    between atoms: C_18  and  O_22 
REMARK    9  A    between atoms: C_19  and  C_72 
REMARK   10  A    between atoms: C_20  and  O_23 
REMARK   11  A    between atoms: C_28  and  O_32 
REMARK   12  A    between atoms: C_30  and  O_33 
REMARK   13  A    between atoms: C_37  and  O_42 
REMARK   14  A    between atoms: C_39  and  O_43 
REMARK   15  A    between atoms: C_46  and  O_67 
REMARK   16  A    between atoms: C_48  and  O_65 
REMARK   17  A    between atoms: C_49  and  C_52 
REMARK   18  A    between atoms: C_50  and  O_66 
REMARK   19  A    between atoms: C_52  and  O_60 
REMARK   20  A    between atoms: C_54  and  O_60 
REMARK   21  A    between atoms: C_72  and  O_73 
ROOT
HETATM    1  C   UNK     0       0.090 -16.852 -38.560  0.00  0.00     0.058 A 
HETATM    2  C   UNK     0       0.746 -17.063 -37.356  0.00  0.00     0.060 A 
HETATM    3  C   UNK     0       0.473 -15.826 -39.405  0.00  0.00     0.102 A 
HETATM    4  C   UNK     0       1.811 -16.229 -36.988  0.00  0.00     0.127 A 
HETATM    5  C   UNK     0       1.523 -15.002 -39.049  0.00  0.00     0.135 A 
HETATM    6  C   UNK     0       2.184 -15.206 -37.850  0.00  0.00     0.137 A 
HETATM    7  C   UNK     0       3.982 -17.865 -32.853  0.00  0.00     0.114 A 
HETATM    8  C   UNK     0       3.025 -18.812 -32.496  0.00  0.00     0.030 A 
HETATM    9  C   UNK     0       3.819 -17.043 -33.958  0.00  0.00     0.134 A 
HETATM   10  C   UNK     0       1.880 -18.913 -33.296  0.00  0.00     0.059 A 
HETATM   11  C   UNK     0       2.687 -17.146 -34.743  0.00  0.00     0.116 A 
HETATM   12  C   UNK     0       1.737 -18.081 -34.392  0.00  0.00     0.329 A 
HETATM   13  O   UNK     0       2.545 -16.304 -35.821  0.00  0.00    -0.304 OA
HETATM   14  C   UNK     0       0.770 -19.850 -33.085  0.00  0.00     0.295 C 
HETATM   15  C   UNK     0      -1.175 -26.634 -29.010  0.00  0.00     0.026 A 
HETATM   16  C   UNK     0      -1.610 -25.812 -30.047  0.00  0.00     0.006 A 
HETATM   17  C   UNK     0      -0.130 -26.275 -28.178  0.00  0.00     0.111 A 
HETATM   18  C   UNK     0      -0.944 -24.586 -30.232  0.00  0.00     0.054 A 
HETATM   19  C   UNK     0       0.515 -25.071 -28.370  0.00  0.00     0.100 A 
HETATM   20  C   UNK     0       0.105 -24.237 -29.392  0.00  0.00     0.058 A 
HETATM   21  O   UNK     0      -1.803 -27.824 -28.804  0.00  0.00     0.000 OA
HETATM   22  C   UNK     0      -3.591 -27.282 -30.127  0.00  0.00     0.026 A 
HETATM   23  C   UNK     0      -2.798 -26.377 -30.831  0.00  0.00     0.006 A 
HETATM   24  C   UNK     0      -4.682 -27.906 -30.707  0.00  0.00     0.111 A 
HETATM   25  C   UNK     0      -3.149 -26.110 -32.162  0.00  0.00     0.054 A 
HETATM   26  C   UNK     0      -5.011 -27.635 -32.020  0.00  0.00     0.100 A 
HETATM   27  C   UNK     0      -4.243 -26.740 -32.737  0.00  0.00     0.058 A 
HETATM   28  C   UNK     0      -2.425 -25.197 -33.032  0.00  0.00     0.294 C 
HETATM   29  O   UNK     0      -3.280 -27.565 -28.834  0.00  0.00     0.000 OA
HETATM   30  O   UNK     0      -1.366 -25.538 -33.509  0.00  0.00    -0.259 OA
HETATM   31  C   UNK     0      -2.818 -22.172 -34.951  0.00  0.00     0.302 C 
HETATM   32  C   UNK     0      -2.071 -23.211 -34.152  0.00  0.00     0.220 C 
HETATM   33  O   UNK     0      -1.891 -21.526 -35.834  0.00  0.00    -0.348 OA
HETATM   34  C   UNK     0      -1.083 -22.490 -33.298  0.00  0.00     0.198 C 
HETATM   35  C   UNK     0      -0.728 -20.914 -35.238  0.00  0.00     0.181 C 
HETATM   36  C   UNK     0      -0.033 -21.884 -34.219  0.00  0.00     0.195 C 
HETATM   37  C   UNK     0       0.277 -20.565 -36.346  0.00  0.00     0.212 C 
HETATM   38  O   UNK     0      -0.508 -23.401 -32.371  0.00  0.00    -0.306 OA
HETATM   39  O   UNK     0       0.928 -21.158 -33.448  0.00  0.00    -0.307 OA
HETATM   40  O   UNK     0      -2.939 -23.970 -33.335  0.00  0.00    -0.304 OA
HETATM   41  O   UNK     0      -0.046 -19.379 -37.063  0.00  0.00    -0.328 OA
HETATM   42  C   UNK     0      -1.283 -23.588 -31.257  0.00  0.00     0.294 C 
HETATM   43  O   UNK     0      -2.256 -22.889 -31.098  0.00  0.00    -0.259 OA
HETATM   44  O   UNK     0      -0.291 -19.460 -32.654  0.00  0.00    -0.259 OA
HETATM   45  C   UNK     0       0.273 -18.173 -36.520  0.00  0.00     0.179 C 
HETATM   46  O   UNK     0       0.205 -18.024 -35.321  0.00  0.00    -0.383 OA
HETATM   47  H   UNK     0      -1.503 -28.430 -28.051  0.00  0.00     0.000 HD
HETATM   48  H   UNK     0      -3.843 -28.226 -28.312  0.00  0.00     0.000 HD
ENDROOT
BRANCH   3  49
HETATM   49  O   UNK     0      -0.180 -15.628 -40.581  0.00  0.00    -0.358 OA
HETATM   50  H   UNK     0      -1.163 -15.384 -40.579  0.00  0.00     0.217 HD
ENDBRANCH   3  49
BRANCH   5  51
HETATM   51  O   UNK     0       1.904 -13.990 -39.875  0.00  0.00    -0.356 OA
HETATM   52  H   UNK     0       1.207 -13.381 -40.284  0.00  0.00     0.218 HD
ENDBRANCH   5  51
BRANCH   6  53
HETATM   53  O   UNK     0       3.215 -14.387 -37.507  0.00  0.00    -0.356 OA
HETATM   54  H   UNK     0       3.196 -13.410 -37.772  0.00  0.00     0.218 HD
ENDBRANCH   6  53
BRANCH   9  55
HETATM   55  O   UNK     0       4.776 -16.124 -34.261  0.00  0.00    -0.356 OA
HETATM   56  H   UNK     0       5.560 -16.384 -34.846  0.00  0.00     0.218 HD
ENDBRANCH   9  55
BRANCH   7  57
HETATM   57  O   UNK     0       5.099 -17.735 -32.089  0.00  0.00    -0.357 OA
HETATM   58  H   UNK     0       5.264 -16.877 -31.577  0.00  0.00     0.217 HD
ENDBRANCH   7  57
BRANCH   8  59
HETATM   59  C   UNK     0       3.337 -19.610 -31.240  0.00  0.00     0.023 A 
HETATM   60  C   UNK     0       2.817 -19.083 -30.062  0.00  0.00     0.113 A 
HETATM   61  C   UNK     0       3.025 -19.695 -28.839  0.00  0.00     0.133 A 
HETATM   62  C   UNK     0       3.761 -20.860 -28.771  0.00  0.00     0.102 A 
HETATM   63  C   UNK     0       4.293 -21.398 -29.928  0.00  0.00     0.049 A 
HETATM   64  C   UNK     0       4.094 -20.785 -31.157  0.00  0.00    -0.018 A 
BRANCH  60  65
HETATM   65  O   UNK     0       2.094 -17.931 -30.115  0.00  0.00    -0.357 OA
HETATM   66  H   UNK     0       1.280 -17.817 -29.525  0.00  0.00     0.217 HD
ENDBRANCH  60  65
BRANCH  61  67
HETATM   67  O   UNK     0       2.508 -19.148 -27.707  0.00  0.00    -0.356 OA
HETATM   68  H   UNK     0       1.716 -18.520 -27.763  0.00  0.00     0.218 HD
ENDBRANCH  61  67
BRANCH  62  69
HETATM   69  O   UNK     0       3.965 -21.470 -27.572  0.00  0.00    -0.358 OA
HETATM   70  H   UNK     0       4.835 -21.954 -27.392  0.00  0.00     0.217 HD
ENDBRANCH  62  69
BRANCH  64  71
HETATM   71  C   UNK     0       4.737 -21.452 -32.341  0.00  0.00     0.203 C 
BRANCH  71  72
HETATM   72  O   UNK     0       3.741 -22.181 -33.045  0.00  0.00    -0.396 OA
HETATM   73  H   UNK     0       4.011 -22.885 -33.720  0.00  0.00     0.209 HD
ENDBRANCH  71  72
ENDBRANCH  64  71
ENDBRANCH   8  59
BRANCH  31  74
HETATM   74  O   UNK     0      -3.850 -22.789 -35.704  0.00  0.00    -0.283 OA
BRANCH  74  75
HETATM   75  C   UNK     0      -5.134 -22.527 -35.354  0.00  0.00     0.295 C 
HETATM   76  O   UNK     0      -5.710 -21.593 -35.861  0.00  0.00    -0.259 OA
BRANCH  75  77
HETATM   77  C   UNK     0      -5.832 -23.367 -34.372  0.00  0.00     0.045 A 
HETATM   78  C   UNK     0      -6.649 -24.405 -34.791  0.00  0.00     0.057 A 
HETATM   79  C   UNK     0      -7.308 -25.188 -33.855  0.00  0.00     0.102 A 
HETATM   80  C   UNK     0      -7.152 -24.930 -32.502  0.00  0.00     0.132 A 
HETATM   81  C   UNK     0      -6.334 -23.893 -32.083  0.00  0.00     0.102 A 
HETATM   82  C   UNK     0      -5.673 -23.114 -33.018  0.00  0.00     0.057 A 
BRANCH  79  83
HETATM   83  O   UNK     0      -8.111 -26.209 -34.262  0.00  0.00    -0.358 OA
HETATM   84  H   UNK     0      -8.972 -26.010 -34.754  0.00  0.00     0.217 HD
ENDBRANCH  79  83
BRANCH  80  85
HETATM   85  O   UNK     0      -7.804 -25.693 -31.584  0.00  0.00    -0.356 OA
HETATM   86  H   UNK     0      -7.965 -26.677 -31.765  0.00  0.00     0.218 HD
ENDBRANCH  80  85
BRANCH  81  87
HETATM   87  O   UNK     0      -6.183 -23.639 -30.757  0.00  0.00    -0.358 OA
HETATM   88  H   UNK     0      -5.796 -24.347 -30.147  0.00  0.00     0.217 HD
ENDBRANCH  81  87
ENDBRANCH  75  77
ENDBRANCH  74  75
ENDBRANCH  31  74
BRANCH  19  89
HETATM   89  O   UNK     0       1.541 -24.711 -27.554  0.00  0.00    -0.358 OA
HETATM   90  H   UNK     0       2.035 -23.841 -27.715  0.00  0.00     0.217 HD
ENDBRANCH  19  89
BRANCH  26  91
HETATM   91  O   UNK     0      -6.076 -28.248 -32.601  0.00  0.00    -0.358 OA
HETATM   92  H   UNK     0      -7.015 -27.938 -32.390  0.00  0.00     0.217 HD
ENDBRANCH  26  91
BRANCH  17  93
HETATM   93  O   UNK     0       0.258 -27.103 -27.171  0.00  0.00    -0.357 OA
HETATM   94  H   UNK     0       0.957 -27.816 -27.342  0.00  0.00     0.217 HD
ENDBRANCH  17  93
BRANCH  24  95
HETATM   95  O   UNK     0      -5.427 -28.789 -29.989  0.00  0.00    -0.357 OA
HETATM   96  H   UNK     0      -5.070 -29.160 -29.117  0.00  0.00     0.217 HD
ENDBRANCH  24  95
TORSDOF 21
ENDMDL
MODEL 16
REMARK VINA RESULT:      -7.2     23.118     26.357
REMARK  21 active torsions:
REMARK  status: ('A' for Active; 'I' for Inactive)
REMARK    1  A    between atoms: C_3  and  O_78 
REMARK    2  A    between atoms: C_5  and  O_77 
REMARK    3  A    between atoms: C_6  and  O_76 
REMARK    4  A    between atoms: C_7  and  O_15 
REMARK    5  A    between atoms: C_8  and  C_17 
REMARK    6  A    between atoms: C_9  and  O_13 
REMARK    7  A    between atoms: C_16  and  O_24 
REMARK    8  A    between atoms: C_18  and  O_22 
REMARK    9  A    between atoms: C_19  and  C_72 
REMARK   10  A    between atoms: C_20  and  O_23 
REMARK   11  A    between atoms: C_28  and  O_32 
REMARK   12  A    between atoms: C_30  and  O_33 
REMARK   13  A    between atoms: C_37  and  O_42 
REMARK   14  A    between atoms: C_39  and  O_43 
REMARK   15  A    between atoms: C_46  and  O_67 
REMARK   16  A    between atoms: C_48  and  O_65 
REMARK   17  A    between atoms: C_49  and  C_52 
REMARK   18  A    between atoms: C_50  and  O_66 
REMARK   19  A    between atoms: C_52  and  O_60 
REMARK   20  A    between atoms: C_54  and  O_60 
REMARK   21  A    between atoms: C_72  and  O_73 
ROOT
HETATM    1  C   UNK     0     -10.305 -23.583 -12.679  0.00  0.00     0.058 A 
HETATM    2  C   UNK     0      -9.498 -23.709 -13.800  0.00  0.00     0.060 A 
HETATM    3  C   UNK     0     -11.615 -24.025 -12.696  0.00  0.00     0.102 A 
HETATM    4  C   UNK     0     -10.013 -24.293 -14.966  0.00  0.00     0.127 A 
HETATM    5  C   UNK     0     -12.128 -24.603 -13.841  0.00  0.00     0.135 A 
HETATM    6  C   UNK     0     -11.330 -24.735 -14.964  0.00  0.00     0.137 A 
HETATM    7  C   UNK     0      -6.461 -24.873 -18.362  0.00  0.00     0.114 A 
HETATM    8  C   UNK     0      -5.475 -24.110 -17.741  0.00  0.00     0.030 A 
HETATM    9  C   UNK     0      -7.736 -24.993 -17.830  0.00  0.00     0.134 A 
HETATM   10  C   UNK     0      -5.812 -23.460 -16.547  0.00  0.00     0.059 A 
HETATM   11  C   UNK     0      -8.063 -24.348 -16.652  0.00  0.00     0.116 A 
HETATM   12  C   UNK     0      -7.091 -23.591 -16.035  0.00  0.00     0.329 A 
HETATM   13  O   UNK     0      -9.341 -24.471 -16.159  0.00  0.00    -0.304 OA
HETATM   14  C   UNK     0      -4.912 -22.621 -15.748  0.00  0.00     0.295 C 
HETATM   15  C   UNK     0       2.981 -20.837 -14.783  0.00  0.00     0.026 A 
HETATM   16  C   UNK     0       1.738 -20.689 -14.172  0.00  0.00     0.006 A 
HETATM   17  C   UNK     0       3.112 -21.323 -16.071  0.00  0.00     0.111 A 
HETATM   18  C   UNK     0       0.599 -21.059 -14.910  0.00  0.00     0.054 A 
HETATM   19  C   UNK     0       1.987 -21.683 -16.785  0.00  0.00     0.100 A 
HETATM   20  C   UNK     0       0.742 -21.548 -16.201  0.00  0.00     0.058 A 
HETATM   21  O   UNK     0       4.101 -20.483 -14.096  0.00  0.00     0.000 OA
HETATM   22  C   UNK     0       2.937 -19.332 -12.494  0.00  0.00     0.026 A 
HETATM   23  C   UNK     0       1.807 -20.106 -12.757  0.00  0.00     0.006 A 
HETATM   24  C   UNK     0       3.162 -18.764 -11.252  0.00  0.00     0.111 A 
HETATM   25  C   UNK     0       0.889 -20.286 -11.712  0.00  0.00     0.054 A 
HETATM   26  C   UNK     0       2.251 -18.956 -10.233  0.00  0.00     0.100 A 
HETATM   27  C   UNK     0       1.123 -19.714 -10.470  0.00  0.00     0.058 A 
HETATM   28  C   UNK     0      -0.333 -21.066 -11.821  0.00  0.00     0.294 C 
HETATM   29  O   UNK     0       3.848 -19.136 -13.484  0.00  0.00     0.000 OA
HETATM   30  O   UNK     0      -0.274 -22.275 -11.815  0.00  0.00    -0.259 OA
HETATM   31  C   UNK     0      -3.918 -20.797 -11.572  0.00  0.00     0.302 C 
HETATM   32  C   UNK     0      -2.608 -21.369 -12.055  0.00  0.00     0.220 C 
HETATM   33  O   UNK     0      -4.916 -21.824 -11.647  0.00  0.00    -0.348 OA
HETATM   34  C   UNK     0      -2.777 -21.710 -13.498  0.00  0.00     0.198 C 
HETATM   35  C   UNK     0      -5.123 -22.452 -12.930  0.00  0.00     0.181 C 
HETATM   36  C   UNK     0      -3.759 -22.871 -13.585  0.00  0.00     0.195 C 
HETATM   37  C   UNK     0      -5.980 -23.712 -12.738  0.00  0.00     0.212 C 
HETATM   38  O   UNK     0      -1.513 -22.047 -14.053  0.00  0.00    -0.306 OA
HETATM   39  O   UNK     0      -3.975 -23.222 -14.954  0.00  0.00    -0.307 OA
HETATM   40  O   UNK     0      -1.546 -20.448 -11.908  0.00  0.00    -0.304 OA
HETATM   41  O   UNK     0      -7.369 -23.443 -12.586  0.00  0.00    -0.328 OA
HETATM   42  C   UNK     0      -0.787 -20.949 -14.434  0.00  0.00     0.294 C 
HETATM   43  O   UNK     0      -1.316 -19.863 -14.407  0.00  0.00    -0.259 OA
HETATM   44  O   UNK     0      -5.036 -21.417 -15.742  0.00  0.00    -0.259 OA
HETATM   45  C   UNK     0      -8.122 -23.212 -13.696  0.00  0.00     0.179 C 
HETATM   46  O   UNK     0      -7.634 -22.619 -14.631  0.00  0.00    -0.383 OA
HETATM   47  H   UNK     0       5.011 -20.578 -14.528  0.00  0.00     0.000 HD
HETATM   48  H   UNK     0       4.677 -18.583 -13.306  0.00  0.00     0.000 HD
ENDROOT
BRANCH   3  49
HETATM   49  O   UNK     0     -12.397 -23.893 -11.591  0.00  0.00    -0.358 OA
HETATM   50  H   UNK     0     -13.383 -23.684 -11.690  0.00  0.00     0.217 HD
ENDBRANCH   3  49
BRANCH   5  51
HETATM   51  O   UNK     0     -13.417 -25.040 -13.865  0.00  0.00    -0.356 OA
HETATM   52  H   UNK     0     -13.757 -25.569 -14.658  0.00  0.00     0.218 HD
ENDBRANCH   5  51
BRANCH   6  53
HETATM   53  O   UNK     0     -11.845 -25.303 -16.088  0.00  0.00    -0.356 OA
HETATM   54  H   UNK     0     -11.720 -26.293 -16.258  0.00  0.00     0.218 HD
ENDBRANCH   6  53
BRANCH   9  55
HETATM   55  O   UNK     0      -8.670 -25.740 -18.479  0.00  0.00    -0.356 OA
HETATM   56  H   UNK     0      -8.390 -26.360 -19.229  0.00  0.00     0.218 HD
ENDBRANCH   9  55
BRANCH   7  57
HETATM   57  O   UNK     0      -6.169 -25.506 -19.530  0.00  0.00    -0.357 OA
HETATM   58  H   UNK     0      -6.756 -25.365 -20.342  0.00  0.00     0.217 HD
ENDBRANCH   7  57
BRANCH   8  59
HETATM   59  C   UNK     0      -4.143 -24.052 -18.470  0.00  0.00     0.023 A 
HETATM   60  C   UNK     0      -3.234 -25.046 -18.118  0.00  0.00     0.113 A 
HETATM   61  C   UNK     0      -1.978 -25.117 -18.692  0.00  0.00     0.133 A 
HETATM   62  C   UNK     0      -1.603 -24.188 -19.642  0.00  0.00     0.102 A 
HETATM   63  C   UNK     0      -2.487 -23.188 -20.002  0.00  0.00     0.049 A 
HETATM   64  C   UNK     0      -3.747 -23.107 -19.425  0.00  0.00    -0.018 A 
BRANCH  60  65
HETATM   65  O   UNK     0      -3.589 -25.964 -17.179  0.00  0.00    -0.357 OA
HETATM   66  H   UNK     0      -4.053 -25.668 -16.331  0.00  0.00     0.217 HD
ENDBRANCH  60  65
BRANCH  61  67
HETATM   67  O   UNK     0      -1.113 -26.097 -18.319  0.00  0.00    -0.356 OA
HETATM   68  H   UNK     0      -0.469 -26.489 -18.994  0.00  0.00     0.218 HD
ENDBRANCH  61  67
BRANCH  62  69
HETATM   69  O   UNK     0      -0.371 -24.255 -20.214  0.00  0.00    -0.358 OA
HETATM   70  H   UNK     0      -0.098 -25.079 -20.734  0.00  0.00     0.217 HD
ENDBRANCH  62  69
BRANCH  64  71
HETATM   71  C   UNK     0      -4.612 -21.966 -19.882  0.00  0.00     0.203 C 
BRANCH  71  72
HETATM   72  O   UNK     0      -4.695 -21.014 -18.830  0.00  0.00    -0.396 OA
HETATM   73  H   UNK     0      -5.337 -20.235 -18.901  0.00  0.00     0.209 HD
ENDBRANCH  71  72
ENDBRANCH  64  71
ENDBRANCH   8  59
BRANCH  31  74
HETATM   74  O   UNK     0      -3.786 -20.350 -10.232  0.00  0.00    -0.283 OA
BRANCH  74  75
HETATM   75  C   UNK     0      -4.636 -19.386  -9.799  0.00  0.00     0.295 C 
HETATM   76  O   UNK     0      -5.474 -19.658  -8.971  0.00  0.00    -0.259 OA
BRANCH  75  77
HETATM   77  C   UNK     0      -4.545 -18.015 -10.320  0.00  0.00     0.045 A 
HETATM   78  C   UNK     0      -3.452 -17.219 -10.015  0.00  0.00     0.057 A 
HETATM   79  C   UNK     0      -3.380 -15.925 -10.507  0.00  0.00     0.102 A 
HETATM   80  C   UNK     0      -4.402 -15.427 -11.300  0.00  0.00     0.132 A 
HETATM   81  C   UNK     0      -5.493 -16.223 -11.606  0.00  0.00     0.102 A 
HETATM   82  C   UNK     0      -5.564 -17.518 -11.118  0.00  0.00     0.057 A 
BRANCH  79  83
HETATM   83  O   UNK     0      -2.308 -15.141 -10.211  0.00  0.00    -0.358 OA
HETATM   84  H   UNK     0      -1.370 -15.496 -10.341  0.00  0.00     0.217 HD
ENDBRANCH  79  83
BRANCH  80  85
HETATM   85  O   UNK     0      -4.335 -14.154 -11.777  0.00  0.00    -0.356 OA
HETATM   86  H   UNK     0      -5.040 -13.477 -11.514  0.00  0.00     0.218 HD
ENDBRANCH  80  85
BRANCH  81  87
HETATM   87  O   UNK     0      -6.496 -15.734 -12.382  0.00  0.00    -0.358 OA
HETATM   88  H   UNK     0      -7.427 -15.629 -12.000  0.00  0.00     0.217 HD
ENDBRANCH  81  87
ENDBRANCH  75  77
ENDBRANCH  74  75
ENDBRANCH  31  74
BRANCH  19  89
HETATM   89  O   UNK     0       2.108 -22.160 -18.052  0.00  0.00    -0.358 OA
HETATM   90  H   UNK     0       2.651 -22.996 -18.229  0.00  0.00     0.217 HD
ENDBRANCH  19  89
BRANCH  26  91
HETATM   91  O   UNK     0       2.467 -18.407  -9.008  0.00  0.00    -0.358 OA
HETATM   92  H   UNK     0       3.230 -17.757  -8.872  0.00  0.00     0.217 HD
ENDBRANCH  26  91
BRANCH  17  93
HETATM   93  O   UNK     0       4.344 -21.443 -16.635  0.00  0.00    -0.357 OA
HETATM   94  H   UNK     0       4.694 -20.715 -17.245  0.00  0.00     0.217 HD
ENDBRANCH  17  93
BRANCH  24  95
HETATM   95  O   UNK     0       4.281 -18.022 -11.033  0.00  0.00    -0.357 OA
HETATM   96  H   UNK     0       5.116 -18.462 -10.667  0.00  0.00     0.217 HD
ENDBRANCH  24  95
TORSDOF 21
ENDMDL
MODEL 17
REMARK VINA RESULT:      -7.2     24.229     28.498
REMARK  21 active torsions:
REMARK  status: ('A' for Active; 'I' for Inactive)
REMARK    1  A    between atoms: C_3  and  O_78 
REMARK    2  A    between atoms: C_5  and  O_77 
REMARK    3  A    between atoms: C_6  and  O_76 
REMARK    4  A    between atoms: C_7  and  O_15 
REMARK    5  A    between atoms: C_8  and  C_17 
REMARK    6  A    between atoms: C_9  and  O_13 
REMARK    7  A    between atoms: C_16  and  O_24 
REMARK    8  A    between atoms: C_18  and  O_22 
REMARK    9  A    between atoms: C_19  and  C_72 
REMARK   10  A    between atoms: C_20  and  O_23 
REMARK   11  A    between atoms: C_28  and  O_32 
REMARK   12  A    between atoms: C_30  and  O_33 
REMARK   13  A    between atoms: C_37  and  O_42 
REMARK   14  A    between atoms: C_39  and  O_43 
REMARK   15  A    between atoms: C_46  and  O_67 
REMARK   16  A    between atoms: C_48  and  O_65 
REMARK   17  A    between atoms: C_49  and  C_52 
REMARK   18  A    between atoms: C_50  and  O_66 
REMARK   19  A    between atoms: C_52  and  O_60 
REMARK   20  A    between atoms: C_54  and  O_60 
REMARK   21  A    between atoms: C_72  and  O_73 
ROOT
HETATM    1  C   UNK     0       2.877 -24.487 -23.815  0.00  0.00     0.058 A 
HETATM    2  C   UNK     0       1.866 -24.149 -22.927  0.00  0.00     0.060 A 
HETATM    3  C   UNK     0       4.194 -24.160 -23.547  0.00  0.00     0.102 A 
HETATM    4  C   UNK     0       2.179 -23.469 -21.742  0.00  0.00     0.127 A 
HETATM    5  C   UNK     0       4.509 -23.491 -22.380  0.00  0.00     0.135 A 
HETATM    6  C   UNK     0       3.507 -23.152 -21.487  0.00  0.00     0.137 A 
HETATM    7  C   UNK     0      -1.812 -23.048 -18.848  0.00  0.00     0.114 A 
HETATM    8  C   UNK     0      -2.767 -23.458 -19.775  0.00  0.00     0.030 A 
HETATM    9  C   UNK     0      -0.473 -22.923 -19.183  0.00  0.00     0.134 A 
HETATM   10  C   UNK     0      -2.329 -23.746 -21.075  0.00  0.00     0.059 A 
HETATM   11  C   UNK     0      -0.047 -23.206 -20.467  0.00  0.00     0.116 A 
HETATM   12  C   UNK     0      -0.988 -23.611 -21.389  0.00  0.00     0.329 A 
HETATM   13  O   UNK     0       1.285 -23.054 -20.775  0.00  0.00    -0.304 OA
HETATM   14  C   UNK     0      -3.179 -24.195 -22.183  0.00  0.00     0.295 C 
HETATM   15  C   UNK     0     -10.566 -27.271 -23.725  0.00  0.00     0.026 A 
HETATM   16  C   UNK     0      -9.321 -27.057 -24.310  0.00  0.00     0.006 A 
HETATM   17  C   UNK     0     -10.901 -26.734 -22.495  0.00  0.00     0.111 A 
HETATM   18  C   UNK     0      -8.393 -26.270 -23.604  0.00  0.00     0.054 A 
HETATM   19  C   UNK     0      -9.983 -25.964 -21.812  0.00  0.00     0.100 A 
HETATM   20  C   UNK     0      -8.739 -25.738 -22.369  0.00  0.00     0.058 A 
HETATM   21  O   UNK     0     -11.486 -28.024 -24.387  0.00  0.00     0.000 OA
HETATM   22  C   UNK     0     -10.352 -27.934 -26.374  0.00  0.00     0.026 A 
HETATM   23  C   UNK     0      -9.160 -27.712 -25.686  0.00  0.00     0.006 A 
HETATM   24  C   UNK     0     -10.378 -28.548 -27.615  0.00  0.00     0.111 A 
HETATM   25  C   UNK     0      -7.971 -28.128 -26.302  0.00  0.00     0.054 A 
HETATM   26  C   UNK     0      -9.199 -28.956 -28.204  0.00  0.00     0.100 A 
HETATM   27  C   UNK     0      -8.005 -28.744 -27.544  0.00  0.00     0.058 A 
HETATM   28  C   UNK     0      -6.649 -27.974 -25.716  0.00  0.00     0.294 C 
HETATM   29  O   UNK     0     -11.525 -27.544 -25.808  0.00  0.00     0.000 OA
HETATM   30  O   UNK     0      -6.300 -28.710 -24.822  0.00  0.00    -0.259 OA
HETATM   31  C   UNK     0      -3.449 -26.414 -26.276  0.00  0.00     0.302 C 
HETATM   32  C   UNK     0      -4.577 -26.994 -25.458  0.00  0.00     0.220 C 
HETATM   33  O   UNK     0      -2.236 -26.526 -25.519  0.00  0.00    -0.348 OA
HETATM   34  C   UNK     0      -4.735 -26.134 -24.248  0.00  0.00     0.198 C 
HETATM   35  C   UNK     0      -2.219 -25.927 -24.206  0.00  0.00     0.181 C 
HETATM   36  C   UNK     0      -3.496 -26.323 -23.383  0.00  0.00     0.195 C 
HETATM   37  C   UNK     0      -0.977 -26.419 -23.447  0.00  0.00     0.212 C 
HETATM   38  O   UNK     0      -5.921 -26.507 -23.559  0.00  0.00    -0.306 OA
HETATM   39  O   UNK     0      -3.588 -25.499 -22.218  0.00  0.00    -0.307 OA
HETATM   40  O   UNK     0      -5.790 -27.021 -26.182  0.00  0.00    -0.304 OA
HETATM   41  O   UNK     0       0.225 -25.756 -23.823  0.00  0.00    -0.328 OA
HETATM   42  C   UNK     0      -7.046 -25.923 -24.079  0.00  0.00     0.294 C 
HETATM   43  O   UNK     0      -6.923 -25.075 -24.930  0.00  0.00    -0.259 OA
HETATM   44  O   UNK     0      -3.464 -23.441 -23.085  0.00  0.00    -0.259 OA
HETATM   45  C   UNK     0       0.497 -24.533 -23.292  0.00  0.00     0.179 C 
HETATM   46  O   UNK     0      -0.411 -23.762 -23.079  0.00  0.00    -0.383 OA
HETATM   47  H   UNK     0     -12.398 -28.184 -23.979  0.00  0.00     0.000 HD
HETATM   48  H   UNK     0     -12.399 -27.705 -26.292  0.00  0.00     0.000 HD
ENDROOT
BRANCH   3  49
HETATM   49  O   UNK     0       5.175 -24.493 -24.427  0.00  0.00    -0.358 OA
HETATM   50  H   UNK     0       5.642 -25.388 -24.350  0.00  0.00     0.217 HD
ENDBRANCH   3  49
BRANCH   5  51
HETATM   51  O   UNK     0       5.802 -23.165 -22.109  0.00  0.00    -0.356 OA
HETATM   52  H   UNK     0       6.188 -22.297 -22.458  0.00  0.00     0.218 HD
ENDBRANCH   5  51
BRANCH   6  53
HETATM   53  O   UNK     0       3.827 -22.491 -20.341  0.00  0.00    -0.356 OA
HETATM   54  H   UNK     0       4.619 -21.861 -20.325  0.00  0.00     0.218 HD
ENDBRANCH   6  53
BRANCH   9  55
HETATM   55  O   UNK     0       0.421 -22.507 -18.246  0.00  0.00    -0.356 OA
HETATM   56  H   UNK     0       1.208 -21.932 -18.517  0.00  0.00     0.218 HD
ENDBRANCH   9  55
BRANCH   7  57
HETATM   57  O   UNK     0      -2.209 -22.750 -17.581  0.00  0.00    -0.357 OA
HETATM   58  H   UNK     0      -2.465 -23.493 -16.944  0.00  0.00     0.217 HD
ENDBRANCH   7  57
BRANCH   8  59
HETATM   59  C   UNK     0      -4.195 -23.512 -19.258  0.00  0.00     0.023 A 
HETATM   60  C   UNK     0      -4.919 -22.332 -19.401  0.00  0.00     0.113 A 
HETATM   61  C   UNK     0      -6.229 -22.228 -18.970  0.00  0.00     0.133 A 
HETATM   62  C   UNK     0      -6.849 -23.314 -18.386  0.00  0.00     0.102 A 
HETATM   63  C   UNK     0      -6.146 -24.494 -18.228  0.00  0.00     0.049 A 
HETATM   64  C   UNK     0      -4.829 -24.604 -18.653  0.00  0.00    -0.018 A 
BRANCH  60  65
HETATM   65  O   UNK     0      -4.318 -21.252 -19.970  0.00  0.00    -0.357 OA
HETATM   66  H   UNK     0      -3.549 -20.795 -19.500  0.00  0.00     0.217 HD
ENDBRANCH  60  65
BRANCH  61  67
HETATM   67  O   UNK     0      -6.904 -21.057 -19.118  0.00  0.00    -0.356 OA
HETATM   68  H   UNK     0      -7.173 -20.520 -18.304  0.00  0.00     0.218 HD
ENDBRANCH  61  67
BRANCH  62  69
HETATM   69  O   UNK     0      -8.138 -23.220 -17.964  0.00  0.00    -0.358 OA
HETATM   70  H   UNK     0      -8.896 -23.362 -18.618  0.00  0.00     0.217 HD
ENDBRANCH  62  69
BRANCH  64  71
HETATM   71  C   UNK     0      -4.163 -25.930 -18.410  0.00  0.00     0.203 C 
BRANCH  71  72
HETATM   72  O   UNK     0      -4.207 -26.683 -19.614  0.00  0.00    -0.396 OA
HETATM   73  H   UNK     0      -4.773 -27.520 -19.668  0.00  0.00     0.209 HD
ENDBRANCH  71  72
ENDBRANCH  64  71
ENDBRANCH   8  59
BRANCH  31  74
HETATM   74  O   UNK     0      -3.321 -27.126 -27.497  0.00  0.00    -0.283 OA
BRANCH  74  75
HETATM   75  C   UNK     0      -3.254 -26.407 -28.645  0.00  0.00     0.295 C 
HETATM   76  O   UNK     0      -2.195 -25.938 -28.993  0.00  0.00    -0.259 OA
BRANCH  75  77
HETATM   77  C   UNK     0      -4.451 -26.197 -29.471  0.00  0.00     0.045 A 
HETATM   78  C   UNK     0      -5.256 -27.269 -29.825  0.00  0.00     0.057 A 
HETATM   79  C   UNK     0      -6.379 -27.060 -30.611  0.00  0.00     0.102 A 
HETATM   80  C   UNK     0      -6.694 -25.782 -31.045  0.00  0.00     0.132 A 
HETATM   81  C   UNK     0      -5.890 -24.711 -30.690  0.00  0.00     0.102 A 
HETATM   82  C   UNK     0      -4.770 -24.919 -29.902  0.00  0.00     0.057 A 
BRANCH  79  83
HETATM   83  O   UNK     0      -7.173 -28.109 -30.959  0.00  0.00    -0.358 OA
HETATM   84  H   UNK     0      -7.591 -28.687 -30.241  0.00  0.00     0.217 HD
ENDBRANCH  79  83
BRANCH  80  85
HETATM   85  O   UNK     0      -7.792 -25.578 -31.822  0.00  0.00    -0.356 OA
HETATM   86  H   UNK     0      -7.821 -24.793 -32.461  0.00  0.00     0.218 HD
ENDBRANCH  80  85
BRANCH  81  87
HETATM   87  O   UNK     0      -6.197 -23.458 -31.118  0.00  0.00    -0.358 OA
HETATM   88  H   UNK     0      -5.477 -22.866 -31.510  0.00  0.00     0.217 HD
ENDBRANCH  81  87
ENDBRANCH  75  77
ENDBRANCH  74  75
ENDBRANCH  31  74
BRANCH  19  89
HETATM   89  O   UNK     0     -10.306 -25.431 -20.603  0.00  0.00    -0.358 OA
HETATM   90  H   UNK     0     -11.010 -25.874 -20.026  0.00  0.00     0.217 HD
ENDBRANCH  19  89
BRANCH  26  91
HETATM   91  O   UNK     0      -9.214 -29.567 -29.419  0.00  0.00    -0.358 OA
HETATM   92  H   UNK     0      -9.941 -30.234 -29.641  0.00  0.00     0.217 HD
ENDBRANCH  26  91
BRANCH  17  93
HETATM   93  O   UNK     0     -12.132 -26.959 -21.962  0.00  0.00    -0.357 OA
HETATM   94  H   UNK     0     -12.940 -27.033 -22.568  0.00  0.00     0.217 HD
ENDBRANCH  17  93
BRANCH  24  95
HETATM   95  O   UNK     0     -11.563 -28.755 -28.251  0.00  0.00    -0.357 OA
HETATM   96  H   UNK     0     -12.046 -29.638 -28.146  0.00  0.00     0.217 HD
ENDBRANCH  24  95
TORSDOF 21
ENDMDL
MODEL 18
REMARK VINA RESULT:      -7.1     22.391     25.224
REMARK  21 active torsions:
REMARK  status: ('A' for Active; 'I' for Inactive)
REMARK    1  A    between atoms: C_3  and  O_78 
REMARK    2  A    between atoms: C_5  and  O_77 
REMARK    3  A    between atoms: C_6  and  O_76 
REMARK    4  A    between atoms: C_7  and  O_15 
REMARK    5  A    between atoms: C_8  and  C_17 
REMARK    6  A    between atoms: C_9  and  O_13 
REMARK    7  A    between atoms: C_16  and  O_24 
REMARK    8  A    between atoms: C_18  and  O_22 
REMARK    9  A    between atoms: C_19  and  C_72 
REMARK   10  A    between atoms: C_20  and  O_23 
REMARK   11  A    between atoms: C_28  and  O_32 
REMARK   12  A    between atoms: C_30  and  O_33 
REMARK   13  A    between atoms: C_37  and  O_42 
REMARK   14  A    between atoms: C_39  and  O_43 
REMARK   15  A    between atoms: C_46  and  O_67 
REMARK   16  A    between atoms: C_48  and  O_65 
REMARK   17  A    between atoms: C_49  and  C_52 
REMARK   18  A    between atoms: C_50  and  O_66 
REMARK   19  A    between atoms: C_52  and  O_60 
REMARK   20  A    between atoms: C_54  and  O_60 
REMARK   21  A    between atoms: C_72  and  O_73 
ROOT
HETATM    1  C   UNK     0      -8.682 -25.479 -19.694  0.00  0.00     0.058 A 
HETATM    2  C   UNK     0      -7.513 -25.224 -20.396  0.00  0.00     0.060 A 
HETATM    3  C   UNK     0      -9.787 -26.013 -20.331  0.00  0.00     0.102 A 
HETATM    4  C   UNK     0      -7.446 -25.511 -21.767  0.00  0.00     0.127 A 
HETATM    5  C   UNK     0      -9.728 -26.300 -21.681  0.00  0.00     0.135 A 
HETATM    6  C   UNK     0      -8.565 -26.051 -22.389  0.00  0.00     0.137 A 
HETATM    7  C   UNK     0      -2.858 -24.831 -23.489  0.00  0.00     0.114 A 
HETATM    8  C   UNK     0      -2.329 -24.183 -22.376  0.00  0.00     0.030 A 
HETATM    9  C   UNK     0      -4.192 -25.203 -23.553  0.00  0.00     0.134 A 
HETATM   10  C   UNK     0      -3.194 -23.915 -21.307  0.00  0.00     0.059 A 
HETATM   11  C   UNK     0      -5.042 -24.935 -22.497  0.00  0.00     0.116 A 
HETATM   12  C   UNK     0      -4.523 -24.292 -21.393  0.00  0.00     0.329 A 
HETATM   13  O   UNK     0      -6.365 -25.299 -22.597  0.00  0.00    -0.304 OA
HETATM   14  C   UNK     0      -2.823 -23.250 -20.053  0.00  0.00     0.295 C 
HETATM   15  C   UNK     0       3.687 -21.111 -15.642  0.00  0.00     0.026 A 
HETATM   16  C   UNK     0       2.303 -21.245 -15.565  0.00  0.00     0.006 A 
HETATM   17  C   UNK     0       4.368 -21.215 -16.841  0.00  0.00     0.111 A 
HETATM   18  C   UNK     0       1.603 -21.498 -16.759  0.00  0.00     0.054 A 
HETATM   19  C   UNK     0       3.671 -21.464 -18.005  0.00  0.00     0.100 A 
HETATM   20  C   UNK     0       2.297 -21.603 -17.956  0.00  0.00     0.058 A 
HETATM   21  O   UNK     0       4.390 -20.861 -14.504  0.00  0.00     0.000 OA
HETATM   22  C   UNK     0       2.528 -20.296 -13.297  0.00  0.00     0.026 A 
HETATM   23  C   UNK     0       1.739 -21.065 -14.151  0.00  0.00     0.006 A 
HETATM   24  C   UNK     0       2.173 -20.070 -11.978  0.00  0.00     0.111 A 
HETATM   25  C   UNK     0       0.554 -21.603 -13.628  0.00  0.00     0.054 A 
HETATM   26  C   UNK     0       1.006 -20.611 -11.478  0.00  0.00     0.100 A 
HETATM   27  C   UNK     0       0.206 -21.372 -12.306  0.00  0.00     0.058 A 
HETATM   28  C   UNK     0      -0.374 -22.427 -14.385  0.00  0.00     0.294 C 
HETATM   29  O   UNK     0       3.684 -19.759 -13.770  0.00  0.00     0.000 OA
HETATM   30  O   UNK     0      -0.097 -23.582 -14.617  0.00  0.00    -0.259 OA
HETATM   31  C   UNK     0      -3.784 -22.552 -15.544  0.00  0.00     0.302 C 
HETATM   32  C   UNK     0      -2.306 -22.853 -15.572  0.00  0.00     0.220 C 
HETATM   33  O   UNK     0      -4.475 -23.603 -16.233  0.00  0.00    -0.348 OA
HETATM   34  C   UNK     0      -1.869 -22.803 -16.997  0.00  0.00     0.198 C 
HETATM   35  C   UNK     0      -4.077 -23.873 -17.593  0.00  0.00     0.181 C 
HETATM   36  C   UNK     0      -2.516 -23.977 -17.720  0.00  0.00     0.195 C 
HETATM   37  C   UNK     0      -4.693 -25.208 -18.039  0.00  0.00     0.212 C 
HETATM   38  O   UNK     0      -0.451 -22.863 -17.057  0.00  0.00    -0.306 OA
HETATM   39  O   UNK     0      -2.146 -23.960 -19.101  0.00  0.00    -0.307 OA
HETATM   40  O   UNK     0      -1.565 -21.918 -14.815  0.00  0.00    -0.304 OA
HETATM   41  O   UNK     0      -6.066 -25.114 -18.403  0.00  0.00    -0.328 OA
HETATM   42  C   UNK     0       0.144 -21.644 -16.867  0.00  0.00     0.294 C 
HETATM   43  O   UNK     0      -0.551 -20.657 -16.820  0.00  0.00    -0.259 OA
HETATM   44  O   UNK     0      -3.164 -22.109 -19.838  0.00  0.00    -0.259 OA
HETATM   45  C   UNK     0      -6.389 -24.655 -19.643  0.00  0.00     0.179 C 
HETATM   46  O   UNK     0      -5.713 -23.790 -20.151  0.00  0.00    -0.383 OA
HETATM   47  H   UNK     0       5.395 -20.755 -14.544  0.00  0.00     0.000 HD
HETATM   48  H   UNK     0       4.271 -19.205 -13.159  0.00  0.00     0.000 HD
ENDROOT
BRANCH   3  49
HETATM   49  O   UNK     0     -10.929 -26.255 -19.632  0.00  0.00    -0.358 OA
HETATM   50  H   UNK     0     -11.038 -25.886 -18.696  0.00  0.00     0.217 HD
ENDBRANCH   3  49
BRANCH   5  51
HETATM   51  O   UNK     0     -10.813 -26.825 -22.314  0.00  0.00    -0.356 OA
HETATM   52  H   UNK     0     -11.194 -27.713 -22.011  0.00  0.00     0.218 HD
ENDBRANCH   5  51
BRANCH   6  53
HETATM   53  O   UNK     0      -8.518 -26.335 -23.719  0.00  0.00    -0.356 OA
HETATM   54  H   UNK     0      -9.374 -26.504 -24.231  0.00  0.00     0.218 HD
ENDBRANCH   6  53
BRANCH   9  55
HETATM   55  O   UNK     0      -4.666 -25.824 -24.667  0.00  0.00    -0.356 OA
HETATM   56  H   UNK     0      -5.116 -25.284 -25.395  0.00  0.00     0.218 HD
ENDBRANCH   9  55
BRANCH   7  57
HETATM   57  O   UNK     0      -2.046 -25.094 -24.548  0.00  0.00    -0.357 OA
HETATM   58  H   UNK     0      -2.445 -25.241 -25.466  0.00  0.00     0.217 HD
ENDBRANCH   7  57
BRANCH   8  59
HETATM   59  C   UNK     0      -0.858 -23.813 -22.477  0.00  0.00     0.023 A 
HETATM   60  C   UNK     0       0.012 -24.663 -21.802  0.00  0.00     0.113 A 
HETATM   61  C   UNK     0       1.379 -24.449 -21.798  0.00  0.00     0.133 A 
HETATM   62  C   UNK     0       1.907 -23.371 -22.480  0.00  0.00     0.102 A 
HETATM   63  C   UNK     0       1.060 -22.510 -23.151  0.00  0.00     0.049 A 
HETATM   64  C   UNK     0      -0.313 -22.715 -23.155  0.00  0.00    -0.018 A 
BRANCH  60  65
HETATM   65  O   UNK     0      -0.496 -25.726 -21.122  0.00  0.00    -0.357 OA
HETATM   66  H   UNK     0      -0.114 -25.980 -20.221  0.00  0.00     0.217 HD
ENDBRANCH  60  65
BRANCH  61  67
HETATM   67  O   UNK     0       2.199 -25.296 -21.122  0.00  0.00    -0.356 OA
HETATM   68  H   UNK     0       1.901 -25.694 -20.240  0.00  0.00     0.218 HD
ENDBRANCH  61  67
BRANCH  62  69
HETATM   69  O   UNK     0       3.250 -23.157 -22.484  0.00  0.00    -0.358 OA
HETATM   70  H   UNK     0       3.818 -23.491 -21.716  0.00  0.00     0.217 HD
ENDBRANCH  62  69
BRANCH  64  71
HETATM   71  C   UNK     0      -1.132 -21.701 -23.903  0.00  0.00     0.203 C 
BRANCH  71  72
HETATM   72  O   UNK     0      -0.248 -20.814 -24.574  0.00  0.00    -0.396 OA
HETATM   73  H   UNK     0      -0.577 -20.274 -25.365  0.00  0.00     0.209 HD
ENDBRANCH  71  72
ENDBRANCH  64  71
ENDBRANCH   8  59
BRANCH  31  74
HETATM   74  O   UNK     0      -4.238 -22.477 -14.201  0.00  0.00    -0.283 OA
BRANCH  74  75
HETATM   75  C   UNK     0      -5.135 -21.509 -13.888  0.00  0.00     0.295 C 
HETATM   76  O   UNK     0      -6.267 -21.589 -14.305  0.00  0.00    -0.259 OA
BRANCH  75  77
HETATM   77  C   UNK     0      -4.748 -20.370 -13.045  0.00  0.00     0.045 A 
HETATM   78  C   UNK     0      -5.471 -19.188 -13.087  0.00  0.00     0.057 A 
HETATM   79  C   UNK     0      -5.092 -18.118 -12.292  0.00  0.00     0.102 A 
HETATM   80  C   UNK     0      -3.990 -18.227 -11.459  0.00  0.00     0.132 A 
HETATM   81  C   UNK     0      -3.268 -19.410 -11.417  0.00  0.00     0.102 A 
HETATM   82  C   UNK     0      -3.649 -20.481 -12.208  0.00  0.00     0.057 A 
BRANCH  79  83
HETATM   83  O   UNK     0      -5.801 -16.956 -12.328  0.00  0.00    -0.358 OA
HETATM   84  H   UNK     0      -6.138 -16.541 -11.469  0.00  0.00     0.217 HD
ENDBRANCH  79  83
BRANCH  80  85
HETATM   85  O   UNK     0      -3.614 -17.174 -10.684  0.00  0.00    -0.356 OA
HETATM   86  H   UNK     0      -2.928 -17.305  -9.950  0.00  0.00     0.218 HD
ENDBRANCH  80  85
BRANCH  81  87
HETATM   87  O   UNK     0      -2.186 -19.517 -10.602  0.00  0.00    -0.358 OA
HETATM   88  H   UNK     0      -1.711 -20.405 -10.505  0.00  0.00     0.217 HD
ENDBRANCH  81  87
ENDBRANCH  75  77
ENDBRANCH  74  75
ENDBRANCH  31  74
BRANCH  19  89
HETATM   89  O   UNK     0       4.334 -21.566 -19.188  0.00  0.00    -0.358 OA
HETATM   90  H   UNK     0       4.371 -22.453 -19.674  0.00  0.00     0.217 HD
ENDBRANCH  19  89
BRANCH  26  91
HETATM   91  O   UNK     0       0.652 -20.400 -10.182  0.00  0.00    -0.358 OA
HETATM   92  H   UNK     0       1.346 -20.099  -9.511  0.00  0.00     0.217 HD
ENDBRANCH  26  91
BRANCH  17  93
HETATM   93  O   UNK     0       5.720 -21.068 -16.874  0.00  0.00    -0.357 OA
HETATM   94  H   UNK     0       6.280 -21.665 -17.471  0.00  0.00     0.217 HD
ENDBRANCH  17  93
BRANCH  24  95
HETATM   95  O   UNK     0       2.974 -19.321 -11.173  0.00  0.00    -0.357 OA
HETATM   96  H   UNK     0       3.638 -19.773 -10.558  0.00  0.00     0.217 HD
ENDBRANCH  24  95
TORSDOF 21
ENDMDL
MODEL 19
REMARK VINA RESULT:      -7.1      4.344      9.506
REMARK  21 active torsions:
REMARK  status: ('A' for Active; 'I' for Inactive)
REMARK    1  A    between atoms: C_3  and  O_78 
REMARK    2  A    between atoms: C_5  and  O_77 
REMARK    3  A    between atoms: C_6  and  O_76 
REMARK    4  A    between atoms: C_7  and  O_15 
REMARK    5  A    between atoms: C_8  and  C_17 
REMARK    6  A    between atoms: C_9  and  O_13 
REMARK    7  A    between atoms: C_16  and  O_24 
REMARK    8  A    between atoms: C_18  and  O_22 
REMARK    9  A    between atoms: C_19  and  C_72 
REMARK   10  A    between atoms: C_20  and  O_23 
REMARK   11  A    between atoms: C_28  and  O_32 
REMARK   12  A    between atoms: C_30  and  O_33 
REMARK   13  A    between atoms: C_37  and  O_42 
REMARK   14  A    between atoms: C_39  and  O_43 
REMARK   15  A    between atoms: C_46  and  O_67 
REMARK   16  A    between atoms: C_48  and  O_65 
REMARK   17  A    between atoms: C_49  and  C_52 
REMARK   18  A    between atoms: C_50  and  O_66 
REMARK   19  A    between atoms: C_52  and  O_60 
REMARK   20  A    between atoms: C_54  and  O_60 
REMARK   21  A    between atoms: C_72  and  O_73 
ROOT
HETATM    1  C   UNK     0       6.634  -9.822 -25.516  0.00  0.00     0.058 A 
HETATM    2  C   UNK     0       6.440  -8.967 -26.591  0.00  0.00     0.060 A 
HETATM    3  C   UNK     0       7.148 -11.093 -25.705  0.00  0.00     0.102 A 
HETATM    4  C   UNK     0       6.768  -9.391 -27.886  0.00  0.00     0.127 A 
HETATM    5  C   UNK     0       7.475 -11.516 -26.979  0.00  0.00     0.135 A 
HETATM    6  C   UNK     0       7.286 -10.669 -28.057  0.00  0.00     0.137 A 
HETATM    7  C   UNK     0       6.298  -5.681 -31.126  0.00  0.00     0.114 A 
HETATM    8  C   UNK     0       5.637  -4.782 -30.293  0.00  0.00     0.030 A 
HETATM    9  C   UNK     0       6.625  -6.961 -30.706  0.00  0.00     0.134 A 
HETATM   10  C   UNK     0       5.309  -5.212 -29.001  0.00  0.00     0.059 A 
HETATM   11  C   UNK     0       6.297  -7.382 -29.431  0.00  0.00     0.116 A 
HETATM   12  C   UNK     0       5.641  -6.495 -28.604  0.00  0.00     0.329 A 
HETATM   13  O   UNK     0       6.617  -8.664 -29.049  0.00  0.00    -0.304 OA
HETATM   14  C   UNK     0       4.621  -4.411 -27.982  0.00  0.00     0.295 C 
HETATM   15  C   UNK     0       2.586   3.278 -26.206  0.00  0.00     0.026 A 
HETATM   16  C   UNK     0       2.669   2.006 -25.645  0.00  0.00     0.006 A 
HETATM   17  C   UNK     0       2.747   3.494 -27.562  0.00  0.00     0.111 A 
HETATM   18  C   UNK     0       2.931   0.927 -26.509  0.00  0.00     0.054 A 
HETATM   19  C   UNK     0       3.005   2.428 -28.399  0.00  0.00     0.100 A 
HETATM   20  C   UNK     0       3.095   1.155 -27.869  0.00  0.00     0.058 A 
HETATM   21  O   UNK     0       2.328   4.340 -25.395  0.00  0.00     0.000 OA
HETATM   22  C   UNK     0       1.665   3.032 -23.637  0.00  0.00     0.026 A 
HETATM   23  C   UNK     0       2.429   1.976 -24.132  0.00  0.00     0.006 A 
HETATM   24  C   UNK     0       1.389   3.165 -22.287  0.00  0.00     0.111 A 
HETATM   25  C   UNK     0       2.910   1.037 -23.208  0.00  0.00     0.054 A 
HETATM   26  C   UNK     0       1.874   2.235 -21.391  0.00  0.00     0.100 A 
HETATM   27  C   UNK     0       2.630   1.179 -21.857  0.00  0.00     0.058 A 
HETATM   28  C   UNK     0       3.723  -0.116 -23.561  0.00  0.00     0.294 C 
HETATM   29  O   UNK     0       1.182   3.961 -24.504  0.00  0.00     0.000 OA
HETATM   30  O   UNK     0       4.893   0.037 -23.830  0.00  0.00    -0.259 OA
HETATM   31  C   UNK     0       3.762  -3.717 -23.452  0.00  0.00     0.302 C 
HETATM   32  C   UNK     0       4.116  -2.350 -23.981  0.00  0.00     0.220 C 
HETATM   33  O   UNK     0       4.807  -4.629 -23.815  0.00  0.00    -0.348 OA
HETATM   34  C   UNK     0       4.121  -2.438 -25.471  0.00  0.00     0.198 C 
HETATM   35  C   UNK     0       5.130  -4.738 -25.217  0.00  0.00     0.181 C 
HETATM   36  C   UNK     0       5.292  -3.323 -25.876  0.00  0.00     0.195 C 
HETATM   37  C   UNK     0       6.455  -5.502 -25.368  0.00  0.00     0.212 C 
HETATM   38  O   UNK     0       4.232  -1.132 -26.019  0.00  0.00    -0.306 OA
HETATM   39  O   UNK     0       5.327  -3.460 -27.299  0.00  0.00    -0.307 OA
HETATM   40  O   UNK     0       3.186  -1.370 -23.568  0.00  0.00    -0.304 OA
HETATM   41  O   UNK     0       6.323  -6.912 -25.233  0.00  0.00    -0.328 OA
HETATM   42  C   UNK     0       3.030  -0.480 -26.096  0.00  0.00     0.294 C 
HETATM   43  O   UNK     0       2.018  -1.093 -25.848  0.00  0.00    -0.259 OA
HETATM   44  O   UNK     0       3.463  -4.628 -27.706  0.00  0.00    -0.259 OA
HETATM   45  C   UNK     0       5.890  -7.638 -26.299  0.00  0.00     0.179 C 
HETATM   46  O   UNK     0       5.063  -7.164 -27.045  0.00  0.00    -0.383 OA
HETATM   47  H   UNK     0       2.258   5.270 -25.787  0.00  0.00     0.000 HD
HETATM   48  H   UNK     0       0.631   4.737 -24.159  0.00  0.00     0.000 HD
ENDROOT
BRANCH   3  49
HETATM   49  O   UNK     0       7.330 -11.923 -24.644  0.00  0.00    -0.358 OA
HETATM   50  H   UNK     0       8.242 -11.999 -24.210  0.00  0.00     0.217 HD
ENDBRANCH   3  49
BRANCH   5  51
HETATM   51  O   UNK     0       7.980 -12.765 -27.173  0.00  0.00    -0.356 OA
HETATM   52  H   UNK     0       7.467 -13.574 -26.846  0.00  0.00     0.218 HD
ENDBRANCH   5  51
BRANCH   6  53
HETATM   53  O   UNK     0       7.609 -11.096 -29.308  0.00  0.00    -0.356 OA
HETATM   54  H   UNK     0       7.017 -11.765 -29.783  0.00  0.00     0.218 HD
ENDBRANCH   6  53
BRANCH   9  55
HETATM   55  O   UNK     0       7.260  -7.809 -31.559  0.00  0.00    -0.356 OA
HETATM   56  H   UNK     0       6.888  -8.736 -31.723  0.00  0.00     0.218 HD
ENDBRANCH   9  55
BRANCH   7  57
HETATM   57  O   UNK     0       6.619  -5.297 -32.390  0.00  0.00    -0.357 OA
HETATM   58  H   UNK     0       5.887  -5.135 -33.070  0.00  0.00     0.217 HD
ENDBRANCH   7  57
BRANCH   8  59
HETATM   59  C   UNK     0       5.321  -3.431 -30.915  0.00  0.00     0.023 A 
HETATM   60  C   UNK     0       4.064  -3.331 -31.503  0.00  0.00     0.113 A 
HETATM   61  C   UNK     0       3.639  -2.166 -32.115  0.00  0.00     0.133 A 
HETATM   62  C   UNK     0       4.470  -1.065 -32.148  0.00  0.00     0.102 A 
HETATM   63  C   UNK     0       5.727  -1.144 -31.577  0.00  0.00     0.049 A 
HETATM   64  C   UNK     0       6.162  -2.312 -30.966  0.00  0.00    -0.018 A 
BRANCH  60  65
HETATM   65  O   UNK     0       3.236  -4.411 -31.482  0.00  0.00    -0.357 OA
HETATM   66  H   UNK     0       2.237  -4.285 -31.575  0.00  0.00     0.217 HD
ENDBRANCH  60  65
BRANCH  61  67
HETATM   67  O   UNK     0       2.407  -2.107 -32.686  0.00  0.00    -0.356 OA
HETATM   68  H   UNK     0       2.151  -2.767 -33.409  0.00  0.00     0.218 HD
ENDBRANCH  61  67
BRANCH  62  69
HETATM   69  O   UNK     0       4.057   0.085 -32.744  0.00  0.00    -0.358 OA
HETATM   70  H   UNK     0       4.675   0.885 -32.783  0.00  0.00     0.217 HD
ENDBRANCH  62  69
BRANCH  64  71
HETATM   71  C   UNK     0       7.553  -2.283 -30.398  0.00  0.00     0.203 C 
BRANCH  71  72
HETATM   72  O   UNK     0       7.461  -2.154 -28.985  0.00  0.00    -0.396 OA
HETATM   73  H   UNK     0       6.574  -2.302 -28.520  0.00  0.00     0.209 HD
ENDBRANCH  71  72
ENDBRANCH  64  71
ENDBRANCH   8  59
BRANCH  31  74
HETATM   74  O   UNK     0       3.633  -3.671 -22.039  0.00  0.00    -0.283 OA
BRANCH  74  75
HETATM   75  C   UNK     0       4.670  -3.168 -21.324  0.00  0.00     0.295 C 
HETATM   76  O   UNK     0       5.787  -3.585 -21.522  0.00  0.00    -0.259 OA
BRANCH  75  77
HETATM   77  C   UNK     0       4.451  -2.120 -20.318  0.00  0.00     0.045 A 
HETATM   78  C   UNK     0       5.527  -1.505 -19.699  0.00  0.00     0.057 A 
HETATM   79  C   UNK     0       5.308  -0.522 -18.746  0.00  0.00     0.102 A 
HETATM   80  C   UNK     0       4.013  -0.157 -18.411  0.00  0.00     0.132 A 
HETATM   81  C   UNK     0       2.937  -0.771 -19.031  0.00  0.00     0.102 A 
HETATM   82  C   UNK     0       3.156  -1.751 -19.986  0.00  0.00     0.057 A 
BRANCH  79  83
HETATM   83  O   UNK     0       6.363   0.086 -18.137  0.00  0.00    -0.358 OA
HETATM   84  H   UNK     0       7.234  -0.415 -18.015  0.00  0.00     0.217 HD
ENDBRANCH  79  83
BRANCH  80  85
HETATM   85  O   UNK     0       3.798   0.803 -17.471  0.00  0.00    -0.356 OA
HETATM   86  H   UNK     0       4.533   1.461 -17.242  0.00  0.00     0.218 HD
ENDBRANCH  80  85
BRANCH  81  87
HETATM   87  O   UNK     0       1.668  -0.415 -18.701  0.00  0.00    -0.358 OA
HETATM   88  H   UNK     0       1.508   0.338 -18.045  0.00  0.00     0.217 HD
ENDBRANCH  81  87
ENDBRANCH  75  77
ENDBRANCH  74  75
ENDBRANCH  31  74
BRANCH  19  89
HETATM   89  O   UNK     0       3.163   2.633 -29.734  0.00  0.00    -0.358 OA
HETATM   90  H   UNK     0       2.945   1.893 -30.390  0.00  0.00     0.217 HD
ENDBRANCH  19  89
BRANCH  26  91
HETATM   91  O   UNK     0       1.614   2.362 -20.062  0.00  0.00    -0.358 OA
HETATM   92  H   UNK     0       2.376   2.475 -19.406  0.00  0.00     0.217 HD
ENDBRANCH  26  91
BRANCH  17  93
HETATM   93  O   UNK     0       2.649   4.752 -28.070  0.00  0.00    -0.357 OA
HETATM   94  H   UNK     0       2.150   5.468 -27.557  0.00  0.00     0.217 HD
ENDBRANCH  17  93
BRANCH  24  95
HETATM   95  O   UNK     0       0.645   4.215 -21.842  0.00  0.00    -0.357 OA
HETATM   96  H   UNK     0      -0.086   4.062 -21.160  0.00  0.00     0.217 HD
ENDBRANCH  24  95
TORSDOF 21
ENDMDL
MODEL 20
REMARK VINA RESULT:      -7.1     21.827     26.924
REMARK  21 active torsions:
REMARK  status: ('A' for Active; 'I' for Inactive)
REMARK    1  A    between atoms: C_3  and  O_78 
REMARK    2  A    between atoms: C_5  and  O_77 
REMARK    3  A    between atoms: C_6  and  O_76 
REMARK    4  A    between atoms: C_7  and  O_15 
REMARK    5  A    between atoms: C_8  and  C_17 
REMARK    6  A    between atoms: C_9  and  O_13 
REMARK    7  A    between atoms: C_16  and  O_24 
REMARK    8  A    between atoms: C_18  and  O_22 
REMARK    9  A    between atoms: C_19  and  C_72 
REMARK   10  A    between atoms: C_20  and  O_23 
REMARK   11  A    between atoms: C_28  and  O_32 
REMARK   12  A    between atoms: C_30  and  O_33 
REMARK   13  A    between atoms: C_37  and  O_42 
REMARK   14  A    between atoms: C_39  and  O_43 
REMARK   15  A    between atoms: C_46  and  O_67 
REMARK   16  A    between atoms: C_48  and  O_65 
REMARK   17  A    between atoms: C_49  and  C_52 
REMARK   18  A    between atoms: C_50  and  O_66 
REMARK   19  A    between atoms: C_52  and  O_60 
REMARK   20  A    between atoms: C_54  and  O_60 
REMARK   21  A    between atoms: C_72  and  O_73 
ROOT
HETATM    1  C   UNK     0       0.938 -21.112 -15.802  0.00  0.00     0.058 A 
HETATM    2  C   UNK     0      -0.348 -21.478 -16.172  0.00  0.00     0.060 A 
HETATM    3  C   UNK     0       1.216 -20.715 -14.506  0.00  0.00     0.102 A 
HETATM    4  C   UNK     0      -1.381 -21.448 -15.225  0.00  0.00     0.127 A 
HETATM    5  C   UNK     0       0.203 -20.685 -13.567  0.00  0.00     0.135 A 
HETATM    6  C   UNK     0      -1.083 -21.050 -13.928  0.00  0.00     0.137 A 
HETATM    7  C   UNK     0      -5.547 -23.349 -17.100  0.00  0.00     0.114 A 
HETATM    8  C   UNK     0      -5.147 -23.410 -18.432  0.00  0.00     0.030 A 
HETATM    9  C   UNK     0      -4.732 -22.810 -16.116  0.00  0.00     0.134 A 
HETATM   10  C   UNK     0      -3.881 -22.905 -18.755  0.00  0.00     0.059 A 
HETATM   11  C   UNK     0      -3.484 -22.312 -16.441  0.00  0.00     0.116 A 
HETATM   12  C   UNK     0      -3.085 -22.369 -17.759  0.00  0.00     0.329 A 
HETATM   13  O   UNK     0      -2.706 -21.766 -15.446  0.00  0.00    -0.304 OA
HETATM   14  C   UNK     0      -3.285 -22.886 -20.096  0.00  0.00     0.295 C 
HETATM   15  C   UNK     0      -4.158 -26.136 -27.518  0.00  0.00     0.026 A 
HETATM   16  C   UNK     0      -3.262 -25.414 -26.733  0.00  0.00     0.006 A 
HETATM   17  C   UNK     0      -5.458 -26.375 -27.116  0.00  0.00     0.111 A 
HETATM   18  C   UNK     0      -3.722 -24.930 -25.495  0.00  0.00     0.054 A 
HETATM   19  C   UNK     0      -5.898 -25.896 -25.899  0.00  0.00     0.100 A 
HETATM   20  C   UNK     0      -5.029 -25.179 -25.099  0.00  0.00     0.058 A 
HETATM   21  O   UNK     0      -3.743 -26.612 -28.724  0.00  0.00     0.000 OA
HETATM   22  C   UNK     0      -1.863 -25.305 -28.764  0.00  0.00     0.026 A 
HETATM   23  C   UNK     0      -1.881 -25.233 -27.372  0.00  0.00     0.006 A 
HETATM   24  C   UNK     0      -0.689 -25.195 -29.488  0.00  0.00     0.111 A 
HETATM   25  C   UNK     0      -0.656 -25.036 -26.719  0.00  0.00     0.054 A 
HETATM   26  C   UNK     0       0.509 -25.006 -28.829  0.00  0.00     0.100 A 
HETATM   27  C   UNK     0       0.517 -24.928 -27.451  0.00  0.00     0.058 A 
HETATM   28  C   UNK     0      -0.503 -24.944 -25.276  0.00  0.00     0.294 C 
HETATM   29  O   UNK     0      -3.033 -25.495 -29.431  0.00  0.00     0.000 OA
HETATM   30  O   UNK     0      -0.561 -25.947 -24.602  0.00  0.00    -0.259 OA
HETATM   31  C   UNK     0       0.604 -22.723 -22.663  0.00  0.00     0.302 C 
HETATM   32  C   UNK     0      -0.200 -23.846 -23.270  0.00  0.00     0.220 C 
HETATM   33  O   UNK     0       0.727 -22.963 -21.255  0.00  0.00    -0.348 OA
HETATM   34  C   UNK     0      -1.574 -23.770 -22.692  0.00  0.00     0.198 C 
HETATM   35  C   UNK     0      -0.494 -23.124 -20.503  0.00  0.00     0.181 C 
HETATM   36  C   UNK     0      -1.473 -24.124 -21.214  0.00  0.00     0.195 C 
HETATM   37  C   UNK     0      -0.156 -23.677 -19.111  0.00  0.00     0.212 C 
HETATM   38  O   UNK     0      -2.428 -24.666 -23.391  0.00  0.00    -0.306 OA
HETATM   39  O   UNK     0      -2.764 -24.043 -20.606  0.00  0.00    -0.307 OA
HETATM   40  O   UNK     0      -0.272 -23.740 -24.677  0.00  0.00    -0.304 OA
HETATM   41  O   UNK     0       0.334 -22.694 -18.206  0.00  0.00    -0.328 OA
HETATM   42  C   UNK     0      -2.925 -24.133 -24.551  0.00  0.00     0.294 C 
HETATM   43  O   UNK     0      -2.727 -22.965 -24.789  0.00  0.00    -0.259 OA
HETATM   44  O   UNK     0      -3.200 -21.852 -20.717  0.00  0.00    -0.259 OA
HETATM   45  C   UNK     0      -0.554 -21.884 -17.567  0.00  0.00     0.179 C 
HETATM   46  O   UNK     0      -1.553 -21.524 -18.147  0.00  0.00    -0.383 OA
HETATM   47  H   UNK     0      -4.383 -27.133 -29.310  0.00  0.00     0.000 HD
HETATM   48  H   UNK     0      -3.035 -25.556 -30.442  0.00  0.00     0.000 HD
ENDROOT
BRANCH   3  49
HETATM   49  O   UNK     0       2.480 -20.355 -14.157  0.00  0.00    -0.358 OA
HETATM   50  H   UNK     0       2.681 -19.395 -13.904  0.00  0.00     0.217 HD
ENDBRANCH   3  49
BRANCH   5  51
HETATM   51  O   UNK     0       0.469 -20.295 -12.291  0.00  0.00    -0.356 OA
HETATM   52  H   UNK     0      -0.252 -19.846 -11.739  0.00  0.00     0.218 HD
ENDBRANCH   5  51
BRANCH   6  53
HETATM   53  O   UNK     0      -2.074 -21.015 -12.996  0.00  0.00    -0.356 OA
HETATM   54  H   UNK     0      -2.299 -21.846 -12.464  0.00  0.00     0.218 HD
ENDBRANCH   6  53
BRANCH   9  55
HETATM   55  O   UNK     0      -5.170 -22.762 -14.829  0.00  0.00    -0.356 OA
HETATM   56  H   UNK     0      -6.049 -23.195 -14.577  0.00  0.00     0.218 HD
ENDBRANCH   9  55
BRANCH   7  57
HETATM   57  O   UNK     0      -6.776 -23.820 -16.757  0.00  0.00    -0.357 OA
HETATM   58  H   UNK     0      -6.985 -24.027 -15.788  0.00  0.00     0.217 HD
ENDBRANCH   7  57
BRANCH   8  59
HETATM   59  C   UNK     0      -6.170 -23.998 -19.391  0.00  0.00     0.023 A 
HETATM   60  C   UNK     0      -7.210 -23.143 -19.743  0.00  0.00     0.113 A 
HETATM   61  C   UNK     0      -8.218 -23.541 -20.601  0.00  0.00     0.133 A 
HETATM   62  C   UNK     0      -8.204 -24.815 -21.134  0.00  0.00     0.102 A 
HETATM   63  C   UNK     0      -7.184 -25.683 -20.793  0.00  0.00     0.049 A 
HETATM   64  C   UNK     0      -6.172 -25.292 -19.927  0.00  0.00    -0.018 A 
BRANCH  60  65
HETATM   65  O   UNK     0      -7.238 -21.887 -19.221  0.00  0.00    -0.357 OA
HETATM   66  H   UNK     0      -7.093 -21.747 -18.230  0.00  0.00     0.217 HD
ENDBRANCH  60  65
BRANCH  61  67
HETATM   67  O   UNK     0      -9.223 -22.682 -20.917  0.00  0.00    -0.356 OA
HETATM   68  H   UNK     0     -10.183 -22.925 -20.707  0.00  0.00     0.218 HD
ENDBRANCH  61  67
BRANCH  62  69
HETATM   69  O   UNK     0      -9.190 -25.211 -21.982  0.00  0.00    -0.358 OA
HETATM   70  H   UNK     0     -10.068 -24.710 -22.007  0.00  0.00     0.217 HD
ENDBRANCH  62  69
BRANCH  64  71
HETATM   71  C   UNK     0      -5.129 -26.329 -19.616  0.00  0.00     0.203 C 
BRANCH  71  72
HETATM   72  O   UNK     0      -4.239 -26.419 -20.720  0.00  0.00    -0.396 OA
HETATM   73  H   UNK     0      -3.614 -25.650 -20.930  0.00  0.00     0.209 HD
ENDBRANCH  71  72
ENDBRANCH  64  71
ENDBRANCH   8  59
BRANCH  31  74
HETATM   74  O   UNK     0       1.893 -22.674 -23.257  0.00  0.00    -0.283 OA
BRANCH  74  75
HETATM   75  C   UNK     0       2.331 -21.478 -23.722  0.00  0.00     0.295 C 
HETATM   76  O   UNK     0       2.426 -20.542 -22.961  0.00  0.00    -0.259 OA
BRANCH  75  77
HETATM   77  C   UNK     0       2.698 -21.309 -25.134  0.00  0.00     0.045 A 
HETATM   78  C   UNK     0       2.719 -20.048 -25.708  0.00  0.00     0.057 A 
HETATM   79  C   UNK     0       3.060 -19.901 -27.044  0.00  0.00     0.102 A 
HETATM   80  C   UNK     0       3.376 -21.015 -27.806  0.00  0.00     0.132 A 
HETATM   81  C   UNK     0       3.356 -22.276 -27.231  0.00  0.00     0.102 A 
HETATM   82  C   UNK     0       3.019 -22.422 -25.896  0.00  0.00     0.057 A 
BRANCH  79  83
HETATM   83  O   UNK     0       3.083 -18.664 -27.611  0.00  0.00    -0.358 OA
HETATM   84  H   UNK     0       2.518 -18.471 -28.427  0.00  0.00     0.217 HD
ENDBRANCH  79  83
BRANCH  80  85
HETATM   85  O   UNK     0       3.704 -20.873 -29.118  0.00  0.00    -0.356 OA
HETATM   86  H   UNK     0       4.195 -21.615 -29.601  0.00  0.00     0.218 HD
ENDBRANCH  80  85
BRANCH  81  87
HETATM   87  O   UNK     0       3.664 -23.369 -27.978  0.00  0.00    -0.358 OA
HETATM   88  H   UNK     0       4.210 -23.266 -28.824  0.00  0.00     0.217 HD
ENDBRANCH  81  87
ENDBRANCH  75  77
ENDBRANCH  74  75
ENDBRANCH  31  74
BRANCH  19  89
HETATM   89  O   UNK     0      -7.176 -26.126 -25.498  0.00  0.00    -0.358 OA
HETATM   90  H   UNK     0      -7.514 -25.731 -24.629  0.00  0.00     0.217 HD
ENDBRANCH  19  89
BRANCH  26  91
HETATM   91  O   UNK     0       1.670 -24.904 -29.531  0.00  0.00    -0.358 OA
HETATM   92  H   UNK     0       1.795 -24.152 -30.195  0.00  0.00     0.217 HD
ENDBRANCH  26  91
BRANCH  17  93
HETATM   93  O   UNK     0      -6.305 -27.077 -27.918  0.00  0.00    -0.357 OA
HETATM   94  H   UNK     0      -6.962 -27.731 -27.511  0.00  0.00     0.217 HD
ENDBRANCH  17  93
BRANCH  24  95
HETATM   95  O   UNK     0      -0.711 -25.278 -30.846  0.00  0.00    -0.357 OA
HETATM   96  H   UNK     0      -1.001 -26.137 -31.295  0.00  0.00     0.217 HD
ENDBRANCH  24  95
TORSDOF 21
ENDMDL
