REMARK VINA RESULT:      -7.5     30.314     34.029
REMARK  21 active torsions:
REMARK  status: ('A' for Active; 'I' for Inactive)
REMARK    1  A    between atoms: C_3  and  O_78 
REMARK    2  A    between atoms: C_5  and  O_77 
REMARK    3  A    between atoms: C_6  and  O_76 
REMARK    4  A    between atoms: C_7  and  O_15 
REMARK    5  A    between atoms: C_8  and  C_17 
REMARK    6  A    between atoms: C_9  and  O_13 
REMARK    7  A    between atoms: C_16  and  O_24 
REMARK    8  A    between atoms: C_18  and  O_22 
REMARK    9  A    between atoms: C_19  and  C_72 
REMARK   10  A    between atoms: C_20  and  O_23 
REMARK   11  A    between atoms: C_28  and  O_32 
REMARK   12  A    between atoms: C_30  and  O_33 
REMARK   13  A    between atoms: C_37  and  O_42 
REMARK   14  A    between atoms: C_39  and  O_43 
REMARK   15  A    between atoms: C_46  and  O_67 
REMARK   16  A    between atoms: C_48  and  O_65 
REMARK   17  A    between atoms: C_49  and  C_52 
REMARK   18  A    between atoms: C_50  and  O_66 
REMARK   19  A    between atoms: C_52  and  O_60 
REMARK   20  A    between atoms: C_54  and  O_60 
REMARK   21  A    between atoms: C_72  and  O_73 
ROOT
HETATM    1  C   UNK     0     -27.817 -13.216 -13.177  0.00  0.00     0.058 A 
HETATM    2  C   UNK     0     -27.912 -14.215 -14.135  0.00  0.00     0.060 A 
HETATM    3  C   UNK     0     -27.724 -13.529 -11.833  0.00  0.00     0.102 A 
HETATM    4  C   UNK     0     -27.913 -15.560 -13.739  0.00  0.00     0.127 A 
HETATM    5  C   UNK     0     -27.722 -14.852 -11.437  0.00  0.00     0.135 A 
HETATM    6  C   UNK     0     -27.815 -15.856 -12.385  0.00  0.00     0.137 A 
HETATM    7  C   UNK     0     -27.767 -18.554 -17.676  0.00  0.00     0.114 A 
HETATM    8  C   UNK     0     -28.012 -17.595 -18.656  0.00  0.00     0.030 A 
HETATM    9  C   UNK     0     -27.764 -18.236 -16.326  0.00  0.00     0.134 A 
HETATM   10  C   UNK     0     -28.257 -16.282 -18.233  0.00  0.00     0.059 A 
HETATM   11  C   UNK     0     -28.008 -16.939 -15.915  0.00  0.00     0.116 A 
HETATM   12  C   UNK     0     -28.253 -15.988 -16.882  0.00  0.00     0.329 A 
HETATM   13  O   UNK     0     -28.018 -16.658 -14.569  0.00  0.00    -0.304 OA
HETATM   14  C   UNK     0     -28.529 -15.139 -19.112  0.00  0.00     0.295 C 
HETATM   15  C   UNK     0     -27.987 -12.798 -26.899  0.00  0.00     0.026 A 
HETATM   16  C   UNK     0     -28.191 -12.302 -25.614  0.00  0.00     0.006 A 
HETATM   17  C   UNK     0     -27.970 -14.154 -27.167  0.00  0.00     0.111 A 
HETATM   18  C   UNK     0     -28.379 -13.232 -24.576  0.00  0.00     0.054 A 
HETATM   19  C   UNK     0     -28.155 -15.057 -26.141  0.00  0.00     0.100 A 
HETATM   20  C   UNK     0     -28.358 -14.592 -24.856  0.00  0.00     0.058 A 
HETATM   21  O   UNK     0     -27.807 -11.921 -27.924  0.00  0.00     0.000 OA
HETATM   22  C   UNK     0     -28.553 -10.123 -26.718  0.00  0.00     0.026 A 
HETATM   23  C   UNK     0     -28.205 -10.771 -25.533  0.00  0.00     0.006 A 
HETATM   24  C   UNK     0     -28.578  -8.743 -26.817  0.00  0.00     0.111 A 
HETATM   25  C   UNK     0     -27.884  -9.970 -24.428  0.00  0.00     0.054 A 
HETATM   26  C   UNK     0     -28.255  -7.969 -25.721  0.00  0.00     0.100 A 
HETATM   27  C   UNK     0     -27.911  -8.587 -24.536  0.00  0.00     0.058 A 
HETATM   28  C   UNK     0     -27.497 -10.489 -23.126  0.00  0.00     0.294 C 
HETATM   29  O   UNK     0     -28.870 -10.869 -27.810  0.00  0.00     0.000 OA
HETATM   30  O   UNK     0     -26.386 -10.939 -22.967  0.00  0.00    -0.259 OA
HETATM   31  C   UNK     0     -28.480 -10.508 -19.659  0.00  0.00     0.302 C 
HETATM   32  C   UNK     0     -27.830 -11.042 -20.912  0.00  0.00     0.220 C 
HETATM   33  O   UNK     0     -27.805 -11.067 -18.524  0.00  0.00    -0.348 OA
HETATM   34  C   UNK     0     -28.068 -12.515 -20.942  0.00  0.00     0.198 C 
HETATM   35  C   UNK     0     -27.736 -12.506 -18.440  0.00  0.00     0.181 C 
HETATM   36  C   UNK     0     -27.273 -13.135 -19.801  0.00  0.00     0.195 C 
HETATM   37  C   UNK     0     -26.724 -12.896 -17.352  0.00  0.00     0.212 C 
HETATM   38  O   UNK     0     -27.667 -13.030 -22.205  0.00  0.00    -0.306 OA
HETATM   39  O   UNK     0     -27.488 -14.548 -19.772  0.00  0.00    -0.307 OA
HETATM   40  O   UNK     0     -28.368 -10.450 -22.076  0.00  0.00    -0.304 OA
HETATM   41  O   UNK     0     -27.234 -12.789 -16.028  0.00  0.00    -0.328 OA
HETATM   42  C   UNK     0     -28.630 -12.889 -23.169  0.00  0.00     0.294 C 
HETATM   43  O   UNK     0     -29.728 -12.500 -22.845  0.00  0.00    -0.259 OA
HETATM   44  O   UNK     0     -29.647 -14.685 -19.204  0.00  0.00    -0.259 OA
HETATM   45  C   UNK     0     -28.009 -13.794 -15.537  0.00  0.00     0.179 C 
HETATM   46  O   UNK     0     -28.764 -14.379 -16.280  0.00  0.00    -0.383 OA
HETATM   47  H   UNK     0     -27.663 -12.265 -28.865  0.00  0.00     0.000 HD
HETATM   48  H   UNK     0     -29.118 -10.412 -28.679  0.00  0.00     0.000 HD
ENDROOT
BRANCH   3  49
HETATM   49  O   UNK     0     -27.635 -12.539 -10.905  0.00  0.00    -0.358 OA
HETATM   50  H   UNK     0     -28.118 -11.662 -11.051  0.00  0.00     0.217 HD
ENDBRANCH   3  49
BRANCH   5  51
HETATM   51  O   UNK     0     -27.632 -15.167 -10.116  0.00  0.00    -0.356 OA
HETATM   52  H   UNK     0     -28.231 -15.883  -9.725  0.00  0.00     0.218 HD
ENDBRANCH   5  51
BRANCH   6  53
HETATM   53  O   UNK     0     -27.815 -17.157 -11.985  0.00  0.00    -0.356 OA
HETATM   54  H   UNK     0     -28.516 -17.796 -12.339  0.00  0.00     0.218 HD
ENDBRANCH   6  53
BRANCH   9  55
HETATM   55  O   UNK     0     -27.531 -19.209 -15.405  0.00  0.00    -0.356 OA
HETATM   56  H   UNK     0     -27.796 -20.167 -15.601  0.00  0.00     0.218 HD
ENDBRANCH   9  55
BRANCH   7  57
HETATM   57  O   UNK     0     -27.538 -19.840 -18.054  0.00  0.00    -0.357 OA
HETATM   58  H   UNK     0     -28.256 -20.359 -18.543  0.00  0.00     0.217 HD
ENDBRANCH   7  57
BRANCH   8  59
HETATM   59  C   UNK     0     -28.014 -18.112 -20.085  0.00  0.00     0.023 A 
HETATM   60  C   UNK     0     -26.757 -18.250 -20.664  0.00  0.00     0.113 A 
HETATM   61  C   UNK     0     -26.601 -18.703 -21.962  0.00  0.00     0.133 A 
HETATM   62  C   UNK     0     -27.712 -19.034 -22.712  0.00  0.00     0.102 A 
HETATM   63  C   UNK     0     -28.971 -18.898 -22.159  0.00  0.00     0.049 A 
HETATM   64  C   UNK     0     -29.135 -18.438 -20.859  0.00  0.00    -0.018 A 
BRANCH  60  65
HETATM   65  O   UNK     0     -25.654 -17.923 -19.938  0.00  0.00    -0.357 OA
HETATM   66  H   UNK     0     -25.518 -16.971 -19.626  0.00  0.00     0.217 HD
ENDBRANCH  60  65
BRANCH  61  67
HETATM   67  O   UNK     0     -25.358 -18.818 -22.499  0.00  0.00    -0.356 OA
HETATM   68  H   UNK     0     -25.186 -18.519 -23.450  0.00  0.00     0.218 HD
ENDBRANCH  61  67
BRANCH  62  69
HETATM   69  O   UNK     0     -27.566 -19.484 -23.987  0.00  0.00    -0.358 OA
HETATM   70  H   UNK     0     -27.641 -18.839 -24.763  0.00  0.00     0.217 HD
ENDBRANCH  62  69
BRANCH  64  71
HETATM   71  C   UNK     0     -30.553 -18.314 -20.374  0.00  0.00     0.203 C 
BRANCH  71  72
HETATM   72  O   UNK     0     -31.015 -17.002 -20.666  0.00  0.00    -0.396 OA
HETATM   73  H   UNK     0     -31.949 -16.864 -21.031  0.00  0.00     0.209 HD
ENDBRANCH  71  72
ENDBRANCH  64  71
ENDBRANCH   8  59
BRANCH  31  74
HETATM   74  O   UNK     0     -28.382  -9.092 -19.629  0.00  0.00    -0.283 OA
BRANCH  74  75
HETATM   75  C   UNK     0     -29.532  -8.376 -19.679  0.00  0.00     0.295 C 
HETATM   76  O   UNK     0     -30.206  -8.261 -18.682  0.00  0.00    -0.259 OA
BRANCH  75  77
HETATM   77  C   UNK     0     -29.963  -7.734 -20.928  0.00  0.00     0.045 A 
HETATM   78  C   UNK     0     -31.118  -8.153 -21.570  0.00  0.00     0.057 A 
HETATM   79  C   UNK     0     -31.512  -7.544 -22.752  0.00  0.00     0.102 A 
HETATM   80  C   UNK     0     -30.749  -6.521 -23.293  0.00  0.00     0.132 A 
HETATM   81  C   UNK     0     -29.595  -6.103 -22.651  0.00  0.00     0.102 A 
HETATM   82  C   UNK     0     -29.204  -6.708 -21.468  0.00  0.00     0.057 A 
BRANCH  79  83
HETATM   83  O   UNK     0     -32.646  -7.952 -23.385  0.00  0.00    -0.358 OA
HETATM   84  H   UNK     0     -33.552  -7.679 -23.025  0.00  0.00     0.217 HD
ENDBRANCH  79  83
BRANCH  80  85
HETATM   85  O   UNK     0     -31.131  -5.929 -24.457  0.00  0.00    -0.356 OA
HETATM   86  H   UNK     0     -31.943  -6.271 -24.956  0.00  0.00     0.218 HD
ENDBRANCH  80  85
BRANCH  81  87
HETATM   87  O   UNK     0     -28.846  -5.101 -23.182  0.00  0.00    -0.358 OA
HETATM   88  H   UNK     0     -28.473  -4.375 -22.584  0.00  0.00     0.217 HD
ENDBRANCH  81  87
ENDBRANCH  75  77
ENDBRANCH  74  75
ENDBRANCH  31  74
BRANCH  19  89
HETATM   89  O   UNK     0     -28.142 -16.393 -26.398  0.00  0.00    -0.358 OA
HETATM   90  H   UNK     0     -28.942 -16.833 -26.835  0.00  0.00     0.217 HD
ENDBRANCH  19  89
BRANCH  26  91
HETATM   91  O   UNK     0     -28.270  -6.612 -25.810  0.00  0.00    -0.358 OA
HETATM   92  H   UNK     0     -29.134  -6.129 -26.015  0.00  0.00     0.217 HD
ENDBRANCH  26  91
BRANCH  17  93
HETATM   93  O   UNK     0     -27.776 -14.598 -28.439  0.00  0.00    -0.357 OA
HETATM   94  H   UNK     0     -28.415 -14.322 -29.174  0.00  0.00     0.217 HD
ENDBRANCH  17  93
BRANCH  24  95
HETATM   95  O   UNK     0     -28.916  -8.148 -27.993  0.00  0.00    -0.357 OA
HETATM   96  H   UNK     0     -29.571  -7.377 -28.000  0.00  0.00     0.217 HD
ENDBRANCH  24  95
TORSDOF 21
