REMARK VINA RESULT:      -7.8     26.627     33.516
REMARK  21 active torsions:
REMARK  status: ('A' for Active; 'I' for Inactive)
REMARK    1  A    between atoms: C_3  and  O_78 
REMARK    2  A    between atoms: C_5  and  O_77 
REMARK    3  A    between atoms: C_6  and  O_76 
REMARK    4  A    between atoms: C_7  and  O_15 
REMARK    5  A    between atoms: C_8  and  C_17 
REMARK    6  A    between atoms: C_9  and  O_13 
REMARK    7  A    between atoms: C_16  and  O_24 
REMARK    8  A    between atoms: C_18  and  O_22 
REMARK    9  A    between atoms: C_19  and  C_72 
REMARK   10  A    between atoms: C_20  and  O_23 
REMARK   11  A    between atoms: C_28  and  O_32 
REMARK   12  A    between atoms: C_30  and  O_33 
REMARK   13  A    between atoms: C_37  and  O_42 
REMARK   14  A    between atoms: C_39  and  O_43 
REMARK   15  A    between atoms: C_46  and  O_67 
REMARK   16  A    between atoms: C_48  and  O_65 
REMARK   17  A    between atoms: C_49  and  C_52 
REMARK   18  A    between atoms: C_50  and  O_66 
REMARK   19  A    between atoms: C_52  and  O_60 
REMARK   20  A    between atoms: C_54  and  O_60 
REMARK   21  A    between atoms: C_72  and  O_73 
ROOT
HETATM    1  C   UNK     0     -26.485 -17.438 -22.988  0.00  0.00     0.058 A 
HETATM    2  C   UNK     0     -26.917 -16.999 -21.745  0.00  0.00     0.060 A 
HETATM    3  C   UNK     0     -26.117 -18.756 -23.185  0.00  0.00     0.102 A 
HETATM    4  C   UNK     0     -26.984 -17.900 -20.673  0.00  0.00     0.127 A 
HETATM    5  C   UNK     0     -26.182 -19.650 -22.133  0.00  0.00     0.135 A 
HETATM    6  C   UNK     0     -26.613 -19.221 -20.890  0.00  0.00     0.137 A 
HETATM    7  C   UNK     0     -29.072 -15.783 -16.719  0.00  0.00     0.114 A 
HETATM    8  C   UNK     0     -29.061 -14.468 -17.177  0.00  0.00     0.030 A 
HETATM    9  C   UNK     0     -28.518 -16.818 -17.456  0.00  0.00     0.134 A 
HETATM   10  C   UNK     0     -28.469 -14.218 -18.421  0.00  0.00     0.059 A 
HETATM   11  C   UNK     0     -27.933 -16.565 -18.682  0.00  0.00     0.116 A 
HETATM   12  C   UNK     0     -27.919 -15.265 -19.139  0.00  0.00     0.329 A 
HETATM   13  O   UNK     0     -27.375 -17.610 -19.381  0.00  0.00    -0.304 OA
HETATM   14  C   UNK     0     -28.367 -12.906 -19.071  0.00  0.00     0.295 C 
HETATM   15  C   UNK     0     -31.404  -5.352 -18.720  0.00  0.00     0.026 A 
HETATM   16  C   UNK     0     -30.656  -6.199 -19.534  0.00  0.00     0.006 A 
HETATM   17  C   UNK     0     -31.738  -5.689 -17.421  0.00  0.00     0.111 A 
HETATM   18  C   UNK     0     -30.245  -7.430 -18.993  0.00  0.00     0.054 A 
HETATM   19  C   UNK     0     -31.329  -6.899 -16.902  0.00  0.00     0.100 A 
HETATM   20  C   UNK     0     -30.588  -7.760 -17.688  0.00  0.00     0.058 A 
HETATM   21  O   UNK     0     -31.812  -4.151 -19.215  0.00  0.00     0.000 OA
HETATM   22  C   UNK     0     -30.390  -4.236 -21.008  0.00  0.00     0.026 A 
HETATM   23  C   UNK     0     -30.368  -5.628 -20.927  0.00  0.00     0.006 A 
HETATM   24  C   UNK     0     -30.183  -3.569 -22.203  0.00  0.00     0.111 A 
HETATM   25  C   UNK     0     -30.119  -6.341 -22.108  0.00  0.00     0.054 A 
HETATM   26  C   UNK     0     -29.944  -4.286 -23.358  0.00  0.00     0.100 A 
HETATM   27  C   UNK     0     -29.913  -5.665 -23.302  0.00  0.00     0.058 A 
HETATM   28  C   UNK     0     -30.067  -7.791 -22.194  0.00  0.00     0.294 C 
HETATM   29  O   UNK     0     -30.629  -3.513 -19.882  0.00  0.00     0.000 OA
HETATM   30  O   UNK     0     -31.095  -8.429 -22.171  0.00  0.00    -0.259 OA
HETATM   31  C   UNK     0     -27.874 -10.520 -23.047  0.00  0.00     0.302 C 
HETATM   32  C   UNK     0     -29.023  -9.843 -22.342  0.00  0.00     0.220 C 
HETATM   33  O   UNK     0     -28.154 -11.924 -23.125  0.00  0.00    -0.348 OA
HETATM   34  C   UNK     0     -29.052 -10.361 -20.943  0.00  0.00     0.198 C 
HETATM   35  C   UNK     0     -28.417 -12.615 -21.886  0.00  0.00     0.181 C 
HETATM   36  C   UNK     0     -29.450 -11.830 -21.004  0.00  0.00     0.195 C 
HETATM   37  C   UNK     0     -28.996 -14.003 -22.199  0.00  0.00     0.212 C 
HETATM   38  O   UNK     0     -29.974  -9.597 -20.177  0.00  0.00    -0.306 OA
HETATM   39  O   UNK     0     -29.470 -12.382 -19.685  0.00  0.00    -0.307 OA
HETATM   40  O   UNK     0     -28.873  -8.438 -22.323  0.00  0.00    -0.304 OA
HETATM   41  O   UNK     0     -28.017 -14.960 -22.588  0.00  0.00    -0.328 OA
HETATM   42  C   UNK     0     -29.434  -8.433 -19.698  0.00  0.00     0.294 C 
HETATM   43  O   UNK     0     -28.248  -8.242 -19.831  0.00  0.00    -0.259 OA
HETATM   44  O   UNK     0     -27.308 -12.322 -19.117  0.00  0.00    -0.259 OA
HETATM   45  C   UNK     0     -27.286 -15.584 -21.624  0.00  0.00     0.179 C 
HETATM   46  O   UNK     0     -26.969 -14.972 -20.630  0.00  0.00    -0.383 OA
HETATM   47  H   UNK     0     -32.351  -3.521 -18.635  0.00  0.00     0.000 HD
HETATM   48  H   UNK     0     -30.656  -2.501 -19.927  0.00  0.00     0.000 HD
ENDROOT
BRANCH   3  49
HETATM   49  O   UNK     0     -25.691 -19.173 -24.408  0.00  0.00    -0.358 OA
HETATM   50  H   UNK     0     -26.209 -18.915 -25.239  0.00  0.00     0.217 HD
ENDBRANCH   3  49
BRANCH   5  51
HETATM   51  O   UNK     0     -25.820 -20.948 -22.320  0.00  0.00    -0.356 OA
HETATM   52  H   UNK     0     -25.388 -21.233 -23.190  0.00  0.00     0.218 HD
ENDBRANCH   5  51
BRANCH   6  53
HETATM   53  O   UNK     0     -26.672 -20.109 -19.860  0.00  0.00    -0.356 OA
HETATM   54  H   UNK     0     -25.935 -20.792 -19.738  0.00  0.00     0.218 HD
ENDBRANCH   6  53
BRANCH   9  55
HETATM   55  O   UNK     0     -28.542 -18.085 -16.962  0.00  0.00    -0.356 OA
HETATM   56  H   UNK     0     -29.316 -18.700 -17.180  0.00  0.00     0.218 HD
ENDBRANCH   9  55
BRANCH   7  57
HETATM   57  O   UNK     0     -29.629 -16.056 -15.508  0.00  0.00    -0.357 OA
HETATM   58  H   UNK     0     -29.597 -15.364 -14.770  0.00  0.00     0.217 HD
ENDBRANCH   7  57
BRANCH   8  59
HETATM   59  C   UNK     0     -29.678 -13.446 -16.235  0.00  0.00     0.023 A 
HETATM   60  C   UNK     0     -31.039 -13.221 -16.418  0.00  0.00     0.113 A 
HETATM   61  C   UNK     0     -31.736 -12.314 -15.640  0.00  0.00     0.133 A 
HETATM   62  C   UNK     0     -31.078 -11.610 -14.651  0.00  0.00     0.102 A 
HETATM   63  C   UNK     0     -29.725 -11.812 -14.457  0.00  0.00     0.049 A 
HETATM   64  C   UNK     0     -29.018 -12.717 -15.238  0.00  0.00    -0.018 A 
BRANCH  60  65
HETATM   65  O   UNK     0     -31.698 -13.905 -17.392  0.00  0.00    -0.357 OA
HETATM   66  H   UNK     0     -31.403 -13.822 -18.356  0.00  0.00     0.217 HD
ENDBRANCH  60  65
BRANCH  61  67
HETATM   67  O   UNK     0     -33.063 -12.114 -15.851  0.00  0.00    -0.356 OA
HETATM   68  H   UNK     0     -33.412 -11.183 -16.038  0.00  0.00     0.218 HD
ENDBRANCH  61  67
BRANCH  62  69
HETATM   69  O   UNK     0     -31.758 -10.720 -13.880  0.00  0.00    -0.358 OA
HETATM   70  H   UNK     0     -31.718  -9.732 -14.092  0.00  0.00     0.217 HD
ENDBRANCH  62  69
BRANCH  64  71
HETATM   71  C   UNK     0     -27.549 -12.837 -14.946  0.00  0.00     0.203 C 
BRANCH  71  72
HETATM   72  O   UNK     0     -26.831 -12.135 -15.953  0.00  0.00    -0.396 OA
HETATM   73  H   UNK     0     -27.331 -11.661 -16.694  0.00  0.00     0.209 HD
ENDBRANCH  71  72
ENDBRANCH  64  71
ENDBRANCH   8  59
BRANCH  31  74
HETATM   74  O   UNK     0     -27.725  -9.985 -24.354  0.00  0.00    -0.283 OA
BRANCH  74  75
HETATM   75  C   UNK     0     -26.467  -9.775 -24.813  0.00  0.00     0.295 C 
HETATM   76  O   UNK     0     -25.796 -10.717 -25.167  0.00  0.00    -0.259 OA
BRANCH  75  77
HETATM   77  C   UNK     0     -25.913  -8.416 -24.890  0.00  0.00     0.045 A 
HETATM   78  C   UNK     0     -26.735  -7.339 -25.181  0.00  0.00     0.057 A 
HETATM   79  C   UNK     0     -26.200  -6.062 -25.258  0.00  0.00     0.102 A 
HETATM   80  C   UNK     0     -24.844  -5.864 -25.049  0.00  0.00     0.132 A 
HETATM   81  C   UNK     0     -24.023  -6.942 -24.757  0.00  0.00     0.102 A 
HETATM   82  C   UNK     0     -24.558  -8.217 -24.676  0.00  0.00     0.057 A 
BRANCH  79  83
HETATM   83  O   UNK     0     -27.004  -5.001 -25.542  0.00  0.00    -0.358 OA
HETATM   84  H   UNK     0     -27.953  -4.979 -25.193  0.00  0.00     0.217 HD
ENDBRANCH  79  83
BRANCH  80  85
HETATM   85  O   UNK     0     -24.318  -4.612 -25.132  0.00  0.00    -0.356 OA
HETATM   86  H   UNK     0     -23.778  -4.343 -25.946  0.00  0.00     0.218 HD
ENDBRANCH  80  85
BRANCH  81  87
HETATM   87  O   UNK     0     -22.693  -6.748 -24.554  0.00  0.00    -0.358 OA
HETATM   88  H   UNK     0     -22.341  -6.594 -23.618  0.00  0.00     0.217 HD
ENDBRANCH  81  87
ENDBRANCH  75  77
ENDBRANCH  74  75
ENDBRANCH  31  74
BRANCH  19  89
HETATM   89  O   UNK     0     -31.652  -7.236 -15.624  0.00  0.00    -0.358 OA
HETATM   90  H   UNK     0     -32.621  -7.370 -15.365  0.00  0.00     0.217 HD
ENDBRANCH  19  89
BRANCH  26  91
HETATM   91  O   UNK     0     -29.746  -3.640 -24.538  0.00  0.00    -0.358 OA
HETATM   92  H   UNK     0     -29.655  -4.170 -25.395  0.00  0.00     0.217 HD
ENDBRANCH  26  91
BRANCH  17  93
HETATM   93  O   UNK     0     -32.462  -4.828 -16.656  0.00  0.00    -0.357 OA
HETATM   94  H   UNK     0     -32.489  -3.843 -16.889  0.00  0.00     0.217 HD
ENDBRANCH  17  93
BRANCH  24  95
HETATM   95  O   UNK     0     -30.220  -2.210 -22.243  0.00  0.00    -0.357 OA
HETATM   96  H   UNK     0     -30.926  -1.708 -21.719  0.00  0.00     0.217 HD
ENDBRANCH  24  95
TORSDOF 21
