REMARK VINA RESULT:      -7.1     22.391     25.224
REMARK  21 active torsions:
REMARK  status: ('A' for Active; 'I' for Inactive)
REMARK    1  A    between atoms: C_3  and  O_78 
REMARK    2  A    between atoms: C_5  and  O_77 
REMARK    3  A    between atoms: C_6  and  O_76 
REMARK    4  A    between atoms: C_7  and  O_15 
REMARK    5  A    between atoms: C_8  and  C_17 
REMARK    6  A    between atoms: C_9  and  O_13 
REMARK    7  A    between atoms: C_16  and  O_24 
REMARK    8  A    between atoms: C_18  and  O_22 
REMARK    9  A    between atoms: C_19  and  C_72 
REMARK   10  A    between atoms: C_20  and  O_23 
REMARK   11  A    between atoms: C_28  and  O_32 
REMARK   12  A    between atoms: C_30  and  O_33 
REMARK   13  A    between atoms: C_37  and  O_42 
REMARK   14  A    between atoms: C_39  and  O_43 
REMARK   15  A    between atoms: C_46  and  O_67 
REMARK   16  A    between atoms: C_48  and  O_65 
REMARK   17  A    between atoms: C_49  and  C_52 
REMARK   18  A    between atoms: C_50  and  O_66 
REMARK   19  A    between atoms: C_52  and  O_60 
REMARK   20  A    between atoms: C_54  and  O_60 
REMARK   21  A    between atoms: C_72  and  O_73 
ROOT
HETATM    1  C   UNK     0      -8.682 -25.479 -19.694  0.00  0.00     0.058 A 
HETATM    2  C   UNK     0      -7.513 -25.224 -20.396  0.00  0.00     0.060 A 
HETATM    3  C   UNK     0      -9.787 -26.013 -20.331  0.00  0.00     0.102 A 
HETATM    4  C   UNK     0      -7.446 -25.511 -21.767  0.00  0.00     0.127 A 
HETATM    5  C   UNK     0      -9.728 -26.300 -21.681  0.00  0.00     0.135 A 
HETATM    6  C   UNK     0      -8.565 -26.051 -22.389  0.00  0.00     0.137 A 
HETATM    7  C   UNK     0      -2.858 -24.831 -23.489  0.00  0.00     0.114 A 
HETATM    8  C   UNK     0      -2.329 -24.183 -22.376  0.00  0.00     0.030 A 
HETATM    9  C   UNK     0      -4.192 -25.203 -23.553  0.00  0.00     0.134 A 
HETATM   10  C   UNK     0      -3.194 -23.915 -21.307  0.00  0.00     0.059 A 
HETATM   11  C   UNK     0      -5.042 -24.935 -22.497  0.00  0.00     0.116 A 
HETATM   12  C   UNK     0      -4.523 -24.292 -21.393  0.00  0.00     0.329 A 
HETATM   13  O   UNK     0      -6.365 -25.299 -22.597  0.00  0.00    -0.304 OA
HETATM   14  C   UNK     0      -2.823 -23.250 -20.053  0.00  0.00     0.295 C 
HETATM   15  C   UNK     0       3.687 -21.111 -15.642  0.00  0.00     0.026 A 
HETATM   16  C   UNK     0       2.303 -21.245 -15.565  0.00  0.00     0.006 A 
HETATM   17  C   UNK     0       4.368 -21.215 -16.841  0.00  0.00     0.111 A 
HETATM   18  C   UNK     0       1.603 -21.498 -16.759  0.00  0.00     0.054 A 
HETATM   19  C   UNK     0       3.671 -21.464 -18.005  0.00  0.00     0.100 A 
HETATM   20  C   UNK     0       2.297 -21.603 -17.956  0.00  0.00     0.058 A 
HETATM   21  O   UNK     0       4.390 -20.861 -14.504  0.00  0.00     0.000 OA
HETATM   22  C   UNK     0       2.528 -20.296 -13.297  0.00  0.00     0.026 A 
HETATM   23  C   UNK     0       1.739 -21.065 -14.151  0.00  0.00     0.006 A 
HETATM   24  C   UNK     0       2.173 -20.070 -11.978  0.00  0.00     0.111 A 
HETATM   25  C   UNK     0       0.554 -21.603 -13.628  0.00  0.00     0.054 A 
HETATM   26  C   UNK     0       1.006 -20.611 -11.478  0.00  0.00     0.100 A 
HETATM   27  C   UNK     0       0.206 -21.372 -12.306  0.00  0.00     0.058 A 
HETATM   28  C   UNK     0      -0.374 -22.427 -14.385  0.00  0.00     0.294 C 
HETATM   29  O   UNK     0       3.684 -19.759 -13.770  0.00  0.00     0.000 OA
HETATM   30  O   UNK     0      -0.097 -23.582 -14.617  0.00  0.00    -0.259 OA
HETATM   31  C   UNK     0      -3.784 -22.552 -15.544  0.00  0.00     0.302 C 
HETATM   32  C   UNK     0      -2.306 -22.853 -15.572  0.00  0.00     0.220 C 
HETATM   33  O   UNK     0      -4.475 -23.603 -16.233  0.00  0.00    -0.348 OA
HETATM   34  C   UNK     0      -1.869 -22.803 -16.997  0.00  0.00     0.198 C 
HETATM   35  C   UNK     0      -4.077 -23.873 -17.593  0.00  0.00     0.181 C 
HETATM   36  C   UNK     0      -2.516 -23.977 -17.720  0.00  0.00     0.195 C 
HETATM   37  C   UNK     0      -4.693 -25.208 -18.039  0.00  0.00     0.212 C 
HETATM   38  O   UNK     0      -0.451 -22.863 -17.057  0.00  0.00    -0.306 OA
HETATM   39  O   UNK     0      -2.146 -23.960 -19.101  0.00  0.00    -0.307 OA
HETATM   40  O   UNK     0      -1.565 -21.918 -14.815  0.00  0.00    -0.304 OA
HETATM   41  O   UNK     0      -6.066 -25.114 -18.403  0.00  0.00    -0.328 OA
HETATM   42  C   UNK     0       0.144 -21.644 -16.867  0.00  0.00     0.294 C 
HETATM   43  O   UNK     0      -0.551 -20.657 -16.820  0.00  0.00    -0.259 OA
HETATM   44  O   UNK     0      -3.164 -22.109 -19.838  0.00  0.00    -0.259 OA
HETATM   45  C   UNK     0      -6.389 -24.655 -19.643  0.00  0.00     0.179 C 
HETATM   46  O   UNK     0      -5.713 -23.790 -20.151  0.00  0.00    -0.383 OA
HETATM   47  H   UNK     0       5.395 -20.755 -14.544  0.00  0.00     0.000 HD
HETATM   48  H   UNK     0       4.271 -19.205 -13.159  0.00  0.00     0.000 HD
ENDROOT
BRANCH   3  49
HETATM   49  O   UNK     0     -10.929 -26.255 -19.632  0.00  0.00    -0.358 OA
HETATM   50  H   UNK     0     -11.038 -25.886 -18.696  0.00  0.00     0.217 HD
ENDBRANCH   3  49
BRANCH   5  51
HETATM   51  O   UNK     0     -10.813 -26.825 -22.314  0.00  0.00    -0.356 OA
HETATM   52  H   UNK     0     -11.194 -27.713 -22.011  0.00  0.00     0.218 HD
ENDBRANCH   5  51
BRANCH   6  53
HETATM   53  O   UNK     0      -8.518 -26.335 -23.719  0.00  0.00    -0.356 OA
HETATM   54  H   UNK     0      -9.374 -26.504 -24.231  0.00  0.00     0.218 HD
ENDBRANCH   6  53
BRANCH   9  55
HETATM   55  O   UNK     0      -4.666 -25.824 -24.667  0.00  0.00    -0.356 OA
HETATM   56  H   UNK     0      -5.116 -25.284 -25.395  0.00  0.00     0.218 HD
ENDBRANCH   9  55
BRANCH   7  57
HETATM   57  O   UNK     0      -2.046 -25.094 -24.548  0.00  0.00    -0.357 OA
HETATM   58  H   UNK     0      -2.445 -25.241 -25.466  0.00  0.00     0.217 HD
ENDBRANCH   7  57
BRANCH   8  59
HETATM   59  C   UNK     0      -0.858 -23.813 -22.477  0.00  0.00     0.023 A 
HETATM   60  C   UNK     0       0.012 -24.663 -21.802  0.00  0.00     0.113 A 
HETATM   61  C   UNK     0       1.379 -24.449 -21.798  0.00  0.00     0.133 A 
HETATM   62  C   UNK     0       1.907 -23.371 -22.480  0.00  0.00     0.102 A 
HETATM   63  C   UNK     0       1.060 -22.510 -23.151  0.00  0.00     0.049 A 
HETATM   64  C   UNK     0      -0.313 -22.715 -23.155  0.00  0.00    -0.018 A 
BRANCH  60  65
HETATM   65  O   UNK     0      -0.496 -25.726 -21.122  0.00  0.00    -0.357 OA
HETATM   66  H   UNK     0      -0.114 -25.980 -20.221  0.00  0.00     0.217 HD
ENDBRANCH  60  65
BRANCH  61  67
HETATM   67  O   UNK     0       2.199 -25.296 -21.122  0.00  0.00    -0.356 OA
HETATM   68  H   UNK     0       1.901 -25.694 -20.240  0.00  0.00     0.218 HD
ENDBRANCH  61  67
BRANCH  62  69
HETATM   69  O   UNK     0       3.250 -23.157 -22.484  0.00  0.00    -0.358 OA
HETATM   70  H   UNK     0       3.818 -23.491 -21.716  0.00  0.00     0.217 HD
ENDBRANCH  62  69
BRANCH  64  71
HETATM   71  C   UNK     0      -1.132 -21.701 -23.903  0.00  0.00     0.203 C 
BRANCH  71  72
HETATM   72  O   UNK     0      -0.248 -20.814 -24.574  0.00  0.00    -0.396 OA
HETATM   73  H   UNK     0      -0.577 -20.274 -25.365  0.00  0.00     0.209 HD
ENDBRANCH  71  72
ENDBRANCH  64  71
ENDBRANCH   8  59
BRANCH  31  74
HETATM   74  O   UNK     0      -4.238 -22.477 -14.201  0.00  0.00    -0.283 OA
BRANCH  74  75
HETATM   75  C   UNK     0      -5.135 -21.509 -13.888  0.00  0.00     0.295 C 
HETATM   76  O   UNK     0      -6.267 -21.589 -14.305  0.00  0.00    -0.259 OA
BRANCH  75  77
HETATM   77  C   UNK     0      -4.748 -20.370 -13.045  0.00  0.00     0.045 A 
HETATM   78  C   UNK     0      -5.471 -19.188 -13.087  0.00  0.00     0.057 A 
HETATM   79  C   UNK     0      -5.092 -18.118 -12.292  0.00  0.00     0.102 A 
HETATM   80  C   UNK     0      -3.990 -18.227 -11.459  0.00  0.00     0.132 A 
HETATM   81  C   UNK     0      -3.268 -19.410 -11.417  0.00  0.00     0.102 A 
HETATM   82  C   UNK     0      -3.649 -20.481 -12.208  0.00  0.00     0.057 A 
BRANCH  79  83
HETATM   83  O   UNK     0      -5.801 -16.956 -12.328  0.00  0.00    -0.358 OA
HETATM   84  H   UNK     0      -6.138 -16.541 -11.469  0.00  0.00     0.217 HD
ENDBRANCH  79  83
BRANCH  80  85
HETATM   85  O   UNK     0      -3.614 -17.174 -10.684  0.00  0.00    -0.356 OA
HETATM   86  H   UNK     0      -2.928 -17.305  -9.950  0.00  0.00     0.218 HD
ENDBRANCH  80  85
BRANCH  81  87
HETATM   87  O   UNK     0      -2.186 -19.517 -10.602  0.00  0.00    -0.358 OA
HETATM   88  H   UNK     0      -1.711 -20.405 -10.505  0.00  0.00     0.217 HD
ENDBRANCH  81  87
ENDBRANCH  75  77
ENDBRANCH  74  75
ENDBRANCH  31  74
BRANCH  19  89
HETATM   89  O   UNK     0       4.334 -21.566 -19.188  0.00  0.00    -0.358 OA
HETATM   90  H   UNK     0       4.371 -22.453 -19.674  0.00  0.00     0.217 HD
ENDBRANCH  19  89
BRANCH  26  91
HETATM   91  O   UNK     0       0.652 -20.400 -10.182  0.00  0.00    -0.358 OA
HETATM   92  H   UNK     0       1.346 -20.099  -9.511  0.00  0.00     0.217 HD
ENDBRANCH  26  91
BRANCH  17  93
HETATM   93  O   UNK     0       5.720 -21.068 -16.874  0.00  0.00    -0.357 OA
HETATM   94  H   UNK     0       6.280 -21.665 -17.471  0.00  0.00     0.217 HD
ENDBRANCH  17  93
BRANCH  24  95
HETATM   95  O   UNK     0       2.974 -19.321 -11.173  0.00  0.00    -0.357 OA
HETATM   96  H   UNK     0       3.638 -19.773 -10.558  0.00  0.00     0.217 HD
ENDBRANCH  24  95
TORSDOF 21
