REMARK VINA RESULT:      -7.3     28.307     32.719
REMARK  21 active torsions:
REMARK  status: ('A' for Active; 'I' for Inactive)
REMARK    1  A    between atoms: C_3  and  O_78 
REMARK    2  A    between atoms: C_5  and  O_77 
REMARK    3  A    between atoms: C_6  and  O_76 
REMARK    4  A    between atoms: C_7  and  O_15 
REMARK    5  A    between atoms: C_8  and  C_17 
REMARK    6  A    between atoms: C_9  and  O_13 
REMARK    7  A    between atoms: C_16  and  O_24 
REMARK    8  A    between atoms: C_18  and  O_22 
REMARK    9  A    between atoms: C_19  and  C_72 
REMARK   10  A    between atoms: C_20  and  O_23 
REMARK   11  A    between atoms: C_28  and  O_32 
REMARK   12  A    between atoms: C_30  and  O_33 
REMARK   13  A    between atoms: C_37  and  O_42 
REMARK   14  A    between atoms: C_39  and  O_43 
REMARK   15  A    between atoms: C_46  and  O_67 
REMARK   16  A    between atoms: C_48  and  O_65 
REMARK   17  A    between atoms: C_49  and  C_52 
REMARK   18  A    between atoms: C_50  and  O_66 
REMARK   19  A    between atoms: C_52  and  O_60 
REMARK   20  A    between atoms: C_54  and  O_60 
REMARK   21  A    between atoms: C_72  and  O_73 
ROOT
HETATM    1  C   UNK     0     -33.476  -1.932 -21.555  0.00  0.00     0.058 A 
HETATM    2  C   UNK     0     -32.560  -2.671 -22.290  0.00  0.00     0.060 A 
HETATM    3  C   UNK     0     -34.006  -0.758 -22.060  0.00  0.00     0.102 A 
HETATM    4  C   UNK     0     -32.167  -2.228 -23.560  0.00  0.00     0.127 A 
HETATM    5  C   UNK     0     -33.623  -0.317 -23.312  0.00  0.00     0.135 A 
HETATM    6  C   UNK     0     -32.712  -1.049 -24.053  0.00  0.00     0.137 A 
HETATM    7  C   UNK     0     -29.300  -5.589 -25.788  0.00  0.00     0.114 A 
HETATM    8  C   UNK     0     -29.080  -6.414 -24.688  0.00  0.00     0.030 A 
HETATM    9  C   UNK     0     -30.027  -4.413 -25.687  0.00  0.00     0.134 A 
HETATM   10  C   UNK     0     -29.623  -6.017 -23.459  0.00  0.00     0.059 A 
HETATM   11  C   UNK     0     -30.558  -4.025 -24.472  0.00  0.00     0.116 A 
HETATM   12  C   UNK     0     -30.342  -4.838 -23.379  0.00  0.00     0.329 A 
HETATM   13  O   UNK     0     -31.258  -2.843 -24.398  0.00  0.00    -0.304 OA
HETATM   14  C   UNK     0     -29.504  -6.752 -22.195  0.00  0.00     0.295 C 
HETATM   15  C   UNK     0     -27.514 -14.078 -19.231  0.00  0.00     0.026 A 
HETATM   16  C   UNK     0     -28.123 -12.877 -18.875  0.00  0.00     0.006 A 
HETATM   17  C   UNK     0     -26.839 -14.232 -20.428  0.00  0.00     0.111 A 
HETATM   18  C   UNK     0     -28.035 -11.806 -19.783  0.00  0.00     0.054 A 
HETATM   19  C   UNK     0     -26.760 -13.175 -21.310  0.00  0.00     0.100 A 
HETATM   20  C   UNK     0     -27.357 -11.972 -20.983  0.00  0.00     0.058 A 
HETATM   21  O   UNK     0     -27.578 -15.130 -18.370  0.00  0.00     0.000 OA
HETATM   22  C   UNK     0     -28.269 -13.842 -16.608  0.00  0.00     0.026 A 
HETATM   23  C   UNK     0     -28.791 -12.903 -17.496  0.00  0.00     0.006 A 
HETATM   24  C   UNK     0     -28.787 -14.012 -15.336  0.00  0.00     0.111 A 
HETATM   25  C   UNK     0     -29.867 -12.121 -17.053  0.00  0.00     0.054 A 
HETATM   26  C   UNK     0     -29.849 -13.238 -14.916  0.00  0.00     0.100 A 
HETATM   27  C   UNK     0     -30.381 -12.299 -15.777  0.00  0.00     0.058 A 
HETATM   28  C   UNK     0     -30.526 -11.104 -17.856  0.00  0.00     0.294 C 
HETATM   29  O   UNK     0     -27.226 -14.618 -17.004  0.00  0.00     0.000 OA
HETATM   30  O   UNK     0     -31.289 -11.436 -18.735  0.00  0.00    -0.259 OA
HETATM   31  C   UNK     0     -31.253  -7.576 -17.951  0.00  0.00     0.302 C 
HETATM   32  C   UNK     0     -30.997  -8.947 -18.526  0.00  0.00     0.220 C 
HETATM   33  O   UNK     0     -32.051  -6.835 -18.885  0.00  0.00    -0.348 OA
HETATM   34  C   UNK     0     -30.174  -8.766 -19.757  0.00  0.00     0.198 C 
HETATM   35  C   UNK     0     -31.537  -6.693 -20.226  0.00  0.00     0.181 C 
HETATM   36  C   UNK     0     -31.044  -8.070 -20.795  0.00  0.00     0.195 C 
HETATM   37  C   UNK     0     -32.653  -6.159 -21.136  0.00  0.00     0.212 C 
HETATM   38  O   UNK     0     -29.724 -10.035 -20.212  0.00  0.00    -0.306 OA
HETATM   39  O   UNK     0     -30.291  -7.852 -21.991  0.00  0.00    -0.307 OA
HETATM   40  O   UNK     0     -30.310  -9.779 -17.614  0.00  0.00    -0.304 OA
HETATM   41  O   UNK     0     -32.872  -4.758 -21.015  0.00  0.00    -0.328 OA
HETATM   42  C   UNK     0     -28.596 -10.465 -19.563  0.00  0.00     0.294 C 
HETATM   43  O   UNK     0     -28.030  -9.707 -18.813  0.00  0.00    -0.259 OA
HETATM   44  O   UNK     0     -28.767  -6.359 -21.321  0.00  0.00    -0.259 OA
HETATM   45  C   UNK     0     -32.047  -3.902 -21.678  0.00  0.00     0.179 C 
HETATM   46  O   UNK     0     -30.876  -4.181 -21.800  0.00  0.00    -0.383 OA
HETATM   47  H   UNK     0     -27.135 -16.008 -18.610  0.00  0.00     0.000 HD
HETATM   48  H   UNK     0     -26.841 -15.310 -16.372  0.00  0.00     0.000 HD
ENDROOT
BRANCH   3  49
HETATM   49  O   UNK     0     -34.900  -0.040 -21.328  0.00  0.00    -0.358 OA
HETATM   50  H   UNK     0     -35.229  -0.397 -20.440  0.00  0.00     0.217 HD
ENDBRANCH   3  49
BRANCH   5  51
HETATM   51  O   UNK     0     -34.141   0.837 -23.815  0.00  0.00    -0.356 OA
HETATM   52  H   UNK     0     -34.898   0.802 -24.486  0.00  0.00     0.218 HD
ENDBRANCH   5  51
BRANCH   6  53
HETATM   53  O   UNK     0     -32.340  -0.605 -25.284  0.00  0.00    -0.356 OA
HETATM   54  H   UNK     0     -32.652   0.301 -25.611  0.00  0.00     0.218 HD
ENDBRANCH   6  53
BRANCH   9  55
HETATM   55  O   UNK     0     -30.205  -3.634 -26.788  0.00  0.00    -0.356 OA
HETATM   56  H   UNK     0     -30.489  -2.668 -26.683  0.00  0.00     0.218 HD
ENDBRANCH   9  55
BRANCH   7  57
HETATM   57  O   UNK     0     -28.775  -5.942 -26.993  0.00  0.00    -0.357 OA
HETATM   58  H   UNK     0     -28.170  -6.750 -27.063  0.00  0.00     0.217 HD
ENDBRANCH   7  57
BRANCH   8  59
HETATM   59  C   UNK     0     -28.235  -7.649 -24.959  0.00  0.00     0.023 A 
HETATM   60  C   UNK     0     -26.880  -7.510 -24.677  0.00  0.00     0.113 A 
HETATM   61  C   UNK     0     -25.987  -8.546 -24.880  0.00  0.00     0.133 A 
HETATM   62  C   UNK     0     -26.437  -9.755 -25.371  0.00  0.00     0.102 A 
HETATM   63  C   UNK     0     -27.778  -9.913 -25.665  0.00  0.00     0.049 A 
HETATM   64  C   UNK     0     -28.680  -8.875 -25.469  0.00  0.00    -0.018 A 
BRANCH  60  65
HETATM   65  O   UNK     0     -26.422  -6.322 -24.197  0.00  0.00    -0.357 OA
HETATM   66  H   UNK     0     -25.727  -6.307 -23.463  0.00  0.00     0.217 HD
ENDBRANCH  60  65
BRANCH  61  67
HETATM   67  O   UNK     0     -24.668  -8.373 -24.600  0.00  0.00    -0.356 OA
HETATM   68  H   UNK     0     -24.070  -7.885 -25.255  0.00  0.00     0.218 HD
ENDBRANCH  61  67
BRANCH  62  69
HETATM   69  O   UNK     0     -25.565 -10.780 -25.569  0.00  0.00    -0.358 OA
HETATM   70  H   UNK     0     -24.913 -11.038 -24.839  0.00  0.00     0.217 HD
ENDBRANCH  62  69
BRANCH  64  71
HETATM   71  C   UNK     0     -30.108  -9.159 -25.843  0.00  0.00     0.203 C 
BRANCH  71  72
HETATM   72  O   UNK     0     -30.845  -9.405 -24.653  0.00  0.00    -0.396 OA
HETATM   73  H   UNK     0     -31.314 -10.293 -24.523  0.00  0.00     0.209 HD
ENDBRANCH  71  72
ENDBRANCH  64  71
ENDBRANCH   8  59
BRANCH  31  74
HETATM   74  O   UNK     0     -31.941  -7.689 -16.715  0.00  0.00    -0.283 OA
BRANCH  74  75
HETATM   75  C   UNK     0     -31.320  -7.230 -15.600  0.00  0.00     0.295 C 
HETATM   76  O   UNK     0     -31.383  -6.055 -15.324  0.00  0.00    -0.259 OA
BRANCH  75  77
HETATM   77  C   UNK     0     -30.578  -8.146 -14.723  0.00  0.00     0.045 A 
HETATM   78  C   UNK     0     -29.194  -8.091 -14.660  0.00  0.00     0.057 A 
HETATM   79  C   UNK     0     -28.504  -8.964 -13.833  0.00  0.00     0.102 A 
HETATM   80  C   UNK     0     -29.197  -9.895 -13.074  0.00  0.00     0.132 A 
HETATM   81  C   UNK     0     -30.580  -9.949 -13.137  0.00  0.00     0.102 A 
HETATM   82  C   UNK     0     -31.270  -9.074 -13.960  0.00  0.00     0.057 A 
BRANCH  79  83
HETATM   83  O   UNK     0     -27.146  -8.912 -13.767  0.00  0.00    -0.358 OA
HETATM   84  H   UNK     0     -26.641  -9.575 -13.194  0.00  0.00     0.217 HD
ENDBRANCH  79  83
BRANCH  80  85
HETATM   85  O   UNK     0     -28.519 -10.757 -12.269  0.00  0.00    -0.356 OA
HETATM   86  H   UNK     0     -28.725 -10.792 -11.278  0.00  0.00     0.218 HD
ENDBRANCH  80  85
BRANCH  81  87
HETATM   87  O   UNK     0     -31.259 -10.862 -12.395  0.00  0.00    -0.358 OA
HETATM   88  H   UNK     0     -31.624 -10.606 -11.486  0.00  0.00     0.217 HD
ENDBRANCH  81  87
ENDBRANCH  75  77
ENDBRANCH  74  75
ENDBRANCH  31  74
BRANCH  19  89
HETATM   89  O   UNK     0     -26.096 -13.319 -22.488  0.00  0.00    -0.358 OA
HETATM   90  H   UNK     0     -26.003 -12.530 -23.117  0.00  0.00     0.217 HD
ENDBRANCH  19  89
BRANCH  26  91
HETATM   91  O   UNK     0     -30.370 -13.402 -13.671  0.00  0.00    -0.358 OA
HETATM   92  H   UNK     0     -30.292 -14.296 -13.204  0.00  0.00     0.217 HD
ENDBRANCH  26  91
BRANCH  17  93
HETATM   93  O   UNK     0     -26.250 -15.420 -20.733  0.00  0.00    -0.357 OA
HETATM   94  H   UNK     0     -25.351 -15.434 -21.200  0.00  0.00     0.217 HD
ENDBRANCH  17  93
BRANCH  24  95
HETATM   95  O   UNK     0     -28.255 -14.946 -14.500  0.00  0.00    -0.357 OA
HETATM   96  H   UNK     0     -28.641 -15.073 -13.573  0.00  0.00     0.217 HD
ENDBRANCH  24  95
TORSDOF 21
