REMARK VINA RESULT:      -7.3     30.073     33.693
REMARK  21 active torsions:
REMARK  status: ('A' for Active; 'I' for Inactive)
REMARK    1  A    between atoms: C_3  and  O_78 
REMARK    2  A    between atoms: C_5  and  O_77 
REMARK    3  A    between atoms: C_6  and  O_76 
REMARK    4  A    between atoms: C_7  and  O_15 
REMARK    5  A    between atoms: C_8  and  C_17 
REMARK    6  A    between atoms: C_9  and  O_13 
REMARK    7  A    between atoms: C_16  and  O_24 
REMARK    8  A    between atoms: C_18  and  O_22 
REMARK    9  A    between atoms: C_19  and  C_72 
REMARK   10  A    between atoms: C_20  and  O_23 
REMARK   11  A    between atoms: C_28  and  O_32 
REMARK   12  A    between atoms: C_30  and  O_33 
REMARK   13  A    between atoms: C_37  and  O_42 
REMARK   14  A    between atoms: C_39  and  O_43 
REMARK   15  A    between atoms: C_46  and  O_67 
REMARK   16  A    between atoms: C_48  and  O_65 
REMARK   17  A    between atoms: C_49  and  C_52 
REMARK   18  A    between atoms: C_50  and  O_66 
REMARK   19  A    between atoms: C_52  and  O_60 
REMARK   20  A    between atoms: C_54  and  O_60 
REMARK   21  A    between atoms: C_72  and  O_73 
ROOT
HETATM    1  C   UNK     0     -31.076  -6.294 -16.738  0.00  0.00     0.058 A 
HETATM    2  C   UNK     0     -30.730  -6.625 -18.040  0.00  0.00     0.060 A 
HETATM    3  C   UNK     0     -31.533  -5.026 -16.427  0.00  0.00     0.102 A 
HETATM    4  C   UNK     0     -30.844  -5.665 -19.056  0.00  0.00     0.127 A 
HETATM    5  C   UNK     0     -31.650  -4.077 -17.424  0.00  0.00     0.135 A 
HETATM    6  C   UNK     0     -31.308  -4.398 -18.726  0.00  0.00     0.137 A 
HETATM    7  C   UNK     0     -29.930  -7.672 -23.485  0.00  0.00     0.114 A 
HETATM    8  C   UNK     0     -29.422  -8.891 -23.043  0.00  0.00     0.030 A 
HETATM    9  C   UNK     0     -30.298  -6.670 -22.602  0.00  0.00     0.134 A 
HETATM   10  C   UNK     0     -29.294  -9.079 -21.661  0.00  0.00     0.059 A 
HETATM   11  C   UNK     0     -30.168  -6.859 -21.239  0.00  0.00     0.116 A 
HETATM   12  C   UNK     0     -29.664  -8.064 -20.797  0.00  0.00     0.329 A 
HETATM   13  O   UNK     0     -30.524  -5.839 -20.388  0.00  0.00    -0.304 OA
HETATM   14  C   UNK     0     -28.787 -10.290 -21.006  0.00  0.00     0.295 C 
HETATM   15  C   UNK     0     -27.178 -18.144 -22.472  0.00  0.00     0.026 A 
HETATM   16  C   UNK     0     -27.328 -17.228 -21.434  0.00  0.00     0.006 A 
HETATM   17  C   UNK     0     -27.128 -17.749 -23.796  0.00  0.00     0.111 A 
HETATM   18  C   UNK     0     -27.434 -15.867 -21.773  0.00  0.00     0.054 A 
HETATM   19  C   UNK     0     -27.234 -16.412 -24.117  0.00  0.00     0.100 A 
HETATM   20  C   UNK     0     -27.386 -15.482 -23.106  0.00  0.00     0.058 A 
HETATM   21  O   UNK     0     -27.067 -19.467 -22.174  0.00  0.00     0.000 OA
HETATM   22  C   UNK     0     -26.667 -19.088 -19.951  0.00  0.00     0.026 A 
HETATM   23  C   UNK     0     -27.328 -17.863 -20.039  0.00  0.00     0.006 A 
HETATM   24  C   UNK     0     -26.608 -19.805 -18.769  0.00  0.00     0.111 A 
HETATM   25  C   UNK     0     -27.933 -17.370 -18.874  0.00  0.00     0.054 A 
HETATM   26  C   UNK     0     -27.214 -19.307 -17.633  0.00  0.00     0.100 A 
HETATM   27  C   UNK     0     -27.871 -18.095 -17.693  0.00  0.00     0.058 A 
HETATM   28  C   UNK     0     -28.662 -16.115 -18.800  0.00  0.00     0.294 C 
HETATM   29  O   UNK     0     -26.069 -19.597 -21.061  0.00  0.00     0.000 OA
HETATM   30  O   UNK     0     -29.778 -16.042 -19.263  0.00  0.00    -0.259 OA
HETATM   31  C   UNK     0     -28.660 -12.911 -17.151  0.00  0.00     0.302 C 
HETATM   32  C   UNK     0     -28.948 -13.890 -18.262  0.00  0.00     0.220 C 
HETATM   33  O   UNK     0     -29.621 -11.849 -17.221  0.00  0.00    -0.348 OA
HETATM   34  C   UNK     0     -28.718 -13.177 -19.552  0.00  0.00     0.198 C 
HETATM   35  C   UNK     0     -29.719 -11.128 -18.468  0.00  0.00     0.181 C 
HETATM   36  C   UNK     0     -29.797 -12.111 -19.689  0.00  0.00     0.195 C 
HETATM   37  C   UNK     0     -30.991 -10.267 -18.450  0.00  0.00     0.212 C 
HETATM   38  O   UNK     0     -28.763 -14.112 -20.621  0.00  0.00    -0.306 OA
HETATM   39  O   UNK     0     -29.606 -11.380 -20.903  0.00  0.00    -0.307 OA
HETATM   40  O   UNK     0     -28.110 -15.025 -18.192  0.00  0.00    -0.304 OA
HETATM   41  O   UNK     0     -30.860  -9.063 -17.703  0.00  0.00    -0.328 OA
HETATM   42  C   UNK     0     -27.574 -14.765 -20.810  0.00  0.00     0.294 C 
HETATM   43  O   UNK     0     -26.604 -14.402 -20.187  0.00  0.00    -0.259 OA
HETATM   44  O   UNK     0     -27.684 -10.307 -20.510  0.00  0.00    -0.259 OA
HETATM   45  C   UNK     0     -30.253  -7.991 -18.281  0.00  0.00     0.179 C 
HETATM   46  O   UNK     0     -29.327  -8.170 -19.040  0.00  0.00    -0.383 OA
HETATM   47  H   UNK     0     -26.951 -20.145 -22.916  0.00  0.00     0.000 HD
HETATM   48  H   UNK     0     -25.592 -20.489 -21.015  0.00  0.00     0.000 HD
ENDROOT
BRANCH   3  49
HETATM   49  O   UNK     0     -31.866  -4.714 -15.146  0.00  0.00    -0.358 OA
HETATM   50  H   UNK     0     -32.833  -4.541 -14.902  0.00  0.00     0.217 HD
ENDBRANCH   3  49
BRANCH   5  51
HETATM   51  O   UNK     0     -32.098  -2.827 -17.125  0.00  0.00    -0.356 OA
HETATM   52  H   UNK     0     -33.007  -2.525 -17.452  0.00  0.00     0.218 HD
ENDBRANCH   5  51
BRANCH   6  53
HETATM   53  O   UNK     0     -31.424  -3.455 -19.700  0.00  0.00    -0.356 OA
HETATM   54  H   UNK     0     -31.895  -3.679 -20.568  0.00  0.00     0.218 HD
ENDBRANCH   6  53
BRANCH   9  55
HETATM   55  O   UNK     0     -30.779  -5.491 -23.081  0.00  0.00    -0.356 OA
HETATM   56  H   UNK     0     -30.989  -4.733 -22.444  0.00  0.00     0.218 HD
ENDBRANCH   9  55
BRANCH   7  57
HETATM   57  O   UNK     0     -30.055  -7.456 -24.822  0.00  0.00    -0.357 OA
HETATM   58  H   UNK     0     -30.151  -6.511 -25.174  0.00  0.00     0.217 HD
ENDBRANCH   7  57
BRANCH   8  59
HETATM   59  C   UNK     0     -29.034  -9.870 -24.139  0.00  0.00     0.023 A 
HETATM   60  C   UNK     0     -27.709  -9.796 -24.555  0.00  0.00     0.113 A 
HETATM   61  C   UNK     0     -27.212 -10.619 -25.549  0.00  0.00     0.133 A 
HETATM   62  C   UNK     0     -28.040 -11.546 -26.151  0.00  0.00     0.102 A 
HETATM   63  C   UNK     0     -29.363 -11.632 -25.758  0.00  0.00     0.049 A 
HETATM   64  C   UNK     0     -29.869 -10.805 -24.765  0.00  0.00    -0.018 A 
BRANCH  60  65
HETATM   65  O   UNK     0     -26.883  -8.884 -23.973  0.00  0.00    -0.357 OA
HETATM   66  H   UNK     0     -26.782  -7.963 -24.378  0.00  0.00     0.217 HD
ENDBRANCH  60  65
BRANCH  61  67
HETATM   67  O   UNK     0     -25.913 -10.514 -25.936  0.00  0.00    -0.356 OA
HETATM   68  H   UNK     0     -25.241 -10.054 -25.335  0.00  0.00     0.218 HD
ENDBRANCH  61  67
BRANCH  62  69
HETATM   69  O   UNK     0     -27.558 -12.361 -27.126  0.00  0.00    -0.358 OA
HETATM   70  H   UNK     0     -28.158 -12.649 -27.888  0.00  0.00     0.217 HD
ENDBRANCH  62  69
BRANCH  64  71
HETATM   71  C   UNK     0     -31.326 -10.978 -24.438  0.00  0.00     0.203 C 
BRANCH  71  72
HETATM   72  O   UNK     0     -31.432 -11.742 -23.245  0.00  0.00    -0.396 OA
HETATM   73  H   UNK     0     -30.793 -11.575 -22.478  0.00  0.00     0.209 HD
ENDBRANCH  71  72
ENDBRANCH  64  71
ENDBRANCH   8  59
BRANCH  31  74
HETATM   74  O   UNK     0     -28.755 -13.563 -15.894  0.00  0.00    -0.283 OA
BRANCH  74  75
HETATM   75  C   UNK     0     -27.737 -13.395 -15.014  0.00  0.00     0.295 C 
HETATM   76  O   UNK     0     -27.186 -12.322 -14.938  0.00  0.00    -0.259 OA
BRANCH  75  77
HETATM   77  C   UNK     0     -27.302 -14.500 -14.149  0.00  0.00     0.045 A 
HETATM   78  C   UNK     0     -26.741 -14.241 -12.908  0.00  0.00     0.057 A 
HETATM   79  C   UNK     0     -26.328 -15.292 -12.103  0.00  0.00     0.102 A 
HETATM   80  C   UNK     0     -26.472 -16.599 -12.540  0.00  0.00     0.132 A 
HETATM   81  C   UNK     0     -27.033 -16.857 -13.781  0.00  0.00     0.102 A 
HETATM   82  C   UNK     0     -27.450 -15.808 -14.583  0.00  0.00     0.057 A 
BRANCH  79  83
HETATM   83  O   UNK     0     -25.778 -15.042 -10.883  0.00  0.00    -0.358 OA
HETATM   84  H   UNK     0     -25.663 -15.794 -10.216  0.00  0.00     0.217 HD
ENDBRANCH  79  83
BRANCH  80  85
HETATM   85  O   UNK     0     -26.059 -17.630 -11.754  0.00  0.00    -0.356 OA
HETATM   86  H   UNK     0     -26.537 -18.522 -11.797  0.00  0.00     0.218 HD
ENDBRANCH  80  85
BRANCH  81  87
HETATM   87  O   UNK     0     -27.173 -18.139 -14.210  0.00  0.00    -0.358 OA
HETATM   88  H   UNK     0     -27.221 -18.895 -13.540  0.00  0.00     0.217 HD
ENDBRANCH  81  87
ENDBRANCH  75  77
ENDBRANCH  74  75
ENDBRANCH  31  74
BRANCH  19  89
HETATM   89  O   UNK     0     -27.185 -16.017 -25.417  0.00  0.00    -0.358 OA
HETATM   90  H   UNK     0     -26.973 -16.690 -26.143  0.00  0.00     0.217 HD
ENDBRANCH  19  89
BRANCH  26  91
HETATM   91  O   UNK     0     -27.167 -20.007 -16.467  0.00  0.00    -0.358 OA
HETATM   92  H   UNK     0     -26.318 -20.486 -16.199  0.00  0.00     0.217 HD
ENDBRANCH  26  91
BRANCH  17  93
HETATM   93  O   UNK     0     -26.971 -18.676 -24.781  0.00  0.00    -0.357 OA
HETATM   94  H   UNK     0     -27.739 -18.884 -25.407  0.00  0.00     0.217 HD
ENDBRANCH  17  93
BRANCH  24  95
HETATM   95  O   UNK     0     -25.961 -21.001 -18.725  0.00  0.00    -0.357 OA
HETATM   96  H   UNK     0     -24.974 -21.034 -18.504  0.00  0.00     0.217 HD
ENDBRANCH  24  95
TORSDOF 21
