REMARK VINA RESULT:      -7.3     26.527     32.921
REMARK  21 active torsions:
REMARK  status: ('A' for Active; 'I' for Inactive)
REMARK    1  A    between atoms: C_3  and  O_78 
REMARK    2  A    between atoms: C_5  and  O_77 
REMARK    3  A    between atoms: C_6  and  O_76 
REMARK    4  A    between atoms: C_7  and  O_15 
REMARK    5  A    between atoms: C_8  and  C_17 
REMARK    6  A    between atoms: C_9  and  O_13 
REMARK    7  A    between atoms: C_16  and  O_24 
REMARK    8  A    between atoms: C_18  and  O_22 
REMARK    9  A    between atoms: C_19  and  C_72 
REMARK   10  A    between atoms: C_20  and  O_23 
REMARK   11  A    between atoms: C_28  and  O_32 
REMARK   12  A    between atoms: C_30  and  O_33 
REMARK   13  A    between atoms: C_37  and  O_42 
REMARK   14  A    between atoms: C_39  and  O_43 
REMARK   15  A    between atoms: C_46  and  O_67 
REMARK   16  A    between atoms: C_48  and  O_65 
REMARK   17  A    between atoms: C_49  and  C_52 
REMARK   18  A    between atoms: C_50  and  O_66 
REMARK   19  A    between atoms: C_52  and  O_60 
REMARK   20  A    between atoms: C_54  and  O_60 
REMARK   21  A    between atoms: C_72  and  O_73 
ROOT
HETATM    1  C   UNK     0     -27.877 -14.597 -27.214  0.00  0.00     0.058 A 
HETATM    2  C   UNK     0     -27.901 -14.741 -25.835  0.00  0.00     0.060 A 
HETATM    3  C   UNK     0     -27.580 -15.672 -28.033  0.00  0.00     0.102 A 
HETATM    4  C   UNK     0     -27.623 -15.988 -25.260  0.00  0.00     0.127 A 
HETATM    5  C   UNK     0     -27.307 -16.904 -27.473  0.00  0.00     0.135 A 
HETATM    6  C   UNK     0     -27.331 -17.057 -26.097  0.00  0.00     0.137 A 
HETATM    7  C   UNK     0     -28.384 -15.883 -20.372  0.00  0.00     0.114 A 
HETATM    8  C   UNK     0     -28.526 -14.506 -20.229  0.00  0.00     0.030 A 
HETATM    9  C   UNK     0     -28.082 -16.464 -21.594  0.00  0.00     0.134 A 
HETATM   10  C   UNK     0     -28.354 -13.713 -21.371  0.00  0.00     0.059 A 
HETATM   11  C   UNK     0     -27.911 -15.677 -22.717  0.00  0.00     0.116 A 
HETATM   12  C   UNK     0     -28.049 -14.313 -22.579  0.00  0.00     0.329 A 
HETATM   13  O   UNK     0     -27.593 -16.281 -23.911  0.00  0.00    -0.304 OA
HETATM   14  C   UNK     0     -28.469 -12.250 -21.421  0.00  0.00     0.295 C 
HETATM   15  C   UNK     0     -31.295  -5.916 -17.143  0.00  0.00     0.026 A 
HETATM   16  C   UNK     0     -30.834  -6.269 -18.408  0.00  0.00     0.006 A 
HETATM   17  C   UNK     0     -31.203  -6.774 -16.063  0.00  0.00     0.111 A 
HETATM   18  C   UNK     0     -30.265  -7.547 -18.564  0.00  0.00     0.054 A 
HETATM   19  C   UNK     0     -30.644  -8.025 -16.228  0.00  0.00     0.100 A 
HETATM   20  C   UNK     0     -30.180  -8.402 -17.473  0.00  0.00     0.058 A 
HETATM   21  O   UNK     0     -31.845  -4.684 -16.961  0.00  0.00     0.000 OA
HETATM   22  C   UNK     0     -31.055  -3.871 -18.950  0.00  0.00     0.026 A 
HETATM   23  C   UNK     0     -30.999  -5.167 -19.460  0.00  0.00     0.006 A 
HETATM   24  C   UNK     0     -31.236  -2.770 -19.768  0.00  0.00     0.111 A 
HETATM   25  C   UNK     0     -31.127  -5.322 -20.848  0.00  0.00     0.054 A 
HETATM   26  C   UNK     0     -31.365  -2.940 -21.132  0.00  0.00     0.100 A 
HETATM   27  C   UNK     0     -31.310  -4.213 -21.661  0.00  0.00     0.058 A 
HETATM   28  C   UNK     0     -31.095  -6.603 -21.535  0.00  0.00     0.294 C 
HETATM   29  O   UNK     0     -30.935  -3.683 -17.609  0.00  0.00     0.000 OA
HETATM   30  O   UNK     0     -32.060  -7.332 -21.488  0.00  0.00    -0.259 OA
HETATM   31  C   UNK     0     -29.261  -8.460 -24.020  0.00  0.00     0.302 C 
HETATM   32  C   UNK     0     -30.136  -8.273 -22.805  0.00  0.00     0.220 C 
HETATM   33  O   UNK     0     -29.542  -9.747 -24.587  0.00  0.00    -0.348 OA
HETATM   34  C   UNK     0     -29.723  -9.295 -21.799  0.00  0.00     0.198 C 
HETATM   35  C   UNK     0     -29.399 -10.895 -23.725  0.00  0.00     0.181 C 
HETATM   36  C   UNK     0     -30.110 -10.663 -22.345  0.00  0.00     0.195 C 
HETATM   37  C   UNK     0     -30.038 -12.115 -24.405  0.00  0.00     0.212 C 
HETATM   38  O   UNK     0     -30.364  -9.022 -20.560  0.00  0.00    -0.306 OA
HETATM   39  O   UNK     0     -29.713 -11.683 -21.426  0.00  0.00    -0.307 OA
HETATM   40  O   UNK     0     -29.997  -6.981 -22.251  0.00  0.00    -0.304 OA
HETATM   41  O   UNK     0     -29.223 -12.703 -25.413  0.00  0.00    -0.328 OA
HETATM   42  C   UNK     0     -29.708  -8.076 -19.817  0.00  0.00     0.294 C 
HETATM   43  O   UNK     0     -28.625  -7.690 -20.188  0.00  0.00    -0.259 OA
HETATM   44  O   UNK     0     -27.482 -11.558 -21.519  0.00  0.00    -0.259 OA
HETATM   45  C   UNK     0     -28.224 -13.548 -25.042  0.00  0.00     0.179 C 
HETATM   46  O   UNK     0     -27.615 -13.336 -24.018  0.00  0.00    -0.383 OA
HETATM   47  H   UNK     0     -32.179  -4.410 -16.046  0.00  0.00     0.000 HD
HETATM   48  H   UNK     0     -30.980  -2.748 -17.223  0.00  0.00     0.000 HD
ENDROOT
BRANCH   3  49
HETATM   49  O   UNK     0     -27.556 -15.517 -29.384  0.00  0.00    -0.358 OA
HETATM   50  H   UNK     0     -27.253 -14.640 -29.788  0.00  0.00     0.217 HD
ENDBRANCH   3  49
BRANCH   5  51
HETATM   51  O   UNK     0     -27.013 -17.966 -28.272  0.00  0.00    -0.356 OA
HETATM   52  H   UNK     0     -26.531 -17.819 -29.150  0.00  0.00     0.218 HD
ENDBRANCH   5  51
BRANCH   6  53
HETATM   53  O   UNK     0     -27.058 -18.275 -25.555  0.00  0.00    -0.356 OA
HETATM   54  H   UNK     0     -26.098 -18.575 -25.439  0.00  0.00     0.218 HD
ENDBRANCH   6  53
BRANCH   9  55
HETATM   55  O   UNK     0     -27.941 -17.815 -21.682  0.00  0.00    -0.356 OA
HETATM   56  H   UNK     0     -28.316 -18.312 -22.480  0.00  0.00     0.218 HD
ENDBRANCH   9  55
BRANCH   7  57
HETATM   57  O   UNK     0     -28.533 -16.679 -19.279  0.00  0.00    -0.357 OA
HETATM   58  H   UNK     0     -28.694 -17.672 -19.395  0.00  0.00     0.217 HD
ENDBRANCH   7  57
BRANCH   8  59
HETATM   59  C   UNK     0     -28.824 -14.025 -18.818  0.00  0.00     0.023 A 
HETATM   60  C   UNK     0     -27.716 -13.600 -18.093  0.00  0.00     0.113 A 
HETATM   61  C   UNK     0     -27.830 -13.142 -16.793  0.00  0.00     0.133 A 
HETATM   62  C   UNK     0     -29.070 -13.098 -16.187  0.00  0.00     0.102 A 
HETATM   63  C   UNK     0     -30.184 -13.522 -16.886  0.00  0.00     0.049 A 
HETATM   64  C   UNK     0     -30.075 -13.988 -18.190  0.00  0.00    -0.018 A 
BRANCH  60  65
HETATM   65  O   UNK     0     -26.487 -13.643 -18.676  0.00  0.00    -0.357 OA
HETATM   66  H   UNK     0     -26.120 -12.826 -19.146  0.00  0.00     0.217 HD
ENDBRANCH  60  65
BRANCH  61  67
HETATM   67  O   UNK     0     -26.725 -12.741 -16.111  0.00  0.00    -0.356 OA
HETATM   68  H   UNK     0     -26.777 -11.953 -15.478  0.00  0.00     0.218 HD
ENDBRANCH  61  67
BRANCH  62  69
HETATM   69  O   UNK     0     -29.191 -12.645 -14.910  0.00  0.00    -0.358 OA
HETATM   70  H   UNK     0     -28.921 -13.237 -14.136  0.00  0.00     0.217 HD
ENDBRANCH  62  69
BRANCH  64  71
HETATM   71  C   UNK     0     -31.353 -14.441 -18.840  0.00  0.00     0.203 C 
BRANCH  71  72
HETATM   72  O   UNK     0     -31.458 -15.850 -18.696  0.00  0.00    -0.396 OA
HETATM   73  H   UNK     0     -32.269 -16.255 -18.245  0.00  0.00     0.209 HD
ENDBRANCH  71  72
ENDBRANCH  64  71
ENDBRANCH   8  59
BRANCH  31  74
HETATM   74  O   UNK     0     -29.532  -7.444 -24.972  0.00  0.00    -0.283 OA
BRANCH  74  75
HETATM   75  C   UNK     0     -28.559  -7.138 -25.867  0.00  0.00     0.295 C 
HETATM   76  O   UNK     0     -28.862  -6.858 -27.003  0.00  0.00    -0.259 OA
BRANCH  75  77
HETATM   77  C   UNK     0     -27.145  -7.137 -25.467  0.00  0.00     0.045 A 
HETATM   78  C   UNK     0     -26.523  -8.316 -25.087  0.00  0.00     0.057 A 
HETATM   79  C   UNK     0     -25.190  -8.302 -24.706  0.00  0.00     0.102 A 
HETATM   80  C   UNK     0     -24.482  -7.111 -24.702  0.00  0.00     0.132 A 
HETATM   81  C   UNK     0     -25.104  -5.933 -25.083  0.00  0.00     0.102 A 
HETATM   82  C   UNK     0     -26.435  -5.947 -25.468  0.00  0.00     0.057 A 
BRANCH  79  83
HETATM   83  O   UNK     0     -24.575  -9.458 -24.333  0.00  0.00    -0.358 OA
HETATM   84  H   UNK     0     -24.401 -10.182 -25.018  0.00  0.00     0.217 HD
ENDBRANCH  79  83
BRANCH  80  85
HETATM   85  O   UNK     0     -23.176  -7.096 -24.321  0.00  0.00    -0.356 OA
HETATM   86  H   UNK     0     -22.550  -6.389 -24.686  0.00  0.00     0.218 HD
ENDBRANCH  80  85
BRANCH  81  87
HETATM   87  O   UNK     0     -24.410  -4.764 -25.077  0.00  0.00    -0.358 OA
HETATM   88  H   UNK     0     -24.894  -3.889 -24.923  0.00  0.00     0.217 HD
ENDBRANCH  81  87
ENDBRANCH  75  77
ENDBRANCH  74  75
ENDBRANCH  31  74
BRANCH  19  89
HETATM   89  O   UNK     0     -30.549  -8.873 -15.169  0.00  0.00    -0.358 OA
HETATM   90  H   UNK     0     -29.676  -9.351 -14.980  0.00  0.00     0.217 HD
ENDBRANCH  19  89
BRANCH  26  91
HETATM   91  O   UNK     0     -31.551  -1.865 -21.943  0.00  0.00    -0.358 OA
HETATM   92  H   UNK     0     -30.752  -1.376 -22.326  0.00  0.00     0.217 HD
ENDBRANCH  26  91
BRANCH  17  93
HETATM   93  O   UNK     0     -31.657  -6.387 -14.840  0.00  0.00    -0.357 OA
HETATM   94  H   UNK     0     -31.452  -5.457 -14.495  0.00  0.00     0.217 HD
ENDBRANCH  17  93
BRANCH  24  95
HETATM   95  O   UNK     0     -31.293  -1.520 -19.231  0.00  0.00    -0.357 OA
HETATM   96  H   UNK     0     -31.422  -0.717 -19.833  0.00  0.00     0.217 HD
ENDBRANCH  24  95
TORSDOF 21
