REMARK VINA RESULT:      -7.9      0.000      0.000
REMARK  21 active torsions:
REMARK  status: ('A' for Active; 'I' for Inactive)
REMARK    1  A    between atoms: C_3  and  O_78 
REMARK    2  A    between atoms: C_5  and  O_77 
REMARK    3  A    between atoms: C_6  and  O_76 
REMARK    4  A    between atoms: C_7  and  O_15 
REMARK    5  A    between atoms: C_8  and  C_17 
REMARK    6  A    between atoms: C_9  and  O_13 
REMARK    7  A    between atoms: C_16  and  O_24 
REMARK    8  A    between atoms: C_18  and  O_22 
REMARK    9  A    between atoms: C_19  and  C_72 
REMARK   10  A    between atoms: C_20  and  O_23 
REMARK   11  A    between atoms: C_28  and  O_32 
REMARK   12  A    between atoms: C_30  and  O_33 
REMARK   13  A    between atoms: C_37  and  O_42 
REMARK   14  A    between atoms: C_39  and  O_43 
REMARK   15  A    between atoms: C_46  and  O_67 
REMARK   16  A    between atoms: C_48  and  O_65 
REMARK   17  A    between atoms: C_49  and  C_52 
REMARK   18  A    between atoms: C_50  and  O_66 
REMARK   19  A    between atoms: C_52  and  O_60 
REMARK   20  A    between atoms: C_54  and  O_60 
REMARK   21  A    between atoms: C_72  and  O_73 
ROOT
HETATM    1  C   UNK     0      -3.520   2.337 -31.939  0.00  0.00     0.058 A 
HETATM    2  C   UNK     0      -2.298   1.681 -31.939  0.00  0.00     0.060 A 
HETATM    3  C   UNK     0      -4.203   2.562 -33.121  0.00  0.00     0.102 A 
HETATM    4  C   UNK     0      -1.745   1.238 -33.149  0.00  0.00     0.127 A 
HETATM    5  C   UNK     0      -3.665   2.127 -34.316  0.00  0.00     0.135 A 
HETATM    6  C   UNK     0      -2.446   1.470 -34.326  0.00  0.00     0.137 A 
HETATM    7  C   UNK     0       2.338  -1.439 -32.346  0.00  0.00     0.114 A 
HETATM    8  C   UNK     0       2.499  -1.143 -30.995  0.00  0.00     0.030 A 
HETATM    9  C   UNK     0       1.328  -0.868 -33.104  0.00  0.00     0.134 A 
HETATM   10  C   UNK     0       1.598  -0.240 -30.415  0.00  0.00     0.059 A 
HETATM   11  C   UNK     0       0.443   0.024 -32.528  0.00  0.00     0.116 A 
HETATM   12  C   UNK     0       0.600   0.322 -31.191  0.00  0.00     0.329 A 
HETATM   13  O   UNK     0      -0.537   0.590 -33.310  0.00  0.00    -0.304 OA
HETATM   14  C   UNK     0       1.603   0.191 -29.012  0.00  0.00     0.295 C 
HETATM   15  C   UNK     0       4.674  -1.804 -21.732  0.00  0.00     0.026 A 
HETATM   16  C   UNK     0       3.709  -1.002 -22.335  0.00  0.00     0.006 A 
HETATM   17  C   UNK     0       5.628  -2.482 -22.468  0.00  0.00     0.111 A 
HETATM   18  C   UNK     0       3.725  -0.902 -23.738  0.00  0.00     0.054 A 
HETATM   19  C   UNK     0       5.634  -2.377 -23.843  0.00  0.00     0.100 A 
HETATM   20  C   UNK     0       4.686  -1.589 -24.468  0.00  0.00     0.058 A 
HETATM   21  O   UNK     0       4.686  -1.916 -20.376  0.00  0.00     0.000 OA
HETATM   22  C   UNK     0       3.289  -0.129 -20.064  0.00  0.00     0.026 A 
HETATM   23  C   UNK     0       2.765  -0.313 -21.344  0.00  0.00     0.006 A 
HETATM   24  C   UNK     0       2.549   0.447 -19.047  0.00  0.00     0.111 A 
HETATM   25  C   UNK     0       1.450   0.116 -21.571  0.00  0.00     0.054 A 
HETATM   26  C   UNK     0       1.254   0.860 -19.287  0.00  0.00     0.100 A 
HETATM   27  C   UNK     0       0.714   0.692 -20.546  0.00  0.00     0.058 A 
HETATM   28  C   UNK     0       0.757  -0.008 -22.844  0.00  0.00     0.294 C 
HETATM   29  O   UNK     0       4.561  -0.533 -19.807  0.00  0.00     0.000 OA
HETATM   30  O   UNK     0       0.336  -1.087 -23.194  0.00  0.00    -0.259 OA
HETATM   31  C   UNK     0      -0.819   1.941 -25.433  0.00  0.00     0.302 C 
HETATM   32  C   UNK     0      -0.088   0.757 -24.850  0.00  0.00     0.220 C 
HETATM   33  O   UNK     0      -1.539   1.503 -26.593  0.00  0.00    -0.348 OA
HETATM   34  C   UNK     0       0.926   0.323 -25.855  0.00  0.00     0.198 C 
HETATM   35  C   UNK     0      -0.779   0.859 -27.638  0.00  0.00     0.181 C 
HETATM   36  C   UNK     0       0.174  -0.242 -27.053  0.00  0.00     0.195 C 
HETATM   37  C   UNK     0      -1.749   0.192 -28.625  0.00  0.00     0.212 C 
HETATM   38  O   UNK     0       1.785  -0.646 -25.268  0.00  0.00    -0.306 OA
HETATM   39  O   UNK     0       1.104  -0.652 -28.059  0.00  0.00    -0.307 OA
HETATM   40  O   UNK     0       0.558   1.085 -23.637  0.00  0.00    -0.304 OA
HETATM   41  O   UNK     0      -2.347   1.099 -29.544  0.00  0.00    -0.328 OA
HETATM   42  C   UNK     0       2.800  -0.086 -24.537  0.00  0.00     0.294 C 
HETATM   43  O   UNK     0       2.957   1.111 -24.578  0.00  0.00    -0.259 OA
HETATM   44  O   UNK     0       1.986   1.298 -28.709  0.00  0.00    -0.259 OA
HETATM   45  C   UNK     0      -1.641   1.486 -30.642  0.00  0.00     0.179 C 
HETATM   46  O   UNK     0      -0.443   1.634 -30.556  0.00  0.00    -0.383 OA
HETATM   47  H   UNK     0       5.385  -2.490 -19.921  0.00  0.00     0.000 HD
HETATM   48  H   UNK     0       4.953  -0.412 -18.881  0.00  0.00     0.000 HD
ENDROOT
BRANCH   3  49
HETATM   49  O   UNK     0      -5.399   3.210 -33.108  0.00  0.00    -0.358 OA
HETATM   50  H   UNK     0      -5.879   3.404 -33.977  0.00  0.00     0.217 HD
ENDBRANCH   3  49
BRANCH   5  51
HETATM   51  O   UNK     0      -4.331   2.346 -35.483  0.00  0.00    -0.356 OA
HETATM   52  H   UNK     0      -5.320   2.561 -35.467  0.00  0.00     0.218 HD
ENDBRANCH   5  51
BRANCH   6  53
HETATM   53  O   UNK     0      -1.924   1.047 -35.509  0.00  0.00    -0.356 OA
HETATM   54  H   UNK     0      -1.865   0.057 -35.712  0.00  0.00     0.218 HD
ENDBRANCH   6  53
BRANCH   9  55
HETATM   55  O   UNK     0       1.216  -1.179 -34.424  0.00  0.00    -0.356 OA
HETATM   56  H   UNK     0       2.034  -1.465 -34.947  0.00  0.00     0.218 HD
ENDBRANCH   9  55
BRANCH   7  57
HETATM   57  O   UNK     0       3.204  -2.303 -32.940  0.00  0.00    -0.357 OA
HETATM   58  H   UNK     0       3.415  -3.190 -32.500  0.00  0.00     0.217 HD
ENDBRANCH   7  57
BRANCH   8  59
HETATM   59  C   UNK     0       3.675  -1.826 -30.315  0.00  0.00     0.023 A 
HETATM   60  C   UNK     0       3.355  -2.973 -29.596  0.00  0.00     0.113 A 
HETATM   61  C   UNK     0       4.320  -3.697 -28.918  0.00  0.00     0.133 A 
HETATM   62  C   UNK     0       5.637  -3.285 -28.952  0.00  0.00     0.102 A 
HETATM   63  C   UNK     0       5.976  -2.145 -29.655  0.00  0.00     0.049 A 
HETATM   64  C   UNK     0       5.012  -1.410 -30.332  0.00  0.00    -0.018 A 
BRANCH  60  65
HETATM   65  O   UNK     0       2.060  -3.386 -29.551  0.00  0.00    -0.357 OA
HETATM   66  H   UNK     0       1.365  -2.939 -30.134  0.00  0.00     0.217 HD
ENDBRANCH  60  65
BRANCH  61  67
HETATM   67  O   UNK     0       3.971  -4.808 -28.219  0.00  0.00    -0.356 OA
HETATM   68  H   UNK     0       4.681  -5.464 -27.920  0.00  0.00     0.218 HD
ENDBRANCH  61  67
BRANCH  62  69
HETATM   69  O   UNK     0       6.591  -3.995 -28.292  0.00  0.00    -0.358 OA
HETATM   70  H   UNK     0       7.265  -4.542 -28.811  0.00  0.00     0.217 HD
ENDBRANCH  62  69
BRANCH  64  71
HETATM   71  C   UNK     0       5.498  -0.178 -31.044  0.00  0.00     0.203 C 
BRANCH  71  72
HETATM   72  O   UNK     0       5.750  -0.513 -32.402  0.00  0.00    -0.396 OA
HETATM   73  H   UNK     0       6.703  -0.618 -32.729  0.00  0.00     0.209 HD
ENDBRANCH  71  72
ENDBRANCH  64  71
ENDBRANCH   8  59
BRANCH  31  74
HETATM   74  O   UNK     0      -1.724   2.470 -24.476  0.00  0.00    -0.283 OA
BRANCH  74  75
HETATM   75  C   UNK     0      -2.512   3.507 -24.855  0.00  0.00     0.295 C 
HETATM   76  O   UNK     0      -2.014   4.469 -25.391  0.00  0.00    -0.259 OA
BRANCH  75  77
HETATM   77  C   UNK     0      -3.963   3.470 -24.627  0.00  0.00     0.045 A 
HETATM   78  C   UNK     0      -4.746   4.581 -24.904  0.00  0.00     0.057 A 
HETATM   79  C   UNK     0      -6.113   4.536 -24.678  0.00  0.00     0.102 A 
HETATM   80  C   UNK     0      -6.696   3.385 -24.173  0.00  0.00     0.132 A 
HETATM   81  C   UNK     0      -5.914   2.275 -23.898  0.00  0.00     0.102 A 
HETATM   82  C   UNK     0      -4.548   2.317 -24.127  0.00  0.00     0.057 A 
BRANCH  79  83
HETATM   83  O   UNK     0      -6.885   5.624 -24.951  0.00  0.00    -0.358 OA
HETATM   84  H   UNK     0      -7.504   5.995 -24.242  0.00  0.00     0.217 HD
ENDBRANCH  79  83
BRANCH  80  85
HETATM   85  O   UNK     0      -8.036   3.344 -23.945  0.00  0.00    -0.356 OA
HETATM   86  H   UNK     0      -8.469   2.487 -23.623  0.00  0.00     0.218 HD
ENDBRANCH  80  85
BRANCH  81  87
HETATM   87  O   UNK     0      -6.485   1.147 -23.401  0.00  0.00    -0.358 OA
HETATM   88  H   UNK     0      -5.953   0.287 -23.355  0.00  0.00     0.217 HD
ENDBRANCH  81  87
ENDBRANCH  75  77
ENDBRANCH  74  75
ENDBRANCH  31  74
BRANCH  19  89
HETATM   89  O   UNK     0       6.571  -3.040 -24.573  0.00  0.00    -0.358 OA
HETATM   90  H   UNK     0       7.044  -3.843 -24.180  0.00  0.00     0.217 HD
ENDBRANCH  19  89
BRANCH  26  91
HETATM   91  O   UNK     0       0.516   1.421 -18.291  0.00  0.00    -0.358 OA
HETATM   92  H   UNK     0      -0.124   2.175 -18.500  0.00  0.00     0.217 HD
ENDBRANCH  26  91
BRANCH  17  93
HETATM   93  O   UNK     0       6.561  -3.248 -21.839  0.00  0.00    -0.357 OA
HETATM   94  H   UNK     0       7.485  -3.351 -22.240  0.00  0.00     0.217 HD
ENDBRANCH  17  93
BRANCH  24  95
HETATM   95  O   UNK     0       3.093   0.603 -17.809  0.00  0.00    -0.357 OA
HETATM   96  H   UNK     0       2.952   1.465 -17.299  0.00  0.00     0.217 HD
ENDBRANCH  24  95
TORSDOF 21
