REMARK VINA RESULT:      -7.2     23.118     26.357
REMARK  21 active torsions:
REMARK  status: ('A' for Active; 'I' for Inactive)
REMARK    1  A    between atoms: C_3  and  O_78 
REMARK    2  A    between atoms: C_5  and  O_77 
REMARK    3  A    between atoms: C_6  and  O_76 
REMARK    4  A    between atoms: C_7  and  O_15 
REMARK    5  A    between atoms: C_8  and  C_17 
REMARK    6  A    between atoms: C_9  and  O_13 
REMARK    7  A    between atoms: C_16  and  O_24 
REMARK    8  A    between atoms: C_18  and  O_22 
REMARK    9  A    between atoms: C_19  and  C_72 
REMARK   10  A    between atoms: C_20  and  O_23 
REMARK   11  A    between atoms: C_28  and  O_32 
REMARK   12  A    between atoms: C_30  and  O_33 
REMARK   13  A    between atoms: C_37  and  O_42 
REMARK   14  A    between atoms: C_39  and  O_43 
REMARK   15  A    between atoms: C_46  and  O_67 
REMARK   16  A    between atoms: C_48  and  O_65 
REMARK   17  A    between atoms: C_49  and  C_52 
REMARK   18  A    between atoms: C_50  and  O_66 
REMARK   19  A    between atoms: C_52  and  O_60 
REMARK   20  A    between atoms: C_54  and  O_60 
REMARK   21  A    between atoms: C_72  and  O_73 
ROOT
HETATM    1  C   UNK     0     -10.305 -23.583 -12.679  0.00  0.00     0.058 A 
HETATM    2  C   UNK     0      -9.498 -23.709 -13.800  0.00  0.00     0.060 A 
HETATM    3  C   UNK     0     -11.615 -24.025 -12.696  0.00  0.00     0.102 A 
HETATM    4  C   UNK     0     -10.013 -24.293 -14.966  0.00  0.00     0.127 A 
HETATM    5  C   UNK     0     -12.128 -24.603 -13.841  0.00  0.00     0.135 A 
HETATM    6  C   UNK     0     -11.330 -24.735 -14.964  0.00  0.00     0.137 A 
HETATM    7  C   UNK     0      -6.461 -24.873 -18.362  0.00  0.00     0.114 A 
HETATM    8  C   UNK     0      -5.475 -24.110 -17.741  0.00  0.00     0.030 A 
HETATM    9  C   UNK     0      -7.736 -24.993 -17.830  0.00  0.00     0.134 A 
HETATM   10  C   UNK     0      -5.812 -23.460 -16.547  0.00  0.00     0.059 A 
HETATM   11  C   UNK     0      -8.063 -24.348 -16.652  0.00  0.00     0.116 A 
HETATM   12  C   UNK     0      -7.091 -23.591 -16.035  0.00  0.00     0.329 A 
HETATM   13  O   UNK     0      -9.341 -24.471 -16.159  0.00  0.00    -0.304 OA
HETATM   14  C   UNK     0      -4.912 -22.621 -15.748  0.00  0.00     0.295 C 
HETATM   15  C   UNK     0       2.981 -20.837 -14.783  0.00  0.00     0.026 A 
HETATM   16  C   UNK     0       1.738 -20.689 -14.172  0.00  0.00     0.006 A 
HETATM   17  C   UNK     0       3.112 -21.323 -16.071  0.00  0.00     0.111 A 
HETATM   18  C   UNK     0       0.599 -21.059 -14.910  0.00  0.00     0.054 A 
HETATM   19  C   UNK     0       1.987 -21.683 -16.785  0.00  0.00     0.100 A 
HETATM   20  C   UNK     0       0.742 -21.548 -16.201  0.00  0.00     0.058 A 
HETATM   21  O   UNK     0       4.101 -20.483 -14.096  0.00  0.00     0.000 OA
HETATM   22  C   UNK     0       2.937 -19.332 -12.494  0.00  0.00     0.026 A 
HETATM   23  C   UNK     0       1.807 -20.106 -12.757  0.00  0.00     0.006 A 
HETATM   24  C   UNK     0       3.162 -18.764 -11.252  0.00  0.00     0.111 A 
HETATM   25  C   UNK     0       0.889 -20.286 -11.712  0.00  0.00     0.054 A 
HETATM   26  C   UNK     0       2.251 -18.956 -10.233  0.00  0.00     0.100 A 
HETATM   27  C   UNK     0       1.123 -19.714 -10.470  0.00  0.00     0.058 A 
HETATM   28  C   UNK     0      -0.333 -21.066 -11.821  0.00  0.00     0.294 C 
HETATM   29  O   UNK     0       3.848 -19.136 -13.484  0.00  0.00     0.000 OA
HETATM   30  O   UNK     0      -0.274 -22.275 -11.815  0.00  0.00    -0.259 OA
HETATM   31  C   UNK     0      -3.918 -20.797 -11.572  0.00  0.00     0.302 C 
HETATM   32  C   UNK     0      -2.608 -21.369 -12.055  0.00  0.00     0.220 C 
HETATM   33  O   UNK     0      -4.916 -21.824 -11.647  0.00  0.00    -0.348 OA
HETATM   34  C   UNK     0      -2.777 -21.710 -13.498  0.00  0.00     0.198 C 
HETATM   35  C   UNK     0      -5.123 -22.452 -12.930  0.00  0.00     0.181 C 
HETATM   36  C   UNK     0      -3.759 -22.871 -13.585  0.00  0.00     0.195 C 
HETATM   37  C   UNK     0      -5.980 -23.712 -12.738  0.00  0.00     0.212 C 
HETATM   38  O   UNK     0      -1.513 -22.047 -14.053  0.00  0.00    -0.306 OA
HETATM   39  O   UNK     0      -3.975 -23.222 -14.954  0.00  0.00    -0.307 OA
HETATM   40  O   UNK     0      -1.546 -20.448 -11.908  0.00  0.00    -0.304 OA
HETATM   41  O   UNK     0      -7.369 -23.443 -12.586  0.00  0.00    -0.328 OA
HETATM   42  C   UNK     0      -0.787 -20.949 -14.434  0.00  0.00     0.294 C 
HETATM   43  O   UNK     0      -1.316 -19.863 -14.407  0.00  0.00    -0.259 OA
HETATM   44  O   UNK     0      -5.036 -21.417 -15.742  0.00  0.00    -0.259 OA
HETATM   45  C   UNK     0      -8.122 -23.212 -13.696  0.00  0.00     0.179 C 
HETATM   46  O   UNK     0      -7.634 -22.619 -14.631  0.00  0.00    -0.383 OA
HETATM   47  H   UNK     0       5.011 -20.578 -14.528  0.00  0.00     0.000 HD
HETATM   48  H   UNK     0       4.677 -18.583 -13.306  0.00  0.00     0.000 HD
ENDROOT
BRANCH   3  49
HETATM   49  O   UNK     0     -12.397 -23.893 -11.591  0.00  0.00    -0.358 OA
HETATM   50  H   UNK     0     -13.383 -23.684 -11.690  0.00  0.00     0.217 HD
ENDBRANCH   3  49
BRANCH   5  51
HETATM   51  O   UNK     0     -13.417 -25.040 -13.865  0.00  0.00    -0.356 OA
HETATM   52  H   UNK     0     -13.757 -25.569 -14.658  0.00  0.00     0.218 HD
ENDBRANCH   5  51
BRANCH   6  53
HETATM   53  O   UNK     0     -11.845 -25.303 -16.088  0.00  0.00    -0.356 OA
HETATM   54  H   UNK     0     -11.720 -26.293 -16.258  0.00  0.00     0.218 HD
ENDBRANCH   6  53
BRANCH   9  55
HETATM   55  O   UNK     0      -8.670 -25.740 -18.479  0.00  0.00    -0.356 OA
HETATM   56  H   UNK     0      -8.390 -26.360 -19.229  0.00  0.00     0.218 HD
ENDBRANCH   9  55
BRANCH   7  57
HETATM   57  O   UNK     0      -6.169 -25.506 -19.530  0.00  0.00    -0.357 OA
HETATM   58  H   UNK     0      -6.756 -25.365 -20.342  0.00  0.00     0.217 HD
ENDBRANCH   7  57
BRANCH   8  59
HETATM   59  C   UNK     0      -4.143 -24.052 -18.470  0.00  0.00     0.023 A 
HETATM   60  C   UNK     0      -3.234 -25.046 -18.118  0.00  0.00     0.113 A 
HETATM   61  C   UNK     0      -1.978 -25.117 -18.692  0.00  0.00     0.133 A 
HETATM   62  C   UNK     0      -1.603 -24.188 -19.642  0.00  0.00     0.102 A 
HETATM   63  C   UNK     0      -2.487 -23.188 -20.002  0.00  0.00     0.049 A 
HETATM   64  C   UNK     0      -3.747 -23.107 -19.425  0.00  0.00    -0.018 A 
BRANCH  60  65
HETATM   65  O   UNK     0      -3.589 -25.964 -17.179  0.00  0.00    -0.357 OA
HETATM   66  H   UNK     0      -4.053 -25.668 -16.331  0.00  0.00     0.217 HD
ENDBRANCH  60  65
BRANCH  61  67
HETATM   67  O   UNK     0      -1.113 -26.097 -18.319  0.00  0.00    -0.356 OA
HETATM   68  H   UNK     0      -0.469 -26.489 -18.994  0.00  0.00     0.218 HD
ENDBRANCH  61  67
BRANCH  62  69
HETATM   69  O   UNK     0      -0.371 -24.255 -20.214  0.00  0.00    -0.358 OA
HETATM   70  H   UNK     0      -0.098 -25.079 -20.734  0.00  0.00     0.217 HD
ENDBRANCH  62  69
BRANCH  64  71
HETATM   71  C   UNK     0      -4.612 -21.966 -19.882  0.00  0.00     0.203 C 
BRANCH  71  72
HETATM   72  O   UNK     0      -4.695 -21.014 -18.830  0.00  0.00    -0.396 OA
HETATM   73  H   UNK     0      -5.337 -20.235 -18.901  0.00  0.00     0.209 HD
ENDBRANCH  71  72
ENDBRANCH  64  71
ENDBRANCH   8  59
BRANCH  31  74
HETATM   74  O   UNK     0      -3.786 -20.350 -10.232  0.00  0.00    -0.283 OA
BRANCH  74  75
HETATM   75  C   UNK     0      -4.636 -19.386  -9.799  0.00  0.00     0.295 C 
HETATM   76  O   UNK     0      -5.474 -19.658  -8.971  0.00  0.00    -0.259 OA
BRANCH  75  77
HETATM   77  C   UNK     0      -4.545 -18.015 -10.320  0.00  0.00     0.045 A 
HETATM   78  C   UNK     0      -3.452 -17.219 -10.015  0.00  0.00     0.057 A 
HETATM   79  C   UNK     0      -3.380 -15.925 -10.507  0.00  0.00     0.102 A 
HETATM   80  C   UNK     0      -4.402 -15.427 -11.300  0.00  0.00     0.132 A 
HETATM   81  C   UNK     0      -5.493 -16.223 -11.606  0.00  0.00     0.102 A 
HETATM   82  C   UNK     0      -5.564 -17.518 -11.118  0.00  0.00     0.057 A 
BRANCH  79  83
HETATM   83  O   UNK     0      -2.308 -15.141 -10.211  0.00  0.00    -0.358 OA
HETATM   84  H   UNK     0      -1.370 -15.496 -10.341  0.00  0.00     0.217 HD
ENDBRANCH  79  83
BRANCH  80  85
HETATM   85  O   UNK     0      -4.335 -14.154 -11.777  0.00  0.00    -0.356 OA
HETATM   86  H   UNK     0      -5.040 -13.477 -11.514  0.00  0.00     0.218 HD
ENDBRANCH  80  85
BRANCH  81  87
HETATM   87  O   UNK     0      -6.496 -15.734 -12.382  0.00  0.00    -0.358 OA
HETATM   88  H   UNK     0      -7.427 -15.629 -12.000  0.00  0.00     0.217 HD
ENDBRANCH  81  87
ENDBRANCH  75  77
ENDBRANCH  74  75
ENDBRANCH  31  74
BRANCH  19  89
HETATM   89  O   UNK     0       2.108 -22.160 -18.052  0.00  0.00    -0.358 OA
HETATM   90  H   UNK     0       2.651 -22.996 -18.229  0.00  0.00     0.217 HD
ENDBRANCH  19  89
BRANCH  26  91
HETATM   91  O   UNK     0       2.467 -18.407  -9.008  0.00  0.00    -0.358 OA
HETATM   92  H   UNK     0       3.230 -17.757  -8.872  0.00  0.00     0.217 HD
ENDBRANCH  26  91
BRANCH  17  93
HETATM   93  O   UNK     0       4.344 -21.443 -16.635  0.00  0.00    -0.357 OA
HETATM   94  H   UNK     0       4.694 -20.715 -17.245  0.00  0.00     0.217 HD
ENDBRANCH  17  93
BRANCH  24  95
HETATM   95  O   UNK     0       4.281 -18.022 -11.033  0.00  0.00    -0.357 OA
HETATM   96  H   UNK     0       5.116 -18.462 -10.667  0.00  0.00     0.217 HD
ENDBRANCH  24  95
TORSDOF 21
