REMARK VINA RESULT:      -7.3      3.235     13.133
REMARK  21 active torsions:
REMARK  status: ('A' for Active; 'I' for Inactive)
REMARK    1  A    between atoms: C_3  and  O_78 
REMARK    2  A    between atoms: C_5  and  O_77 
REMARK    3  A    between atoms: C_6  and  O_76 
REMARK    4  A    between atoms: C_7  and  O_15 
REMARK    5  A    between atoms: C_8  and  C_17 
REMARK    6  A    between atoms: C_9  and  O_13 
REMARK    7  A    between atoms: C_16  and  O_24 
REMARK    8  A    between atoms: C_18  and  O_22 
REMARK    9  A    between atoms: C_19  and  C_72 
REMARK   10  A    between atoms: C_20  and  O_23 
REMARK   11  A    between atoms: C_28  and  O_32 
REMARK   12  A    between atoms: C_30  and  O_33 
REMARK   13  A    between atoms: C_37  and  O_42 
REMARK   14  A    between atoms: C_39  and  O_43 
REMARK   15  A    between atoms: C_46  and  O_67 
REMARK   16  A    between atoms: C_48  and  O_65 
REMARK   17  A    between atoms: C_49  and  C_52 
REMARK   18  A    between atoms: C_50  and  O_66 
REMARK   19  A    between atoms: C_52  and  O_60 
REMARK   20  A    between atoms: C_54  and  O_60 
REMARK   21  A    between atoms: C_72  and  O_73 
ROOT
HETATM    1  C   UNK     0       9.107  -4.495 -20.723  0.00  0.00     0.058 A 
HETATM    2  C   UNK     0       7.920  -3.781 -20.806  0.00  0.00     0.060 A 
HETATM    3  C   UNK     0       9.680  -4.776 -19.496  0.00  0.00     0.102 A 
HETATM    4  C   UNK     0       7.290  -3.339 -19.634  0.00  0.00     0.127 A 
HETATM    5  C   UNK     0       9.063  -4.344 -18.337  0.00  0.00     0.135 A 
HETATM    6  C   UNK     0       7.878  -3.633 -18.410  0.00  0.00     0.137 A 
HETATM    7  C   UNK     0       2.887  -1.325 -20.654  0.00  0.00     0.114 A 
HETATM    8  C   UNK     0       3.024  -1.255 -22.038  0.00  0.00     0.030 A 
HETATM    9  C   UNK     0       3.913  -1.780 -19.840  0.00  0.00     0.134 A 
HETATM   10  C   UNK     0       4.243  -1.665 -22.593  0.00  0.00     0.059 A 
HETATM   11  C   UNK     0       5.115  -2.180 -20.392  0.00  0.00     0.116 A 
HETATM   12  C   UNK     0       5.256  -2.111 -21.762  0.00  0.00     0.329 A 
HETATM   13  O   UNK     0       6.122  -2.608 -19.558  0.00  0.00    -0.304 OA
HETATM   14  C   UNK     0       4.574  -1.669 -24.022  0.00  0.00     0.295 C 
HETATM   15  C   UNK     0       1.099  -1.211 -31.380  0.00  0.00     0.026 A 
HETATM   16  C   UNK     0       2.297  -1.537 -30.749  0.00  0.00     0.006 A 
HETATM   17  C   UNK     0       0.050  -0.619 -30.701  0.00  0.00     0.111 A 
HETATM   18  C   UNK     0       2.412  -1.248 -29.376  0.00  0.00     0.054 A 
HETATM   19  C   UNK     0       0.174  -0.342 -29.356  0.00  0.00     0.100 A 
HETATM   20  C   UNK     0       1.351  -0.657 -28.704  0.00  0.00     0.058 A 
HETATM   21  O   UNK     0       0.961  -1.473 -32.708  0.00  0.00     0.000 OA
HETATM   22  C   UNK     0       3.201  -1.821 -33.028  0.00  0.00     0.026 A 
HETATM   23  C   UNK     0       3.344  -2.155 -31.682  0.00  0.00     0.006 A 
HETATM   24  C   UNK     0       4.046  -2.326 -34.001  0.00  0.00     0.111 A 
HETATM   25  C   UNK     0       4.388  -3.025 -31.339  0.00  0.00     0.054 A 
HETATM   26  C   UNK     0       5.067  -3.185 -33.646  0.00  0.00     0.100 A 
HETATM   27  C   UNK     0       5.230  -3.527 -32.320  0.00  0.00     0.058 A 
HETATM   28  C   UNK     0       4.668  -3.473 -29.984  0.00  0.00     0.294 C 
HETATM   29  O   UNK     0       2.199  -0.980 -33.398  0.00  0.00     0.000 OA
HETATM   30  O   UNK     0       3.964  -4.315 -29.474  0.00  0.00    -0.259 OA
HETATM   31  C   UNK     0       7.217  -3.430 -27.437  0.00  0.00     0.302 C 
HETATM   32  C   UNK     0       5.811  -3.491 -27.980  0.00  0.00     0.220 C 
HETATM   33  O   UNK     0       7.237  -4.077 -26.157  0.00  0.00    -0.348 OA
HETATM   34  C   UNK     0       4.947  -2.684 -27.068  0.00  0.00     0.198 C 
HETATM   35  C   UNK     0       6.325  -3.584 -25.153  0.00  0.00     0.181 C 
HETATM   36  C   UNK     0       4.877  -3.415 -25.734  0.00  0.00     0.195 C 
HETATM   37  C   UNK     0       6.271  -4.586 -23.990  0.00  0.00     0.212 C 
HETATM   38  O   UNK     0       3.661  -2.530 -27.653  0.00  0.00    -0.306 OA
HETATM   39  O   UNK     0       4.077  -2.668 -24.814  0.00  0.00    -0.307 OA
HETATM   40  O   UNK     0       5.731  -2.971 -29.291  0.00  0.00    -0.304 OA
HETATM   41  O   UNK     0       7.381  -4.495 -23.103  0.00  0.00    -0.328 OA
HETATM   42  C   UNK     0       3.607  -1.502 -28.558  0.00  0.00     0.294 C 
HETATM   43  O   UNK     0       4.558  -0.765 -28.662  0.00  0.00    -0.259 OA
HETATM   44  O   UNK     0       5.323  -0.839 -24.484  0.00  0.00    -0.259 OA
HETATM   45  C   UNK     0       7.384  -3.526 -22.148  0.00  0.00     0.179 C 
HETATM   46  O   UNK     0       6.898  -2.446 -22.396  0.00  0.00    -0.383 OA
HETATM   47  H   UNK     0       0.099  -1.236 -33.183  0.00  0.00     0.000 HD
HETATM   48  H   UNK     0       2.078  -0.734 -34.372  0.00  0.00     0.000 HD
ENDROOT
BRANCH   3  49
HETATM   49  O   UNK     0      10.846  -5.473 -19.428  0.00  0.00    -0.358 OA
HETATM   50  H   UNK     0      10.906  -6.400 -19.832  0.00  0.00     0.217 HD
ENDBRANCH   3  49
BRANCH   5  51
HETATM   51  O   UNK     0       9.622  -4.616 -17.127  0.00  0.00    -0.356 OA
HETATM   52  H   UNK     0       9.693  -5.574 -16.806  0.00  0.00     0.218 HD
ENDBRANCH   5  51
BRANCH   6  53
HETATM   53  O   UNK     0       7.280  -3.210 -17.264  0.00  0.00    -0.356 OA
HETATM   54  H   UNK     0       7.210  -3.833 -16.469  0.00  0.00     0.218 HD
ENDBRANCH   6  53
BRANCH   9  55
HETATM   55  O   UNK     0       3.737  -1.819 -18.492  0.00  0.00    -0.356 OA
HETATM   56  H   UNK     0       4.246  -1.178 -17.896  0.00  0.00     0.218 HD
ENDBRANCH   9  55
BRANCH   7  57
HETATM   57  O   UNK     0       1.719  -0.924 -20.085  0.00  0.00    -0.357 OA
HETATM   58  H   UNK     0       1.410  -1.342 -19.217  0.00  0.00     0.217 HD
ENDBRANCH   7  57
BRANCH   8  59
HETATM   59  C   UNK     0       1.819  -0.703 -22.784  0.00  0.00     0.023 A 
HETATM   60  C   UNK     0       1.812   0.677 -22.952  0.00  0.00     0.113 A 
HETATM   61  C   UNK     0       0.777   1.324 -23.604  0.00  0.00     0.133 A 
HETATM   62  C   UNK     0      -0.279   0.593 -24.110  0.00  0.00     0.102 A 
HETATM   63  C   UNK     0      -0.295  -0.780 -23.948  0.00  0.00     0.049 A 
HETATM   64  C   UNK     0       0.737  -1.434 -23.289  0.00  0.00    -0.018 A 
BRANCH  60  65
HETATM   65  O   UNK     0       2.844   1.411 -22.454  0.00  0.00    -0.357 OA
HETATM   66  H   UNK     0       2.992   1.463 -21.455  0.00  0.00     0.217 HD
ENDBRANCH  60  65
BRANCH  61  67
HETATM   67  O   UNK     0       0.799   2.675 -23.744  0.00  0.00    -0.356 OA
HETATM   68  H   UNK     0       0.700   3.271 -22.931  0.00  0.00     0.218 HD
ENDBRANCH  61  67
BRANCH  62  69
HETATM   69  O   UNK     0      -1.297   1.221 -24.756  0.00  0.00    -0.358 OA
HETATM   70  H   UNK     0      -1.306   2.230 -24.826  0.00  0.00     0.217 HD
ENDBRANCH  62  69
BRANCH  64  71
HETATM   71  C   UNK     0       0.598  -2.925 -23.158  0.00  0.00     0.203 C 
BRANCH  71  72
HETATM   72  O   UNK     0       1.390  -3.542 -24.164  0.00  0.00    -0.396 OA
HETATM   73  H   UNK     0       1.193  -4.492 -24.452  0.00  0.00     0.209 HD
ENDBRANCH  71  72
ENDBRANCH  64  71
ENDBRANCH   8  59
BRANCH  31  74
HETATM   74  O   UNK     0       8.108  -4.090 -28.324  0.00  0.00    -0.283 OA
BRANCH  74  75
HETATM   75  C   UNK     0       8.599  -5.296 -27.948  0.00  0.00     0.295 C 
HETATM   76  O   UNK     0       9.704  -5.365 -27.463  0.00  0.00    -0.259 OA
BRANCH  75  77
HETATM   77  C   UNK     0       7.800  -6.518 -28.116  0.00  0.00     0.045 A 
HETATM   78  C   UNK     0       7.150  -6.772 -29.314  0.00  0.00     0.057 A 
HETATM   79  C   UNK     0       6.394  -7.925 -29.460  0.00  0.00     0.102 A 
HETATM   80  C   UNK     0       6.284  -8.820 -28.407  0.00  0.00     0.132 A 
HETATM   81  C   UNK     0       6.934  -8.566 -27.210  0.00  0.00     0.102 A 
HETATM   82  C   UNK     0       7.693  -7.417 -27.066  0.00  0.00     0.057 A 
BRANCH  79  83
HETATM   83  O   UNK     0       5.756  -8.178 -30.635  0.00  0.00    -0.358 OA
HETATM   84  H   UNK     0       6.192  -7.925 -31.512  0.00  0.00     0.217 HD
ENDBRANCH  79  83
BRANCH  80  85
HETATM   85  O   UNK     0       5.536  -9.947 -28.548  0.00  0.00    -0.356 OA
HETATM   86  H   UNK     0       5.827 -10.808 -28.099  0.00  0.00     0.218 HD
ENDBRANCH  80  85
BRANCH  81  87
HETATM   87  O   UNK     0       6.825  -9.443 -26.178  0.00  0.00    -0.358 OA
HETATM   88  H   UNK     0       6.018 -10.051 -26.113  0.00  0.00     0.217 HD
ENDBRANCH  81  87
ENDBRANCH  75  77
ENDBRANCH  74  75
ENDBRANCH  31  74
BRANCH  19  89
HETATM   89  O   UNK     0      -0.853   0.242 -28.682  0.00  0.00    -0.358 OA
HETATM   90  H   UNK     0      -1.637  -0.318 -28.370  0.00  0.00     0.217 HD
ENDBRANCH  19  89
BRANCH  26  91
HETATM   91  O   UNK     0       5.898  -3.692 -34.596  0.00  0.00    -0.358 OA
HETATM   92  H   UNK     0       5.660  -3.607 -35.575  0.00  0.00     0.217 HD
ENDBRANCH  26  91
BRANCH  17  93
HETATM   93  O   UNK     0      -1.100  -0.308 -31.358  0.00  0.00    -0.357 OA
HETATM   94  H   UNK     0      -1.936  -0.077 -30.834  0.00  0.00     0.217 HD
ENDBRANCH  17  93
BRANCH  24  95
HETATM   95  O   UNK     0       3.870  -1.982 -35.306  0.00  0.00    -0.357 OA
HETATM   96  H   UNK     0       4.060  -2.656 -36.036  0.00  0.00     0.217 HD
ENDBRANCH  24  95
TORSDOF 21
