REMARK VINA RESULT:      -7.4     29.916     33.516
REMARK  21 active torsions:
REMARK  status: ('A' for Active; 'I' for Inactive)
REMARK    1  A    between atoms: C_3  and  O_78 
REMARK    2  A    between atoms: C_5  and  O_77 
REMARK    3  A    between atoms: C_6  and  O_76 
REMARK    4  A    between atoms: C_7  and  O_15 
REMARK    5  A    between atoms: C_8  and  C_17 
REMARK    6  A    between atoms: C_9  and  O_13 
REMARK    7  A    between atoms: C_16  and  O_24 
REMARK    8  A    between atoms: C_18  and  O_22 
REMARK    9  A    between atoms: C_19  and  C_72 
REMARK   10  A    between atoms: C_20  and  O_23 
REMARK   11  A    between atoms: C_28  and  O_32 
REMARK   12  A    between atoms: C_30  and  O_33 
REMARK   13  A    between atoms: C_37  and  O_42 
REMARK   14  A    between atoms: C_39  and  O_43 
REMARK   15  A    between atoms: C_46  and  O_67 
REMARK   16  A    between atoms: C_48  and  O_65 
REMARK   17  A    between atoms: C_49  and  C_52 
REMARK   18  A    between atoms: C_50  and  O_66 
REMARK   19  A    between atoms: C_52  and  O_60 
REMARK   20  A    between atoms: C_54  and  O_60 
REMARK   21  A    between atoms: C_72  and  O_73 
ROOT
HETATM    1  C   UNK     0     -27.218 -17.608 -20.257  0.00  0.00     0.058 A 
HETATM    2  C   UNK     0     -27.453 -16.566 -21.142  0.00  0.00     0.060 A 
HETATM    3  C   UNK     0     -26.729 -18.822 -20.705  0.00  0.00     0.102 A 
HETATM    4  C   UNK     0     -27.193 -16.742 -22.509  0.00  0.00     0.127 A 
HETATM    5  C   UNK     0     -26.469 -19.001 -22.050  0.00  0.00     0.135 A 
HETATM    6  C   UNK     0     -26.699 -17.967 -22.940  0.00  0.00     0.137 A 
HETATM    7  C   UNK     0     -27.776 -12.492 -24.974  0.00  0.00     0.114 A 
HETATM    8  C   UNK     0     -28.385 -11.762 -23.956  0.00  0.00     0.030 A 
HETATM    9  C   UNK     0     -27.444 -13.829 -24.816  0.00  0.00     0.134 A 
HETATM   10  C   UNK     0     -28.655 -12.425 -22.752  0.00  0.00     0.059 A 
HETATM   11  C   UNK     0     -27.715 -14.479 -23.627  0.00  0.00     0.116 A 
HETATM   12  C   UNK     0     -28.319 -13.760 -22.618  0.00  0.00     0.329 A 
HETATM   13  O   UNK     0     -27.392 -15.810 -23.507  0.00  0.00    -0.304 OA
HETATM   14  C   UNK     0     -29.284 -11.826 -21.569  0.00  0.00     0.295 C 
HETATM   15  C   UNK     0     -31.140  -4.598 -18.293  0.00  0.00     0.026 A 
HETATM   16  C   UNK     0     -31.044  -5.953 -17.985  0.00  0.00     0.006 A 
HETATM   17  C   UNK     0     -31.041  -4.134 -19.592  0.00  0.00     0.111 A 
HETATM   18  C   UNK     0     -30.837  -6.852 -19.046  0.00  0.00     0.054 A 
HETATM   19  C   UNK     0     -30.837  -5.025 -20.625  0.00  0.00     0.100 A 
HETATM   20  C   UNK     0     -30.737  -6.375 -20.346  0.00  0.00     0.058 A 
HETATM   21  O   UNK     0     -31.345  -3.705 -17.287  0.00  0.00     0.000 OA
HETATM   22  C   UNK     0     -31.938  -5.317 -15.773  0.00  0.00     0.026 A 
HETATM   23  C   UNK     0     -31.211  -6.264 -16.493  0.00  0.00     0.006 A 
HETATM   24  C   UNK     0     -32.147  -5.437 -14.410  0.00  0.00     0.111 A 
HETATM   25  C   UNK     0     -30.697  -7.360 -15.785  0.00  0.00     0.054 A 
HETATM   26  C   UNK     0     -31.629  -6.519 -13.728  0.00  0.00     0.100 A 
HETATM   27  C   UNK     0     -30.909  -7.471 -14.419  0.00  0.00     0.058 A 
HETATM   28  C   UNK     0     -29.915  -8.428 -16.386  0.00  0.00     0.294 C 
HETATM   29  O   UNK     0     -32.451  -4.241 -16.427  0.00  0.00     0.000 OA
HETATM   30  O   UNK     0     -28.758  -8.232 -16.680  0.00  0.00    -0.259 OA
HETATM   31  C   UNK     0     -29.914 -11.987 -16.952  0.00  0.00     0.302 C 
HETATM   32  C   UNK     0     -29.570 -10.546 -17.235  0.00  0.00     0.220 C 
HETATM   33  O   UNK     0     -28.898 -12.818 -17.530  0.00  0.00    -0.348 OA
HETATM   34  C   UNK     0     -29.639 -10.355 -18.713  0.00  0.00     0.198 C 
HETATM   35  C   UNK     0     -28.645 -12.664 -18.943  0.00  0.00     0.181 C 
HETATM   36  C   UNK     0     -28.499 -11.152 -19.334  0.00  0.00     0.195 C 
HETATM   37  C   UNK     0     -27.338 -13.390 -19.298  0.00  0.00     0.212 C 
HETATM   38  O   UNK     0     -29.538  -8.969 -19.013  0.00  0.00    -0.306 OA
HETATM   39  O   UNK     0     -28.534 -11.021 -20.757  0.00  0.00    -0.307 OA
HETATM   40  O   UNK     0     -30.467  -9.658 -16.600  0.00  0.00    -0.304 OA
HETATM   41  O   UNK     0     -27.480 -14.800 -19.422  0.00  0.00    -0.328 OA
HETATM   42  C   UNK     0     -30.735  -8.312 -18.908  0.00  0.00     0.294 C 
HETATM   43  O   UNK     0     -31.741  -8.957 -18.728  0.00  0.00    -0.259 OA
HETATM   44  O   UNK     0     -30.429 -12.088 -21.281  0.00  0.00    -0.259 OA
HETATM   45  C   UNK     0     -27.973 -15.314 -20.582  0.00  0.00     0.179 C 
HETATM   46  O   UNK     0     -28.829 -14.706 -21.184  0.00  0.00    -0.383 OA
HETATM   47  H   UNK     0     -31.423  -2.718 -17.496  0.00  0.00     0.000 HD
HETATM   48  H   UNK     0     -32.976  -3.542 -15.916  0.00  0.00     0.000 HD
ENDROOT
BRANCH   3  49
HETATM   49  O   UNK     0     -26.505 -19.836 -19.826  0.00  0.00    -0.358 OA
HETATM   50  H   UNK     0     -26.301 -20.766 -20.169  0.00  0.00     0.217 HD
ENDBRANCH   3  49
BRANCH   5  51
HETATM   51  O   UNK     0     -25.989 -20.193 -22.497  0.00  0.00    -0.356 OA
HETATM   52  H   UNK     0     -25.569 -20.256 -23.416  0.00  0.00     0.218 HD
ENDBRANCH   5  51
BRANCH   6  53
HETATM   53  O   UNK     0     -26.442 -18.154 -24.263  0.00  0.00    -0.356 OA
HETATM   54  H   UNK     0     -26.812 -17.507 -24.948  0.00  0.00     0.218 HD
ENDBRANCH   6  53
BRANCH   9  55
HETATM   55  O   UNK     0     -26.861 -14.504 -25.843  0.00  0.00    -0.356 OA
HETATM   56  H   UNK     0     -25.889 -14.780 -25.780  0.00  0.00     0.218 HD
ENDBRANCH   9  55
BRANCH   7  57
HETATM   57  O   UNK     0     -27.512 -11.879 -26.159  0.00  0.00    -0.357 OA
HETATM   58  H   UNK     0     -26.561 -11.623 -26.395  0.00  0.00     0.217 HD
ENDBRANCH   7  57
BRANCH   8  59
HETATM   59  C   UNK     0     -28.715 -10.318 -24.300  0.00  0.00     0.023 A 
HETATM   60  C   UNK     0     -27.657  -9.424 -24.168  0.00  0.00     0.113 A 
HETATM   61  C   UNK     0     -27.808  -8.076 -24.438  0.00  0.00     0.133 A 
HETATM   62  C   UNK     0     -29.032  -7.592 -24.854  0.00  0.00     0.102 A 
HETATM   63  C   UNK     0     -30.099  -8.461 -24.986  0.00  0.00     0.049 A 
HETATM   64  C   UNK     0     -29.956  -9.814 -24.710  0.00  0.00    -0.018 A 
BRANCH  60  65
HETATM   65  O   UNK     0     -26.447  -9.887 -23.754  0.00  0.00    -0.357 OA
HETATM   66  H   UNK     0     -25.819 -10.325 -24.415  0.00  0.00     0.217 HD
ENDBRANCH  60  65
BRANCH  61  67
HETATM   67  O   UNK     0     -26.755  -7.229 -24.291  0.00  0.00    -0.356 OA
HETATM   68  H   UNK     0     -26.118  -7.073 -25.062  0.00  0.00     0.218 HD
ENDBRANCH  61  67
BRANCH  62  69
HETATM   69  O   UNK     0     -29.187  -6.268 -25.126  0.00  0.00    -0.358 OA
HETATM   70  H   UNK     0     -30.113  -5.883 -25.258  0.00  0.00     0.217 HD
ENDBRANCH  62  69
BRANCH  64  71
HETATM   71  C   UNK     0     -31.190 -10.657 -24.870  0.00  0.00     0.203 C 
BRANCH  71  72
HETATM   72  O   UNK     0     -31.872 -10.699 -23.624  0.00  0.00    -0.396 OA
HETATM   73  H   UNK     0     -32.419 -11.513 -23.373  0.00  0.00     0.209 HD
ENDBRANCH  71  72
ENDBRANCH  64  71
ENDBRANCH   8  59
BRANCH  31  74
HETATM   74  O   UNK     0     -29.974 -12.205 -15.550  0.00  0.00    -0.283 OA
BRANCH  74  75
HETATM   75  C   UNK     0     -28.859 -11.950 -14.821  0.00  0.00     0.295 C 
HETATM   76  O   UNK     0     -27.866 -12.615 -14.999  0.00  0.00    -0.259 OA
BRANCH  75  77
HETATM   77  C   UNK     0     -28.845 -10.871 -13.824  0.00  0.00     0.045 A 
HETATM   78  C   UNK     0     -27.749 -10.029 -13.716  0.00  0.00     0.057 A 
HETATM   79  C   UNK     0     -27.744  -9.019 -12.767  0.00  0.00     0.102 A 
HETATM   80  C   UNK     0     -28.832  -8.853 -11.924  0.00  0.00     0.132 A 
HETATM   81  C   UNK     0     -29.928  -9.694 -12.033  0.00  0.00     0.102 A 
HETATM   82  C   UNK     0     -29.935 -10.701 -12.984  0.00  0.00     0.057 A 
BRANCH  79  83
HETATM   83  O   UNK     0     -26.670  -8.189 -12.659  0.00  0.00    -0.358 OA
HETATM   84  H   UNK     0     -26.770  -7.290 -12.207  0.00  0.00     0.217 HD
ENDBRANCH  79  83
BRANCH  80  85
HETATM   85  O   UNK     0     -28.824  -7.867 -10.987  0.00  0.00    -0.356 OA
HETATM   86  H   UNK     0     -29.508  -7.121 -11.031  0.00  0.00     0.218 HD
ENDBRANCH  80  85
BRANCH  81  87
HETATM   87  O   UNK     0     -30.993  -9.533 -11.205  0.00  0.00    -0.358 OA
HETATM   88  H   UNK     0     -31.383 -10.331 -10.720  0.00  0.00     0.217 HD
ENDBRANCH  81  87
ENDBRANCH  75  77
ENDBRANCH  74  75
ENDBRANCH  31  74
BRANCH  19  89
HETATM   89  O   UNK     0     -30.741  -4.575 -21.904  0.00  0.00    -0.358 OA
HETATM   90  H   UNK     0     -31.579  -4.420 -22.451  0.00  0.00     0.217 HD
ENDBRANCH  19  89
BRANCH  26  91
HETATM   91  O   UNK     0     -31.823  -6.642 -12.387  0.00  0.00    -0.358 OA
HETATM   92  H   UNK     0     -31.646  -5.855 -11.776  0.00  0.00     0.217 HD
ENDBRANCH  26  91
BRANCH  17  93
HETATM   93  O   UNK     0     -31.149  -2.802 -19.852  0.00  0.00    -0.357 OA
HETATM   94  H   UNK     0     -31.901  -2.265 -19.438  0.00  0.00     0.217 HD
ENDBRANCH  17  93
BRANCH  24  95
HETATM   95  O   UNK     0     -32.856  -4.487 -13.741  0.00  0.00    -0.357 OA
HETATM   96  H   UNK     0     -33.360  -3.776 -14.255  0.00  0.00     0.217 HD
ENDBRANCH  24  95
TORSDOF 21
