REMARK VINA RESULT:      -7.1      4.344      9.506
REMARK  21 active torsions:
REMARK  status: ('A' for Active; 'I' for Inactive)
REMARK    1  A    between atoms: C_3  and  O_78 
REMARK    2  A    between atoms: C_5  and  O_77 
REMARK    3  A    between atoms: C_6  and  O_76 
REMARK    4  A    between atoms: C_7  and  O_15 
REMARK    5  A    between atoms: C_8  and  C_17 
REMARK    6  A    between atoms: C_9  and  O_13 
REMARK    7  A    between atoms: C_16  and  O_24 
REMARK    8  A    between atoms: C_18  and  O_22 
REMARK    9  A    between atoms: C_19  and  C_72 
REMARK   10  A    between atoms: C_20  and  O_23 
REMARK   11  A    between atoms: C_28  and  O_32 
REMARK   12  A    between atoms: C_30  and  O_33 
REMARK   13  A    between atoms: C_37  and  O_42 
REMARK   14  A    between atoms: C_39  and  O_43 
REMARK   15  A    between atoms: C_46  and  O_67 
REMARK   16  A    between atoms: C_48  and  O_65 
REMARK   17  A    between atoms: C_49  and  C_52 
REMARK   18  A    between atoms: C_50  and  O_66 
REMARK   19  A    between atoms: C_52  and  O_60 
REMARK   20  A    between atoms: C_54  and  O_60 
REMARK   21  A    between atoms: C_72  and  O_73 
ROOT
HETATM    1  C   UNK     0       6.634  -9.822 -25.516  0.00  0.00     0.058 A 
HETATM    2  C   UNK     0       6.440  -8.967 -26.591  0.00  0.00     0.060 A 
HETATM    3  C   UNK     0       7.148 -11.093 -25.705  0.00  0.00     0.102 A 
HETATM    4  C   UNK     0       6.768  -9.391 -27.886  0.00  0.00     0.127 A 
HETATM    5  C   UNK     0       7.475 -11.516 -26.979  0.00  0.00     0.135 A 
HETATM    6  C   UNK     0       7.286 -10.669 -28.057  0.00  0.00     0.137 A 
HETATM    7  C   UNK     0       6.298  -5.681 -31.126  0.00  0.00     0.114 A 
HETATM    8  C   UNK     0       5.637  -4.782 -30.293  0.00  0.00     0.030 A 
HETATM    9  C   UNK     0       6.625  -6.961 -30.706  0.00  0.00     0.134 A 
HETATM   10  C   UNK     0       5.309  -5.212 -29.001  0.00  0.00     0.059 A 
HETATM   11  C   UNK     0       6.297  -7.382 -29.431  0.00  0.00     0.116 A 
HETATM   12  C   UNK     0       5.641  -6.495 -28.604  0.00  0.00     0.329 A 
HETATM   13  O   UNK     0       6.617  -8.664 -29.049  0.00  0.00    -0.304 OA
HETATM   14  C   UNK     0       4.621  -4.411 -27.982  0.00  0.00     0.295 C 
HETATM   15  C   UNK     0       2.586   3.278 -26.206  0.00  0.00     0.026 A 
HETATM   16  C   UNK     0       2.669   2.006 -25.645  0.00  0.00     0.006 A 
HETATM   17  C   UNK     0       2.747   3.494 -27.562  0.00  0.00     0.111 A 
HETATM   18  C   UNK     0       2.931   0.927 -26.509  0.00  0.00     0.054 A 
HETATM   19  C   UNK     0       3.005   2.428 -28.399  0.00  0.00     0.100 A 
HETATM   20  C   UNK     0       3.095   1.155 -27.869  0.00  0.00     0.058 A 
HETATM   21  O   UNK     0       2.328   4.340 -25.395  0.00  0.00     0.000 OA
HETATM   22  C   UNK     0       1.665   3.032 -23.637  0.00  0.00     0.026 A 
HETATM   23  C   UNK     0       2.429   1.976 -24.132  0.00  0.00     0.006 A 
HETATM   24  C   UNK     0       1.389   3.165 -22.287  0.00  0.00     0.111 A 
HETATM   25  C   UNK     0       2.910   1.037 -23.208  0.00  0.00     0.054 A 
HETATM   26  C   UNK     0       1.874   2.235 -21.391  0.00  0.00     0.100 A 
HETATM   27  C   UNK     0       2.630   1.179 -21.857  0.00  0.00     0.058 A 
HETATM   28  C   UNK     0       3.723  -0.116 -23.561  0.00  0.00     0.294 C 
HETATM   29  O   UNK     0       1.182   3.961 -24.504  0.00  0.00     0.000 OA
HETATM   30  O   UNK     0       4.893   0.037 -23.830  0.00  0.00    -0.259 OA
HETATM   31  C   UNK     0       3.762  -3.717 -23.452  0.00  0.00     0.302 C 
HETATM   32  C   UNK     0       4.116  -2.350 -23.981  0.00  0.00     0.220 C 
HETATM   33  O   UNK     0       4.807  -4.629 -23.815  0.00  0.00    -0.348 OA
HETATM   34  C   UNK     0       4.121  -2.438 -25.471  0.00  0.00     0.198 C 
HETATM   35  C   UNK     0       5.130  -4.738 -25.217  0.00  0.00     0.181 C 
HETATM   36  C   UNK     0       5.292  -3.323 -25.876  0.00  0.00     0.195 C 
HETATM   37  C   UNK     0       6.455  -5.502 -25.368  0.00  0.00     0.212 C 
HETATM   38  O   UNK     0       4.232  -1.132 -26.019  0.00  0.00    -0.306 OA
HETATM   39  O   UNK     0       5.327  -3.460 -27.299  0.00  0.00    -0.307 OA
HETATM   40  O   UNK     0       3.186  -1.370 -23.568  0.00  0.00    -0.304 OA
HETATM   41  O   UNK     0       6.323  -6.912 -25.233  0.00  0.00    -0.328 OA
HETATM   42  C   UNK     0       3.030  -0.480 -26.096  0.00  0.00     0.294 C 
HETATM   43  O   UNK     0       2.018  -1.093 -25.848  0.00  0.00    -0.259 OA
HETATM   44  O   UNK     0       3.463  -4.628 -27.706  0.00  0.00    -0.259 OA
HETATM   45  C   UNK     0       5.890  -7.638 -26.299  0.00  0.00     0.179 C 
HETATM   46  O   UNK     0       5.063  -7.164 -27.045  0.00  0.00    -0.383 OA
HETATM   47  H   UNK     0       2.258   5.270 -25.787  0.00  0.00     0.000 HD
HETATM   48  H   UNK     0       0.631   4.737 -24.159  0.00  0.00     0.000 HD
ENDROOT
BRANCH   3  49
HETATM   49  O   UNK     0       7.330 -11.923 -24.644  0.00  0.00    -0.358 OA
HETATM   50  H   UNK     0       8.242 -11.999 -24.210  0.00  0.00     0.217 HD
ENDBRANCH   3  49
BRANCH   5  51
HETATM   51  O   UNK     0       7.980 -12.765 -27.173  0.00  0.00    -0.356 OA
HETATM   52  H   UNK     0       7.467 -13.574 -26.846  0.00  0.00     0.218 HD
ENDBRANCH   5  51
BRANCH   6  53
HETATM   53  O   UNK     0       7.609 -11.096 -29.308  0.00  0.00    -0.356 OA
HETATM   54  H   UNK     0       7.017 -11.765 -29.783  0.00  0.00     0.218 HD
ENDBRANCH   6  53
BRANCH   9  55
HETATM   55  O   UNK     0       7.260  -7.809 -31.559  0.00  0.00    -0.356 OA
HETATM   56  H   UNK     0       6.888  -8.736 -31.723  0.00  0.00     0.218 HD
ENDBRANCH   9  55
BRANCH   7  57
HETATM   57  O   UNK     0       6.619  -5.297 -32.390  0.00  0.00    -0.357 OA
HETATM   58  H   UNK     0       5.887  -5.135 -33.070  0.00  0.00     0.217 HD
ENDBRANCH   7  57
BRANCH   8  59
HETATM   59  C   UNK     0       5.321  -3.431 -30.915  0.00  0.00     0.023 A 
HETATM   60  C   UNK     0       4.064  -3.331 -31.503  0.00  0.00     0.113 A 
HETATM   61  C   UNK     0       3.639  -2.166 -32.115  0.00  0.00     0.133 A 
HETATM   62  C   UNK     0       4.470  -1.065 -32.148  0.00  0.00     0.102 A 
HETATM   63  C   UNK     0       5.727  -1.144 -31.577  0.00  0.00     0.049 A 
HETATM   64  C   UNK     0       6.162  -2.312 -30.966  0.00  0.00    -0.018 A 
BRANCH  60  65
HETATM   65  O   UNK     0       3.236  -4.411 -31.482  0.00  0.00    -0.357 OA
HETATM   66  H   UNK     0       2.237  -4.285 -31.575  0.00  0.00     0.217 HD
ENDBRANCH  60  65
BRANCH  61  67
HETATM   67  O   UNK     0       2.407  -2.107 -32.686  0.00  0.00    -0.356 OA
HETATM   68  H   UNK     0       2.151  -2.767 -33.409  0.00  0.00     0.218 HD
ENDBRANCH  61  67
BRANCH  62  69
HETATM   69  O   UNK     0       4.057   0.085 -32.744  0.00  0.00    -0.358 OA
HETATM   70  H   UNK     0       4.675   0.885 -32.783  0.00  0.00     0.217 HD
ENDBRANCH  62  69
BRANCH  64  71
HETATM   71  C   UNK     0       7.553  -2.283 -30.398  0.00  0.00     0.203 C 
BRANCH  71  72
HETATM   72  O   UNK     0       7.461  -2.154 -28.985  0.00  0.00    -0.396 OA
HETATM   73  H   UNK     0       6.574  -2.302 -28.520  0.00  0.00     0.209 HD
ENDBRANCH  71  72
ENDBRANCH  64  71
ENDBRANCH   8  59
BRANCH  31  74
HETATM   74  O   UNK     0       3.633  -3.671 -22.039  0.00  0.00    -0.283 OA
BRANCH  74  75
HETATM   75  C   UNK     0       4.670  -3.168 -21.324  0.00  0.00     0.295 C 
HETATM   76  O   UNK     0       5.787  -3.585 -21.522  0.00  0.00    -0.259 OA
BRANCH  75  77
HETATM   77  C   UNK     0       4.451  -2.120 -20.318  0.00  0.00     0.045 A 
HETATM   78  C   UNK     0       5.527  -1.505 -19.699  0.00  0.00     0.057 A 
HETATM   79  C   UNK     0       5.308  -0.522 -18.746  0.00  0.00     0.102 A 
HETATM   80  C   UNK     0       4.013  -0.157 -18.411  0.00  0.00     0.132 A 
HETATM   81  C   UNK     0       2.937  -0.771 -19.031  0.00  0.00     0.102 A 
HETATM   82  C   UNK     0       3.156  -1.751 -19.986  0.00  0.00     0.057 A 
BRANCH  79  83
HETATM   83  O   UNK     0       6.363   0.086 -18.137  0.00  0.00    -0.358 OA
HETATM   84  H   UNK     0       7.234  -0.415 -18.015  0.00  0.00     0.217 HD
ENDBRANCH  79  83
BRANCH  80  85
HETATM   85  O   UNK     0       3.798   0.803 -17.471  0.00  0.00    -0.356 OA
HETATM   86  H   UNK     0       4.533   1.461 -17.242  0.00  0.00     0.218 HD
ENDBRANCH  80  85
BRANCH  81  87
HETATM   87  O   UNK     0       1.668  -0.415 -18.701  0.00  0.00    -0.358 OA
HETATM   88  H   UNK     0       1.508   0.338 -18.045  0.00  0.00     0.217 HD
ENDBRANCH  81  87
ENDBRANCH  75  77
ENDBRANCH  74  75
ENDBRANCH  31  74
BRANCH  19  89
HETATM   89  O   UNK     0       3.163   2.633 -29.734  0.00  0.00    -0.358 OA
HETATM   90  H   UNK     0       2.945   1.893 -30.390  0.00  0.00     0.217 HD
ENDBRANCH  19  89
BRANCH  26  91
HETATM   91  O   UNK     0       1.614   2.362 -20.062  0.00  0.00    -0.358 OA
HETATM   92  H   UNK     0       2.376   2.475 -19.406  0.00  0.00     0.217 HD
ENDBRANCH  26  91
BRANCH  17  93
HETATM   93  O   UNK     0       2.649   4.752 -28.070  0.00  0.00    -0.357 OA
HETATM   94  H   UNK     0       2.150   5.468 -27.557  0.00  0.00     0.217 HD
ENDBRANCH  17  93
BRANCH  24  95
HETATM   95  O   UNK     0       0.645   4.215 -21.842  0.00  0.00    -0.357 OA
HETATM   96  H   UNK     0      -0.086   4.062 -21.160  0.00  0.00     0.217 HD
ENDBRANCH  24  95
TORSDOF 21
