REMARK VINA RESULT:      -7.4     30.133     33.841
REMARK  21 active torsions:
REMARK  status: ('A' for Active; 'I' for Inactive)
REMARK    1  A    between atoms: C_3  and  O_78 
REMARK    2  A    between atoms: C_5  and  O_77 
REMARK    3  A    between atoms: C_6  and  O_76 
REMARK    4  A    between atoms: C_7  and  O_15 
REMARK    5  A    between atoms: C_8  and  C_17 
REMARK    6  A    between atoms: C_9  and  O_13 
REMARK    7  A    between atoms: C_16  and  O_24 
REMARK    8  A    between atoms: C_18  and  O_22 
REMARK    9  A    between atoms: C_19  and  C_72 
REMARK   10  A    between atoms: C_20  and  O_23 
REMARK   11  A    between atoms: C_28  and  O_32 
REMARK   12  A    between atoms: C_30  and  O_33 
REMARK   13  A    between atoms: C_37  and  O_42 
REMARK   14  A    between atoms: C_39  and  O_43 
REMARK   15  A    between atoms: C_46  and  O_67 
REMARK   16  A    between atoms: C_48  and  O_65 
REMARK   17  A    between atoms: C_49  and  C_52 
REMARK   18  A    between atoms: C_50  and  O_66 
REMARK   19  A    between atoms: C_52  and  O_60 
REMARK   20  A    between atoms: C_54  and  O_60 
REMARK   21  A    between atoms: C_72  and  O_73 
ROOT
HETATM    1  C   UNK     0     -28.761 -19.101 -18.208  0.00  0.00     0.058 A 
HETATM    2  C   UNK     0     -28.657 -18.437 -19.422  0.00  0.00     0.060 A 
HETATM    3  C   UNK     0     -28.519 -20.460 -18.122  0.00  0.00     0.102 A 
HETATM    4  C   UNK     0     -28.301 -19.148 -20.576  0.00  0.00     0.127 A 
HETATM    5  C   UNK     0     -28.166 -21.166 -19.256  0.00  0.00     0.135 A 
HETATM    6  C   UNK     0     -28.058 -20.512 -20.471  0.00  0.00     0.137 A 
HETATM    7  C   UNK     0     -27.631 -16.078 -24.399  0.00  0.00     0.114 A 
HETATM    8  C   UNK     0     -28.161 -14.929 -23.817  0.00  0.00     0.030 A 
HETATM    9  C   UNK     0     -27.633 -17.298 -23.740  0.00  0.00     0.134 A 
HETATM   10  C   UNK     0     -28.701 -15.042 -22.530  0.00  0.00     0.059 A 
HETATM   11  C   UNK     0     -28.170 -17.404 -22.471  0.00  0.00     0.116 A 
HETATM   12  C   UNK     0     -28.697 -16.269 -21.892  0.00  0.00     0.329 A 
HETATM   13  O   UNK     0     -28.175 -18.632 -21.850  0.00  0.00    -0.304 OA
HETATM   14  C   UNK     0     -29.297 -13.948 -21.755  0.00  0.00     0.295 C 
HETATM   15  C   UNK     0     -29.784  -5.816 -21.517  0.00  0.00     0.026 A 
HETATM   16  C   UNK     0     -30.035  -6.955 -20.755  0.00  0.00     0.006 A 
HETATM   17  C   UNK     0     -29.445  -5.889 -22.855  0.00  0.00     0.111 A 
HETATM   18  C   UNK     0     -29.928  -8.204 -21.393  0.00  0.00     0.054 A 
HETATM   19  C   UNK     0     -29.343  -7.120 -23.469  0.00  0.00     0.100 A 
HETATM   20  C   UNK     0     -29.584  -8.266 -22.736  0.00  0.00     0.058 A 
HETATM   21  O   UNK     0     -29.885  -4.593 -20.928  0.00  0.00     0.000 OA
HETATM   22  C   UNK     0     -30.988  -5.400 -19.091  0.00  0.00     0.026 A 
HETATM   23  C   UNK     0     -30.425  -6.658 -19.303  0.00  0.00     0.006 A 
HETATM   24  C   UNK     0     -31.361  -4.969 -17.830  0.00  0.00     0.111 A 
HETATM   25  C   UNK     0     -30.253  -7.487 -18.185  0.00  0.00     0.054 A 
HETATM   26  C   UNK     0     -31.181  -5.796 -16.739  0.00  0.00     0.100 A 
HETATM   27  C   UNK     0     -30.629  -7.047 -16.924  0.00  0.00     0.058 A 
HETATM   28  C   UNK     0     -29.678  -8.821 -18.236  0.00  0.00     0.294 C 
HETATM   29  O   UNK     0     -31.169  -4.570 -20.152  0.00  0.00     0.000 OA
HETATM   30  O   UNK     0     -28.483  -8.954 -18.365  0.00  0.00    -0.259 OA
HETATM   31  C   UNK     0     -30.433 -12.278 -17.551  0.00  0.00     0.302 C 
HETATM   32  C   UNK     0     -29.740 -11.128 -18.239  0.00  0.00     0.220 C 
HETATM   33  O   UNK     0     -29.579 -13.428 -17.620  0.00  0.00    -0.348 OA
HETATM   34  C   UNK     0     -29.606 -11.488 -19.681  0.00  0.00     0.198 C 
HETATM   35  C   UNK     0     -29.149 -13.854 -18.930  0.00  0.00     0.181 C 
HETATM   36  C   UNK     0     -28.620 -12.644 -19.777  0.00  0.00     0.195 C 
HETATM   37  C   UNK     0     -28.013 -14.877 -18.775  0.00  0.00     0.212 C 
HETATM   38  O   UNK     0     -29.159 -10.352 -20.409  0.00  0.00    -0.306 OA
HETATM   39  O   UNK     0     -28.474 -13.044 -21.142  0.00  0.00    -0.307 OA
HETATM   40  O   UNK     0     -30.472  -9.925 -18.117  0.00  0.00    -0.304 OA
HETATM   41  O   UNK     0     -28.460 -16.185 -18.437  0.00  0.00    -0.328 OA
HETATM   42  C   UNK     0     -30.179  -9.503 -20.752  0.00  0.00     0.294 C 
HETATM   43  O   UNK     0     -31.319  -9.849 -20.549  0.00  0.00    -0.259 OA
HETATM   44  O   UNK     0     -30.496 -13.879 -21.607  0.00  0.00    -0.259 OA
HETATM   45  C   UNK     0     -28.933 -16.996 -19.423  0.00  0.00     0.179 C 
HETATM   46  O   UNK     0     -29.558 -16.514 -20.340  0.00  0.00    -0.383 OA
HETATM   47  H   UNK     0     -29.713  -3.756 -21.469  0.00  0.00     0.000 HD
HETATM   48  H   UNK     0     -31.570  -3.651 -20.013  0.00  0.00     0.000 HD
ENDROOT
BRANCH   3  49
HETATM   49  O   UNK     0     -28.628 -21.101 -16.927  0.00  0.00    -0.358 OA
HETATM   50  H   UNK     0     -28.184 -20.714 -16.103  0.00  0.00     0.217 HD
ENDBRANCH   3  49
BRANCH   5  51
HETATM   51  O   UNK     0     -27.927 -22.504 -19.178  0.00  0.00    -0.356 OA
HETATM   52  H   UNK     0     -27.007 -22.839 -18.923  0.00  0.00     0.218 HD
ENDBRANCH   5  51
BRANCH   6  53
HETATM   53  O   UNK     0     -27.713 -21.216 -21.582  0.00  0.00    -0.356 OA
HETATM   54  H   UNK     0     -27.402 -22.176 -21.497  0.00  0.00     0.218 HD
ENDBRANCH   6  53
BRANCH   9  55
HETATM   55  O   UNK     0     -27.115 -18.396 -24.353  0.00  0.00    -0.356 OA
HETATM   56  H   UNK     0     -26.588 -19.074 -23.817  0.00  0.00     0.218 HD
ENDBRANCH   9  55
BRANCH   7  57
HETATM   57  O   UNK     0     -27.110 -16.003 -25.653  0.00  0.00    -0.357 OA
HETATM   58  H   UNK     0     -27.720 -15.845 -26.445  0.00  0.00     0.217 HD
ENDBRANCH   7  57
BRANCH   8  59
HETATM   59  C   UNK     0     -28.113 -13.681 -24.684  0.00  0.00     0.023 A 
HETATM   60  C   UNK     0     -27.046 -12.825 -24.427  0.00  0.00     0.113 A 
HETATM   61  C   UNK     0     -26.875 -11.647 -25.131  0.00  0.00     0.133 A 
HETATM   62  C   UNK     0     -27.775 -11.300 -26.118  0.00  0.00     0.102 A 
HETATM   63  C   UNK     0     -28.846 -12.132 -26.385  0.00  0.00     0.049 A 
HETATM   64  C   UNK     0     -29.027 -13.313 -25.679  0.00  0.00    -0.018 A 
BRANCH  60  65
HETATM   65  O   UNK     0     -26.155 -13.153 -23.453  0.00  0.00    -0.357 OA
HETATM   66  H   UNK     0     -26.329 -13.949 -22.854  0.00  0.00     0.217 HD
ENDBRANCH  60  65
BRANCH  61  67
HETATM   67  O   UNK     0     -25.826 -10.831 -24.848  0.00  0.00    -0.356 OA
HETATM   68  H   UNK     0     -25.545 -10.118 -25.510  0.00  0.00     0.218 HD
ENDBRANCH  61  67
BRANCH  62  69
HETATM   69  O   UNK     0     -27.611 -10.145 -26.817  0.00  0.00    -0.358 OA
HETATM   70  H   UNK     0     -26.681  -9.813 -27.035  0.00  0.00     0.217 HD
ENDBRANCH  62  69
BRANCH  64  71
HETATM   71  C   UNK     0     -30.238 -14.125 -26.045  0.00  0.00     0.203 C 
BRANCH  71  72
HETATM   72  O   UNK     0     -29.843 -15.136 -26.962  0.00  0.00    -0.396 OA
HETATM   73  H   UNK     0     -29.944 -14.985 -27.957  0.00  0.00     0.209 HD
ENDBRANCH  71  72
ENDBRANCH  64  71
ENDBRANCH   8  59
BRANCH  31  74
HETATM   74  O   UNK     0     -30.689 -11.948 -16.194  0.00  0.00    -0.283 OA
BRANCH  74  75
HETATM   75  C   UNK     0     -29.756 -12.291 -15.272  0.00  0.00     0.295 C 
HETATM   76  O   UNK     0     -29.583 -13.457 -15.004  0.00  0.00    -0.259 OA
BRANCH  75  77
HETATM   77  C   UNK     0     -28.949 -11.261 -14.602  0.00  0.00     0.045 A 
HETATM   78  C   UNK     0     -27.798 -11.610 -13.913  0.00  0.00     0.057 A 
HETATM   79  C   UNK     0     -27.048 -10.631 -13.279  0.00  0.00     0.102 A 
HETATM   80  C   UNK     0     -27.452  -9.306 -13.331  0.00  0.00     0.132 A 
HETATM   81  C   UNK     0     -28.602  -8.958 -14.020  0.00  0.00     0.102 A 
HETATM   82  C   UNK     0     -29.349  -9.935 -14.657  0.00  0.00     0.057 A 
BRANCH  79  83
HETATM   83  O   UNK     0     -25.916 -10.969 -12.603  0.00  0.00    -0.358 OA
HETATM   84  H   UNK     0     -25.063 -10.446 -12.751  0.00  0.00     0.217 HD
ENDBRANCH  79  83
BRANCH  80  85
HETATM   85  O   UNK     0     -26.720  -8.347 -12.702  0.00  0.00    -0.356 OA
HETATM   86  H   UNK     0     -25.726  -8.271 -12.879  0.00  0.00     0.218 HD
ENDBRANCH  80  85
BRANCH  81  87
HETATM   87  O   UNK     0     -28.999  -7.659 -14.069  0.00  0.00    -0.358 OA
HETATM   88  H   UNK     0     -28.353  -6.923 -13.817  0.00  0.00     0.217 HD
ENDBRANCH  81  87
ENDBRANCH  75  77
ENDBRANCH  74  75
ENDBRANCH  31  74
BRANCH  19  89
HETATM   89  O   UNK     0     -29.012  -7.199 -24.786  0.00  0.00    -0.358 OA
HETATM   90  H   UNK     0     -28.136  -7.625 -25.064  0.00  0.00     0.217 HD
ENDBRANCH  19  89
BRANCH  26  91
HETATM   91  O   UNK     0     -31.538  -5.378 -15.495  0.00  0.00    -0.358 OA
HETATM   92  H   UNK     0     -31.142  -5.824 -14.679  0.00  0.00     0.217 HD
ENDBRANCH  26  91
BRANCH  17  93
HETATM   93  O   UNK     0     -29.218  -4.752 -23.566  0.00  0.00    -0.357 OA
HETATM   94  H   UNK     0     -29.223  -4.778 -24.578  0.00  0.00     0.217 HD
ENDBRANCH  17  93
BRANCH  24  95
HETATM   95  O   UNK     0     -31.901  -3.731 -17.662  0.00  0.00    -0.357 OA
HETATM   96  H   UNK     0     -31.783  -3.027 -18.380  0.00  0.00     0.217 HD
ENDBRANCH  24  95
TORSDOF 21
