REMARK VINA RESULT:      -7.6     19.618     23.846
REMARK  21 active torsions:
REMARK  status: ('A' for Active; 'I' for Inactive)
REMARK    1  A    between atoms: C_3  and  O_78 
REMARK    2  A    between atoms: C_5  and  O_77 
REMARK    3  A    between atoms: C_6  and  O_76 
REMARK    4  A    between atoms: C_7  and  O_15 
REMARK    5  A    between atoms: C_8  and  C_17 
REMARK    6  A    between atoms: C_9  and  O_13 
REMARK    7  A    between atoms: C_16  and  O_24 
REMARK    8  A    between atoms: C_18  and  O_22 
REMARK    9  A    between atoms: C_19  and  C_72 
REMARK   10  A    between atoms: C_20  and  O_23 
REMARK   11  A    between atoms: C_28  and  O_32 
REMARK   12  A    between atoms: C_30  and  O_33 
REMARK   13  A    between atoms: C_37  and  O_42 
REMARK   14  A    between atoms: C_39  and  O_43 
REMARK   15  A    between atoms: C_46  and  O_67 
REMARK   16  A    between atoms: C_48  and  O_65 
REMARK   17  A    between atoms: C_49  and  C_52 
REMARK   18  A    between atoms: C_50  and  O_66 
REMARK   19  A    between atoms: C_52  and  O_60 
REMARK   20  A    between atoms: C_54  and  O_60 
REMARK   21  A    between atoms: C_72  and  O_73 
ROOT
HETATM    1  C   UNK     0       1.362 -16.304 -39.570  0.00  0.00     0.058 A 
HETATM    2  C   UNK     0       1.740 -16.589 -38.266  0.00  0.00     0.060 A 
HETATM    3  C   UNK     0       2.023 -15.336 -40.304  0.00  0.00     0.102 A 
HETATM    4  C   UNK     0       2.806 -15.890 -37.682  0.00  0.00     0.127 A 
HETATM    5  C   UNK     0       3.075 -14.645 -39.734  0.00  0.00     0.135 A 
HETATM    6  C   UNK     0       3.460 -14.924 -38.434  0.00  0.00     0.137 A 
HETATM    7  C   UNK     0       3.916 -17.764 -33.239  0.00  0.00     0.114 A 
HETATM    8  C   UNK     0       2.801 -18.586 -33.093  0.00  0.00     0.030 A 
HETATM    9  C   UNK     0       4.072 -16.933 -34.337  0.00  0.00     0.134 A 
HETATM   10  C   UNK     0       1.830 -18.549 -34.102  0.00  0.00     0.059 A 
HETATM   11  C   UNK     0       3.110 -16.899 -35.329  0.00  0.00     0.116 A 
HETATM   12  C   UNK     0       2.004 -17.709 -35.187  0.00  0.00     0.329 A 
HETATM   13  O   UNK     0       3.284 -16.050 -36.397  0.00  0.00    -0.304 OA
HETATM   14  C   UNK     0       0.595 -19.342 -34.128  0.00  0.00     0.295 C 
HETATM   15  C   UNK     0      -2.910 -25.821 -30.645  0.00  0.00     0.026 A 
HETATM   16  C   UNK     0      -3.033 -24.956 -31.729  0.00  0.00     0.006 A 
HETATM   17  C   UNK     0      -2.012 -25.590 -29.619  0.00  0.00     0.111 A 
HETATM   18  C   UNK     0      -2.201 -23.822 -31.757  0.00  0.00     0.054 A 
HETATM   19  C   UNK     0      -1.202 -24.474 -29.658  0.00  0.00     0.100 A 
HETATM   20  C   UNK     0      -1.301 -23.600 -30.723  0.00  0.00     0.058 A 
HETATM   21  O   UNK     0      -3.706 -26.925 -30.588  0.00  0.00     0.000 OA
HETATM   22  C   UNK     0      -5.124 -26.173 -32.221  0.00  0.00     0.026 A 
HETATM   23  C   UNK     0      -4.105 -25.374 -32.740  0.00  0.00     0.006 A 
HETATM   24  C   UNK     0      -6.147 -26.661 -33.014  0.00  0.00     0.111 A 
HETATM   25  C   UNK     0      -4.155 -25.071 -34.108  0.00  0.00     0.054 A 
HETATM   26  C   UNK     0      -6.179 -26.357 -34.360  0.00  0.00     0.100 A 
HETATM   27  C   UNK     0      -5.184 -25.565 -34.897  0.00  0.00     0.058 A 
HETATM   28  C   UNK     0      -3.171 -24.258 -34.803  0.00  0.00     0.294 C 
HETATM   29  O   UNK     0      -5.107 -26.488 -30.898  0.00  0.00     0.000 OA
HETATM   30  O   UNK     0      -2.088 -24.727 -35.072  0.00  0.00    -0.259 OA
HETATM   31  C   UNK     0      -2.814 -21.214 -36.700  0.00  0.00     0.302 C 
HETATM   32  C   UNK     0      -2.368 -22.335 -35.793  0.00  0.00     0.220 C 
HETATM   33  O   UNK     0      -1.662 -20.690 -37.374  0.00  0.00    -0.348 OA
HETATM   34  C   UNK     0      -1.486 -21.736 -34.749  0.00  0.00     0.198 C 
HETATM   35  C   UNK     0      -0.572 -20.222 -36.552  0.00  0.00     0.181 C 
HETATM   36  C   UNK     0      -0.211 -21.266 -35.437  0.00  0.00     0.195 C 
HETATM   37  C   UNK     0       0.664 -20.004 -37.437  0.00  0.00     0.212 C 
HETATM   38  O   UNK     0      -1.217 -22.707 -33.747  0.00  0.00    -0.306 OA
HETATM   39  O   UNK     0       0.662 -20.661 -34.480  0.00  0.00    -0.307 OA
HETATM   40  O   UNK     0      -3.464 -22.978 -35.175  0.00  0.00    -0.304 OA
HETATM   41  O   UNK     0       0.632 -18.790 -38.179  0.00  0.00    -0.328 OA
HETATM   42  C   UNK     0      -2.211 -22.794 -32.808  0.00  0.00     0.294 C 
HETATM   43  O   UNK     0      -3.104 -21.980 -32.826  0.00  0.00    -0.259 OA
HETATM   44  O   UNK     0      -0.475 -18.823 -33.903  0.00  0.00    -0.259 OA
HETATM   45  C   UNK     0       0.983 -17.630 -37.560  0.00  0.00     0.179 C 
HETATM   46  O   UNK     0       0.702 -17.469 -36.394  0.00  0.00    -0.383 OA
HETATM   47  H   UNK     0      -3.634 -27.560 -29.804  0.00  0.00     0.000 HD
HETATM   48  H   UNK     0      -5.836 -27.072 -30.508  0.00  0.00     0.000 HD
ENDROOT
BRANCH   3  49
HETATM   49  O   UNK     0       1.640 -15.064 -41.580  0.00  0.00    -0.358 OA
HETATM   50  H   UNK     0       1.946 -15.659 -42.339  0.00  0.00     0.217 HD
ENDBRANCH   3  49
BRANCH   5  51
HETATM   51  O   UNK     0       3.729 -13.691 -40.450  0.00  0.00    -0.356 OA
HETATM   52  H   UNK     0       3.980 -12.813 -40.012  0.00  0.00     0.218 HD
ENDBRANCH   5  51
BRANCH   6  53
HETATM   53  O   UNK     0       4.496 -14.236 -37.882  0.00  0.00    -0.356 OA
HETATM   54  H   UNK     0       4.438 -13.231 -37.777  0.00  0.00     0.218 HD
ENDBRANCH   6  53
BRANCH   9  55
HETATM   55  O   UNK     0       5.174 -16.139 -34.431  0.00  0.00    -0.356 OA
HETATM   56  H   UNK     0       6.083 -16.501 -34.172  0.00  0.00     0.218 HD
ENDBRANCH   9  55
BRANCH   7  57
HETATM   57  O   UNK     0       4.871 -17.768 -32.270  0.00  0.00    -0.357 OA
HETATM   58  H   UNK     0       5.231 -16.893 -31.913  0.00  0.00     0.217 HD
ENDBRANCH   7  57
BRANCH   8  59
HETATM   59  C   UNK     0       2.764 -19.410 -31.816  0.00  0.00     0.023 A 
HETATM   60  C   UNK     0       2.442 -18.700 -30.664  0.00  0.00     0.113 A 
HETATM   61  C   UNK     0       2.377 -19.315 -29.427  0.00  0.00     0.133 A 
HETATM   62  C   UNK     0       2.631 -20.667 -29.318  0.00  0.00     0.102 A 
HETATM   63  C   UNK     0       2.960 -21.391 -30.449  0.00  0.00     0.049 A 
HETATM   64  C   UNK     0       3.033 -20.779 -31.692  0.00  0.00    -0.018 A 
BRANCH  60  65
HETATM   65  O   UNK     0       2.194 -17.366 -30.757  0.00  0.00    -0.357 OA
HETATM   66  H   UNK     0       1.326 -17.039 -31.161  0.00  0.00     0.217 HD
ENDBRANCH  60  65
BRANCH  61  67
HETATM   67  O   UNK     0       2.067 -18.589 -28.321  0.00  0.00    -0.356 OA
HETATM   68  H   UNK     0       1.893 -19.055 -27.440  0.00  0.00     0.218 HD
ENDBRANCH  61  67
BRANCH  62  69
HETATM   69  O   UNK     0       2.565 -21.279 -28.105  0.00  0.00    -0.358 OA
HETATM   70  H   UNK     0       1.920 -22.045 -27.959  0.00  0.00     0.217 HD
ENDBRANCH  62  69
BRANCH  64  71
HETATM   71  C   UNK     0       3.418 -21.665 -32.844  0.00  0.00     0.203 C 
BRANCH  71  72
HETATM   72  O   UNK     0       2.323 -22.522 -33.140  0.00  0.00    -0.396 OA
HETATM   73  H   UNK     0       2.405 -23.212 -33.876  0.00  0.00     0.209 HD
ENDBRANCH  71  72
ENDBRANCH  64  71
ENDBRANCH   8  59
BRANCH  31  74
HETATM   74  O   UNK     0      -3.747 -21.704 -37.651  0.00  0.00    -0.283 OA
BRANCH  74  75
HETATM   75  C   UNK     0      -4.903 -21.014 -37.819  0.00  0.00     0.295 C 
HETATM   76  O   UNK     0      -4.866 -19.888 -38.257  0.00  0.00    -0.259 OA
BRANCH  75  77
HETATM   77  C   UNK     0      -6.197 -21.622 -37.480  0.00  0.00     0.045 A 
HETATM   78  C   UNK     0      -7.264 -20.829 -37.089  0.00  0.00     0.057 A 
HETATM   79  C   UNK     0      -8.478 -21.415 -36.765  0.00  0.00     0.102 A 
HETATM   80  C   UNK     0      -8.623 -22.792 -36.829  0.00  0.00     0.132 A 
HETATM   81  C   UNK     0      -7.556 -23.584 -37.221  0.00  0.00     0.102 A 
HETATM   82  C   UNK     0      -6.344 -22.999 -37.548  0.00  0.00     0.057 A 
BRANCH  79  83
HETATM   83  O   UNK     0      -9.529 -20.639 -36.382  0.00  0.00    -0.358 OA
HETATM   84  H   UNK     0      -9.827 -20.632 -35.415  0.00  0.00     0.217 HD
ENDBRANCH  79  83
BRANCH  80  85
HETATM   85  O   UNK     0      -9.813 -23.367 -36.504  0.00  0.00    -0.356 OA
HETATM   86  H   UNK     0     -10.074 -23.474 -35.531  0.00  0.00     0.218 HD
ENDBRANCH  80  85
BRANCH  81  87
HETATM   87  O   UNK     0      -7.698 -24.934 -37.281  0.00  0.00    -0.358 OA
HETATM   88  H   UNK     0      -8.615 -25.342 -37.408  0.00  0.00     0.217 HD
ENDBRANCH  81  87
ENDBRANCH  75  77
ENDBRANCH  74  75
ENDBRANCH  31  74
BRANCH  19  89
HETATM   89  O   UNK     0      -0.318 -24.239 -28.652  0.00  0.00    -0.358 OA
HETATM   90  H   UNK     0      -0.638 -23.837 -27.780  0.00  0.00     0.217 HD
ENDBRANCH  19  89
BRANCH  26  91
HETATM   91  O   UNK     0      -7.177 -26.837 -35.149  0.00  0.00    -0.358 OA
HETATM   92  H   UNK     0      -8.071 -26.364 -35.178  0.00  0.00     0.217 HD
ENDBRANCH  26  91
BRANCH  17  93
HETATM   93  O   UNK     0      -1.931 -26.456 -28.573  0.00  0.00    -0.357 OA
HETATM   94  H   UNK     0      -1.813 -26.102 -27.631  0.00  0.00     0.217 HD
ENDBRANCH  17  93
BRANCH  24  95
HETATM   95  O   UNK     0      -7.119 -27.444 -32.471  0.00  0.00    -0.357 OA
HETATM   96  H   UNK     0      -7.253 -28.389 -32.807  0.00  0.00     0.217 HD
ENDBRANCH  24  95
TORSDOF 21
