REMARK VINA RESULT:      -7.3     27.144     33.531
REMARK  21 active torsions:
REMARK  status: ('A' for Active; 'I' for Inactive)
REMARK    1  A    between atoms: C_3  and  O_78 
REMARK    2  A    between atoms: C_5  and  O_77 
REMARK    3  A    between atoms: C_6  and  O_76 
REMARK    4  A    between atoms: C_7  and  O_15 
REMARK    5  A    between atoms: C_8  and  C_17 
REMARK    6  A    between atoms: C_9  and  O_13 
REMARK    7  A    between atoms: C_16  and  O_24 
REMARK    8  A    between atoms: C_18  and  O_22 
REMARK    9  A    between atoms: C_19  and  C_72 
REMARK   10  A    between atoms: C_20  and  O_23 
REMARK   11  A    between atoms: C_28  and  O_32 
REMARK   12  A    between atoms: C_30  and  O_33 
REMARK   13  A    between atoms: C_37  and  O_42 
REMARK   14  A    between atoms: C_39  and  O_43 
REMARK   15  A    between atoms: C_46  and  O_67 
REMARK   16  A    between atoms: C_48  and  O_65 
REMARK   17  A    between atoms: C_49  and  C_52 
REMARK   18  A    between atoms: C_50  and  O_66 
REMARK   19  A    between atoms: C_52  and  O_60 
REMARK   20  A    between atoms: C_54  and  O_60 
REMARK   21  A    between atoms: C_72  and  O_73 
ROOT
HETATM    1  C   UNK     0     -27.854 -15.690 -23.596  0.00  0.00     0.058 A 
HETATM    2  C   UNK     0     -27.902 -15.160 -22.315  0.00  0.00     0.060 A 
HETATM    3  C   UNK     0     -27.465 -17.001 -23.806  0.00  0.00     0.102 A 
HETATM    4  C   UNK     0     -27.555 -15.960 -21.217  0.00  0.00     0.127 A 
HETATM    5  C   UNK     0     -27.123 -17.795 -22.728  0.00  0.00     0.135 A 
HETATM    6  C   UNK     0     -27.170 -17.275 -21.446  0.00  0.00     0.137 A 
HETATM    7  C   UNK     0     -28.439 -13.592 -16.963  0.00  0.00     0.114 A 
HETATM    8  C   UNK     0     -28.678 -12.327 -17.494  0.00  0.00     0.030 A 
HETATM    9  C   UNK     0     -28.069 -14.662 -17.763  0.00  0.00     0.134 A 
HETATM   10  C   UNK     0     -28.532 -12.164 -18.877  0.00  0.00     0.059 A 
HETATM   11  C   UNK     0     -27.925 -14.495 -19.127  0.00  0.00     0.116 A 
HETATM   12  C   UNK     0     -28.158 -13.244 -19.656  0.00  0.00     0.329 A 
HETATM   13  O   UNK     0     -27.537 -15.571 -19.892  0.00  0.00    -0.304 OA
HETATM   14  C   UNK     0     -28.744 -10.915 -19.618  0.00  0.00     0.295 C 
HETATM   15  C   UNK     0     -32.095  -3.526 -18.850  0.00  0.00     0.026 A 
HETATM   16  C   UNK     0     -31.580  -4.406 -19.798  0.00  0.00     0.006 A 
HETATM   17  C   UNK     0     -31.971  -3.757 -17.492  0.00  0.00     0.111 A 
HETATM   18  C   UNK     0     -30.923  -5.559 -19.332  0.00  0.00     0.054 A 
HETATM   19  C   UNK     0     -31.325  -4.891 -17.046  0.00  0.00     0.100 A 
HETATM   20  C   UNK     0     -30.807  -5.782 -17.966  0.00  0.00     0.058 A 
HETATM   21  O   UNK     0     -32.731  -2.399 -19.271  0.00  0.00     0.000 OA
HETATM   22  C   UNK     0     -31.949  -2.578 -21.416  0.00  0.00     0.026 A 
HETATM   23  C   UNK     0     -31.794  -3.953 -21.247  0.00  0.00     0.006 A 
HETATM   24  C   UNK     0     -32.185  -2.016 -22.659  0.00  0.00     0.111 A 
HETATM   25  C   UNK     0     -31.877  -4.759 -22.391  0.00  0.00     0.054 A 
HETATM   26  C   UNK     0     -32.269  -2.824 -23.774  0.00  0.00     0.100 A 
HETATM   27  C   UNK     0     -32.115  -4.188 -23.633  0.00  0.00     0.058 A 
HETATM   28  C   UNK     0     -31.742  -6.207 -22.384  0.00  0.00     0.294 C 
HETATM   29  O   UNK     0     -31.875  -1.766 -20.328  0.00  0.00     0.000 OA
HETATM   30  O   UNK     0     -32.657  -6.892 -21.985  0.00  0.00    -0.259 OA
HETATM   31  C   UNK     0     -29.727  -8.888 -23.701  0.00  0.00     0.302 C 
HETATM   32  C   UNK     0     -30.642  -8.208 -22.713  0.00  0.00     0.220 C 
HETATM   33  O   UNK     0     -29.907 -10.306 -23.583  0.00  0.00    -0.348 OA
HETATM   34  C   UNK     0     -30.185  -8.594 -21.346  0.00  0.00     0.198 C 
HETATM   35  C   UNK     0     -29.707 -10.891 -22.279  0.00  0.00     0.181 C 
HETATM   36  C   UNK     0     -30.466 -10.081 -21.169  0.00  0.00     0.195 C 
HETATM   37  C   UNK     0     -30.246 -12.330 -22.288  0.00  0.00     0.212 C 
HETATM   38  O   UNK     0     -30.873  -7.810 -20.381  0.00  0.00    -0.306 OA
HETATM   39  O   UNK     0     -30.023 -10.508 -19.879  0.00  0.00    -0.307 OA
HETATM   40  O   UNK     0     -30.604  -6.802 -22.845  0.00  0.00    -0.304 OA
HETATM   41  O   UNK     0     -29.369 -13.268 -22.902  0.00  0.00    -0.328 OA
HETATM   42  C   UNK     0     -30.301  -6.580 -20.187  0.00  0.00     0.294 C 
HETATM   43  O   UNK     0     -29.238  -6.343 -20.709  0.00  0.00    -0.259 OA
HETATM   44  O   UNK     0     -27.804 -10.285 -20.045  0.00  0.00    -0.259 OA
HETATM   45  C   UNK     0     -28.324 -13.761 -22.183  0.00  0.00     0.179 C 
HETATM   46  O   UNK     0     -27.756 -13.043 -21.391  0.00  0.00    -0.383 OA
HETATM   47  H   UNK     0     -33.105  -1.746 -18.595  0.00  0.00     0.000 HD
HETATM   48  H   UNK     0     -31.993  -0.766 -20.435  0.00  0.00     0.000 HD
ENDROOT
BRANCH   3  49
HETATM   49  O   UNK     0     -27.419 -17.508 -25.067  0.00  0.00    -0.358 OA
HETATM   50  H   UNK     0     -26.832 -18.307 -25.270  0.00  0.00     0.217 HD
ENDBRANCH   3  49
BRANCH   5  51
HETATM   51  O   UNK     0     -26.739 -19.085 -22.927  0.00  0.00    -0.356 OA
HETATM   52  H   UNK     0     -26.593 -19.697 -22.135  0.00  0.00     0.218 HD
ENDBRANCH   5  51
BRANCH   6  53
HETATM   53  O   UNK     0     -26.829 -18.064 -20.391  0.00  0.00    -0.356 OA
HETATM   54  H   UNK     0     -27.274 -18.965 -20.268  0.00  0.00     0.218 HD
ENDBRANCH   6  53
BRANCH   9  55
HETATM   55  O   UNK     0     -27.835 -15.878 -17.198  0.00  0.00    -0.356 OA
HETATM   56  H   UNK     0     -27.580 -15.941 -16.220  0.00  0.00     0.218 HD
ENDBRANCH   9  55
BRANCH   7  57
HETATM   57  O   UNK     0     -28.561 -13.779 -15.621  0.00  0.00    -0.357 OA
HETATM   58  H   UNK     0     -29.335 -14.318 -15.255  0.00  0.00     0.217 HD
ENDBRANCH   7  57
BRANCH   8  59
HETATM   59  C   UNK     0     -29.042 -11.255 -16.479  0.00  0.00     0.023 A 
HETATM   60  C   UNK     0     -27.967 -10.712 -15.783  0.00  0.00     0.113 A 
HETATM   61  C   UNK     0     -28.144  -9.732 -14.823  0.00  0.00     0.133 A 
HETATM   62  C   UNK     0     -29.413  -9.268 -14.541  0.00  0.00     0.102 A 
HETATM   63  C   UNK     0     -30.496  -9.798 -15.216  0.00  0.00     0.049 A 
HETATM   64  C   UNK     0     -30.326 -10.786 -16.177  0.00  0.00    -0.018 A 
BRANCH  60  65
HETATM   65  O   UNK     0     -26.711 -11.165 -16.047  0.00  0.00    -0.357 OA
HETATM   66  H   UNK     0     -26.227 -10.857 -16.880  0.00  0.00     0.217 HD
ENDBRANCH  60  65
BRANCH  61  67
HETATM   67  O   UNK     0     -27.071  -9.230 -14.156  0.00  0.00    -0.356 OA
HETATM   68  H   UNK     0     -26.313  -8.796 -14.667  0.00  0.00     0.218 HD
ENDBRANCH  61  67
BRANCH  62  69
HETATM   69  O   UNK     0     -29.594  -8.302 -13.602  0.00  0.00    -0.358 OA
HETATM   70  H   UNK     0     -29.298  -7.353 -13.788  0.00  0.00     0.217 HD
ENDBRANCH  62  69
BRANCH  64  71
HETATM   71  C   UNK     0     -31.580 -11.298 -16.829  0.00  0.00     0.203 C 
BRANCH  71  72
HETATM   72  O   UNK     0     -31.917 -10.428 -17.901  0.00  0.00    -0.396 OA
HETATM   73  H   UNK     0     -31.752 -10.715 -18.858  0.00  0.00     0.209 HD
ENDBRANCH  71  72
ENDBRANCH  64  71
ENDBRANCH   8  59
BRANCH  31  74
HETATM   74  O   UNK     0     -30.042  -8.471 -25.021  0.00  0.00    -0.283 OA
BRANCH  74  75
HETATM   75  C   UNK     0     -29.045  -8.464 -25.939  0.00  0.00     0.295 C 
HETATM   76  O   UNK     0     -29.283  -8.786 -27.080  0.00  0.00    -0.259 OA
BRANCH  75  77
HETATM   77  C   UNK     0     -27.681  -8.065 -25.564  0.00  0.00     0.045 A 
HETATM   78  C   UNK     0     -26.757  -9.017 -25.160  0.00  0.00     0.057 A 
HETATM   79  C   UNK     0     -25.476  -8.627 -24.802  0.00  0.00     0.102 A 
HETATM   80  C   UNK     0     -25.120  -7.288 -24.844  0.00  0.00     0.132 A 
HETATM   81  C   UNK     0     -26.044  -6.338 -25.248  0.00  0.00     0.102 A 
HETATM   82  C   UNK     0     -27.323  -6.727 -25.610  0.00  0.00     0.057 A 
BRANCH  79  83
HETATM   83  O   UNK     0     -24.565  -9.559 -24.407  0.00  0.00    -0.358 OA
HETATM   84  H   UNK     0     -24.269 -10.281 -25.050  0.00  0.00     0.217 HD
ENDBRANCH  79  83
BRANCH  80  85
HETATM   85  O   UNK     0     -23.865  -6.906 -24.485  0.00  0.00    -0.356 OA
HETATM   86  H   UNK     0     -23.221  -7.583 -24.095  0.00  0.00     0.218 HD
ENDBRANCH  80  85
BRANCH  81  87
HETATM   87  O   UNK     0     -25.696  -5.025 -25.287  0.00  0.00    -0.358 OA
HETATM   88  H   UNK     0     -25.382  -4.559 -24.445  0.00  0.00     0.217 HD
ENDBRANCH  81  87
ENDBRANCH  75  77
ENDBRANCH  74  75
ENDBRANCH  31  74
BRANCH  19  89
HETATM   89  O   UNK     0     -31.199  -5.124 -15.712  0.00  0.00    -0.358 OA
HETATM   90  H   UNK     0     -31.640  -4.503 -15.046  0.00  0.00     0.217 HD
ENDBRANCH  19  89
BRANCH  26  91
HETATM   91  O   UNK     0     -32.507  -2.282 -24.999  0.00  0.00    -0.358 OA
HETATM   92  H   UNK     0     -32.858  -1.337 -25.073  0.00  0.00     0.217 HD
ENDBRANCH  26  91
BRANCH  17  93
HETATM   93  O   UNK     0     -32.480  -2.867 -16.598  0.00  0.00    -0.357 OA
HETATM   94  H   UNK     0     -33.242  -3.140 -15.989  0.00  0.00     0.217 HD
ENDBRANCH  17  93
BRANCH  24  95
HETATM   95  O   UNK     0     -32.339  -0.670 -22.782  0.00  0.00    -0.357 OA
HETATM   96  H   UNK     0     -32.935  -0.168 -22.137  0.00  0.00     0.217 HD
ENDBRANCH  24  95
TORSDOF 21
