REMARK VINA RESULT:      -7.1     21.827     26.924
REMARK  21 active torsions:
REMARK  status: ('A' for Active; 'I' for Inactive)
REMARK    1  A    between atoms: C_3  and  O_78 
REMARK    2  A    between atoms: C_5  and  O_77 
REMARK    3  A    between atoms: C_6  and  O_76 
REMARK    4  A    between atoms: C_7  and  O_15 
REMARK    5  A    between atoms: C_8  and  C_17 
REMARK    6  A    between atoms: C_9  and  O_13 
REMARK    7  A    between atoms: C_16  and  O_24 
REMARK    8  A    between atoms: C_18  and  O_22 
REMARK    9  A    between atoms: C_19  and  C_72 
REMARK   10  A    between atoms: C_20  and  O_23 
REMARK   11  A    between atoms: C_28  and  O_32 
REMARK   12  A    between atoms: C_30  and  O_33 
REMARK   13  A    between atoms: C_37  and  O_42 
REMARK   14  A    between atoms: C_39  and  O_43 
REMARK   15  A    between atoms: C_46  and  O_67 
REMARK   16  A    between atoms: C_48  and  O_65 
REMARK   17  A    between atoms: C_49  and  C_52 
REMARK   18  A    between atoms: C_50  and  O_66 
REMARK   19  A    between atoms: C_52  and  O_60 
REMARK   20  A    between atoms: C_54  and  O_60 
REMARK   21  A    between atoms: C_72  and  O_73 
ROOT
HETATM    1  C   UNK     0       0.938 -21.112 -15.802  0.00  0.00     0.058 A 
HETATM    2  C   UNK     0      -0.348 -21.478 -16.172  0.00  0.00     0.060 A 
HETATM    3  C   UNK     0       1.216 -20.715 -14.506  0.00  0.00     0.102 A 
HETATM    4  C   UNK     0      -1.381 -21.448 -15.225  0.00  0.00     0.127 A 
HETATM    5  C   UNK     0       0.203 -20.685 -13.567  0.00  0.00     0.135 A 
HETATM    6  C   UNK     0      -1.083 -21.050 -13.928  0.00  0.00     0.137 A 
HETATM    7  C   UNK     0      -5.547 -23.349 -17.100  0.00  0.00     0.114 A 
HETATM    8  C   UNK     0      -5.147 -23.410 -18.432  0.00  0.00     0.030 A 
HETATM    9  C   UNK     0      -4.732 -22.810 -16.116  0.00  0.00     0.134 A 
HETATM   10  C   UNK     0      -3.881 -22.905 -18.755  0.00  0.00     0.059 A 
HETATM   11  C   UNK     0      -3.484 -22.312 -16.441  0.00  0.00     0.116 A 
HETATM   12  C   UNK     0      -3.085 -22.369 -17.759  0.00  0.00     0.329 A 
HETATM   13  O   UNK     0      -2.706 -21.766 -15.446  0.00  0.00    -0.304 OA
HETATM   14  C   UNK     0      -3.285 -22.886 -20.096  0.00  0.00     0.295 C 
HETATM   15  C   UNK     0      -4.158 -26.136 -27.518  0.00  0.00     0.026 A 
HETATM   16  C   UNK     0      -3.262 -25.414 -26.733  0.00  0.00     0.006 A 
HETATM   17  C   UNK     0      -5.458 -26.375 -27.116  0.00  0.00     0.111 A 
HETATM   18  C   UNK     0      -3.722 -24.930 -25.495  0.00  0.00     0.054 A 
HETATM   19  C   UNK     0      -5.898 -25.896 -25.899  0.00  0.00     0.100 A 
HETATM   20  C   UNK     0      -5.029 -25.179 -25.099  0.00  0.00     0.058 A 
HETATM   21  O   UNK     0      -3.743 -26.612 -28.724  0.00  0.00     0.000 OA
HETATM   22  C   UNK     0      -1.863 -25.305 -28.764  0.00  0.00     0.026 A 
HETATM   23  C   UNK     0      -1.881 -25.233 -27.372  0.00  0.00     0.006 A 
HETATM   24  C   UNK     0      -0.689 -25.195 -29.488  0.00  0.00     0.111 A 
HETATM   25  C   UNK     0      -0.656 -25.036 -26.719  0.00  0.00     0.054 A 
HETATM   26  C   UNK     0       0.509 -25.006 -28.829  0.00  0.00     0.100 A 
HETATM   27  C   UNK     0       0.517 -24.928 -27.451  0.00  0.00     0.058 A 
HETATM   28  C   UNK     0      -0.503 -24.944 -25.276  0.00  0.00     0.294 C 
HETATM   29  O   UNK     0      -3.033 -25.495 -29.431  0.00  0.00     0.000 OA
HETATM   30  O   UNK     0      -0.561 -25.947 -24.602  0.00  0.00    -0.259 OA
HETATM   31  C   UNK     0       0.604 -22.723 -22.663  0.00  0.00     0.302 C 
HETATM   32  C   UNK     0      -0.200 -23.846 -23.270  0.00  0.00     0.220 C 
HETATM   33  O   UNK     0       0.727 -22.963 -21.255  0.00  0.00    -0.348 OA
HETATM   34  C   UNK     0      -1.574 -23.770 -22.692  0.00  0.00     0.198 C 
HETATM   35  C   UNK     0      -0.494 -23.124 -20.503  0.00  0.00     0.181 C 
HETATM   36  C   UNK     0      -1.473 -24.124 -21.214  0.00  0.00     0.195 C 
HETATM   37  C   UNK     0      -0.156 -23.677 -19.111  0.00  0.00     0.212 C 
HETATM   38  O   UNK     0      -2.428 -24.666 -23.391  0.00  0.00    -0.306 OA
HETATM   39  O   UNK     0      -2.764 -24.043 -20.606  0.00  0.00    -0.307 OA
HETATM   40  O   UNK     0      -0.272 -23.740 -24.677  0.00  0.00    -0.304 OA
HETATM   41  O   UNK     0       0.334 -22.694 -18.206  0.00  0.00    -0.328 OA
HETATM   42  C   UNK     0      -2.925 -24.133 -24.551  0.00  0.00     0.294 C 
HETATM   43  O   UNK     0      -2.727 -22.965 -24.789  0.00  0.00    -0.259 OA
HETATM   44  O   UNK     0      -3.200 -21.852 -20.717  0.00  0.00    -0.259 OA
HETATM   45  C   UNK     0      -0.554 -21.884 -17.567  0.00  0.00     0.179 C 
HETATM   46  O   UNK     0      -1.553 -21.524 -18.147  0.00  0.00    -0.383 OA
HETATM   47  H   UNK     0      -4.383 -27.133 -29.310  0.00  0.00     0.000 HD
HETATM   48  H   UNK     0      -3.035 -25.556 -30.442  0.00  0.00     0.000 HD
ENDROOT
BRANCH   3  49
HETATM   49  O   UNK     0       2.480 -20.355 -14.157  0.00  0.00    -0.358 OA
HETATM   50  H   UNK     0       2.681 -19.395 -13.904  0.00  0.00     0.217 HD
ENDBRANCH   3  49
BRANCH   5  51
HETATM   51  O   UNK     0       0.469 -20.295 -12.291  0.00  0.00    -0.356 OA
HETATM   52  H   UNK     0      -0.252 -19.846 -11.739  0.00  0.00     0.218 HD
ENDBRANCH   5  51
BRANCH   6  53
HETATM   53  O   UNK     0      -2.074 -21.015 -12.996  0.00  0.00    -0.356 OA
HETATM   54  H   UNK     0      -2.299 -21.846 -12.464  0.00  0.00     0.218 HD
ENDBRANCH   6  53
BRANCH   9  55
HETATM   55  O   UNK     0      -5.170 -22.762 -14.829  0.00  0.00    -0.356 OA
HETATM   56  H   UNK     0      -6.049 -23.195 -14.577  0.00  0.00     0.218 HD
ENDBRANCH   9  55
BRANCH   7  57
HETATM   57  O   UNK     0      -6.776 -23.820 -16.757  0.00  0.00    -0.357 OA
HETATM   58  H   UNK     0      -6.985 -24.027 -15.788  0.00  0.00     0.217 HD
ENDBRANCH   7  57
BRANCH   8  59
HETATM   59  C   UNK     0      -6.170 -23.998 -19.391  0.00  0.00     0.023 A 
HETATM   60  C   UNK     0      -7.210 -23.143 -19.743  0.00  0.00     0.113 A 
HETATM   61  C   UNK     0      -8.218 -23.541 -20.601  0.00  0.00     0.133 A 
HETATM   62  C   UNK     0      -8.204 -24.815 -21.134  0.00  0.00     0.102 A 
HETATM   63  C   UNK     0      -7.184 -25.683 -20.793  0.00  0.00     0.049 A 
HETATM   64  C   UNK     0      -6.172 -25.292 -19.927  0.00  0.00    -0.018 A 
BRANCH  60  65
HETATM   65  O   UNK     0      -7.238 -21.887 -19.221  0.00  0.00    -0.357 OA
HETATM   66  H   UNK     0      -7.093 -21.747 -18.230  0.00  0.00     0.217 HD
ENDBRANCH  60  65
BRANCH  61  67
HETATM   67  O   UNK     0      -9.223 -22.682 -20.917  0.00  0.00    -0.356 OA
HETATM   68  H   UNK     0     -10.183 -22.925 -20.707  0.00  0.00     0.218 HD
ENDBRANCH  61  67
BRANCH  62  69
HETATM   69  O   UNK     0      -9.190 -25.211 -21.982  0.00  0.00    -0.358 OA
HETATM   70  H   UNK     0     -10.068 -24.710 -22.007  0.00  0.00     0.217 HD
ENDBRANCH  62  69
BRANCH  64  71
HETATM   71  C   UNK     0      -5.129 -26.329 -19.616  0.00  0.00     0.203 C 
BRANCH  71  72
HETATM   72  O   UNK     0      -4.239 -26.419 -20.720  0.00  0.00    -0.396 OA
HETATM   73  H   UNK     0      -3.614 -25.650 -20.930  0.00  0.00     0.209 HD
ENDBRANCH  71  72
ENDBRANCH  64  71
ENDBRANCH   8  59
BRANCH  31  74
HETATM   74  O   UNK     0       1.893 -22.674 -23.257  0.00  0.00    -0.283 OA
BRANCH  74  75
HETATM   75  C   UNK     0       2.331 -21.478 -23.722  0.00  0.00     0.295 C 
HETATM   76  O   UNK     0       2.426 -20.542 -22.961  0.00  0.00    -0.259 OA
BRANCH  75  77
HETATM   77  C   UNK     0       2.698 -21.309 -25.134  0.00  0.00     0.045 A 
HETATM   78  C   UNK     0       2.719 -20.048 -25.708  0.00  0.00     0.057 A 
HETATM   79  C   UNK     0       3.060 -19.901 -27.044  0.00  0.00     0.102 A 
HETATM   80  C   UNK     0       3.376 -21.015 -27.806  0.00  0.00     0.132 A 
HETATM   81  C   UNK     0       3.356 -22.276 -27.231  0.00  0.00     0.102 A 
HETATM   82  C   UNK     0       3.019 -22.422 -25.896  0.00  0.00     0.057 A 
BRANCH  79  83
HETATM   83  O   UNK     0       3.083 -18.664 -27.611  0.00  0.00    -0.358 OA
HETATM   84  H   UNK     0       2.518 -18.471 -28.427  0.00  0.00     0.217 HD
ENDBRANCH  79  83
BRANCH  80  85
HETATM   85  O   UNK     0       3.704 -20.873 -29.118  0.00  0.00    -0.356 OA
HETATM   86  H   UNK     0       4.195 -21.615 -29.601  0.00  0.00     0.218 HD
ENDBRANCH  80  85
BRANCH  81  87
HETATM   87  O   UNK     0       3.664 -23.369 -27.978  0.00  0.00    -0.358 OA
HETATM   88  H   UNK     0       4.210 -23.266 -28.824  0.00  0.00     0.217 HD
ENDBRANCH  81  87
ENDBRANCH  75  77
ENDBRANCH  74  75
ENDBRANCH  31  74
BRANCH  19  89
HETATM   89  O   UNK     0      -7.176 -26.126 -25.498  0.00  0.00    -0.358 OA
HETATM   90  H   UNK     0      -7.514 -25.731 -24.629  0.00  0.00     0.217 HD
ENDBRANCH  19  89
BRANCH  26  91
HETATM   91  O   UNK     0       1.670 -24.904 -29.531  0.00  0.00    -0.358 OA
HETATM   92  H   UNK     0       1.795 -24.152 -30.195  0.00  0.00     0.217 HD
ENDBRANCH  26  91
BRANCH  17  93
HETATM   93  O   UNK     0      -6.305 -27.077 -27.918  0.00  0.00    -0.357 OA
HETATM   94  H   UNK     0      -6.962 -27.731 -27.511  0.00  0.00     0.217 HD
ENDBRANCH  17  93
BRANCH  24  95
HETATM   95  O   UNK     0      -0.711 -25.278 -30.846  0.00  0.00    -0.357 OA
HETATM   96  H   UNK     0      -1.001 -26.137 -31.295  0.00  0.00     0.217 HD
ENDBRANCH  24  95
TORSDOF 21
