REMARK VINA RESULT:      -7.8      5.345     10.809
REMARK  21 active torsions:
REMARK  status: ('A' for Active; 'I' for Inactive)
REMARK    1  A    between atoms: C_3  and  O_78 
REMARK    2  A    between atoms: C_5  and  O_77 
REMARK    3  A    between atoms: C_6  and  O_76 
REMARK    4  A    between atoms: C_7  and  O_15 
REMARK    5  A    between atoms: C_8  and  C_17 
REMARK    6  A    between atoms: C_9  and  O_13 
REMARK    7  A    between atoms: C_16  and  O_24 
REMARK    8  A    between atoms: C_18  and  O_22 
REMARK    9  A    between atoms: C_19  and  C_72 
REMARK   10  A    between atoms: C_20  and  O_23 
REMARK   11  A    between atoms: C_28  and  O_32 
REMARK   12  A    between atoms: C_30  and  O_33 
REMARK   13  A    between atoms: C_37  and  O_42 
REMARK   14  A    between atoms: C_39  and  O_43 
REMARK   15  A    between atoms: C_46  and  O_67 
REMARK   16  A    between atoms: C_48  and  O_65 
REMARK   17  A    between atoms: C_49  and  C_52 
REMARK   18  A    between atoms: C_50  and  O_66 
REMARK   19  A    between atoms: C_52  and  O_60 
REMARK   20  A    between atoms: C_54  and  O_60 
REMARK   21  A    between atoms: C_72  and  O_73 
ROOT
HETATM    1  C   UNK     0      -9.555   5.999 -22.682  0.00  0.00     0.058 A 
HETATM    2  C   UNK     0      -8.584   5.105 -23.107  0.00  0.00     0.060 A 
HETATM    3  C   UNK     0     -10.670   5.558 -21.992  0.00  0.00     0.102 A 
HETATM    4  C   UNK     0      -8.730   3.737 -22.835  0.00  0.00     0.127 A 
HETATM    5  C   UNK     0     -10.819   4.212 -21.719  0.00  0.00     0.135 A 
HETATM    6  C   UNK     0      -9.854   3.313 -22.138  0.00  0.00     0.137 A 
HETATM    7  C   UNK     0      -4.682   1.232 -24.185  0.00  0.00     0.114 A 
HETATM    8  C   UNK     0      -4.057   2.249 -24.902  0.00  0.00     0.030 A 
HETATM    9  C   UNK     0      -5.937   1.400 -23.622  0.00  0.00     0.134 A 
HETATM   10  C   UNK     0      -4.741   3.464 -25.038  0.00  0.00     0.059 A 
HETATM   11  C   UNK     0      -6.608   2.600 -23.760  0.00  0.00     0.116 A 
HETATM   12  C   UNK     0      -5.994   3.609 -24.470  0.00  0.00     0.329 A 
HETATM   13  O   UNK     0      -7.861   2.731 -23.206  0.00  0.00    -0.304 OA
HETATM   14  C   UNK     0      -4.246   4.649 -25.749  0.00  0.00     0.295 C 
HETATM   15  C   UNK     0       2.586   7.867 -28.812  0.00  0.00     0.026 A 
HETATM   16  C   UNK     0       1.274   8.190 -28.476  0.00  0.00     0.006 A 
HETATM   17  C   UNK     0       3.043   6.562 -28.812  0.00  0.00     0.111 A 
HETATM   18  C   UNK     0       0.410   7.136 -28.125  0.00  0.00     0.054 A 
HETATM   19  C   UNK     0       2.188   5.537 -28.465  0.00  0.00     0.100 A 
HETATM   20  C   UNK     0       0.881   5.830 -28.126  0.00  0.00     0.058 A 
HETATM   21  O   UNK     0       3.442   8.866 -29.161  0.00  0.00     0.000 OA
HETATM   22  C   UNK     0       1.772  10.406 -29.443  0.00  0.00     0.026 A 
HETATM   23  C   UNK     0       0.958   9.687 -28.569  0.00  0.00     0.006 A 
HETATM   24  C   UNK     0       1.636  11.773 -29.613  0.00  0.00     0.111 A 
HETATM   25  C   UNK     0      -0.020  10.400 -27.862  0.00  0.00     0.054 A 
HETATM   26  C   UNK     0       0.671  12.460 -28.905  0.00  0.00     0.100 A 
HETATM   27  C   UNK     0      -0.149  11.770 -28.036  0.00  0.00     0.058 A 
HETATM   28  C   UNK     0      -0.943   9.801 -26.911  0.00  0.00     0.294 C 
HETATM   29  O   UNK     0       2.732   9.747 -30.146  0.00  0.00     0.000 OA
HETATM   30  O   UNK     0      -0.549   9.489 -25.810  0.00  0.00    -0.259 OA
HETATM   31  C   UNK     0      -4.453   9.276 -26.289  0.00  0.00     0.302 C 
HETATM   32  C   UNK     0      -2.978   8.972 -26.208  0.00  0.00     0.220 C 
HETATM   33  O   UNK     0      -5.100   8.694 -25.149  0.00  0.00    -0.348 OA
HETATM   34  C   UNK     0      -2.822   7.493 -26.325  0.00  0.00     0.198 C 
HETATM   35  C   UNK     0      -4.923   7.276 -24.943  0.00  0.00     0.181 C 
HETATM   36  C   UNK     0      -3.414   6.866 -25.070  0.00  0.00     0.195 C 
HETATM   37  C   UNK     0      -5.412   6.911 -23.533  0.00  0.00     0.212 C 
HETATM   38  O   UNK     0      -1.444   7.175 -26.474  0.00  0.00    -0.306 OA
HETATM   39  O   UNK     0      -3.310   5.442 -25.144  0.00  0.00    -0.307 OA
HETATM   40  O   UNK     0      -2.253   9.608 -27.240  0.00  0.00    -0.304 OA
HETATM   41  O   UNK     0      -6.827   6.805 -23.425  0.00  0.00    -0.328 OA
HETATM   42  C   UNK     0      -1.007   7.289 -27.767  0.00  0.00     0.294 C 
HETATM   43  O   UNK     0      -1.816   7.490 -28.641  0.00  0.00    -0.259 OA
HETATM   44  O   UNK     0      -4.702   4.955 -26.826  0.00  0.00    -0.259 OA
HETATM   45  C   UNK     0      -7.435   5.658 -23.833  0.00  0.00     0.179 C 
HETATM   46  O   UNK     0      -6.996   5.061 -24.789  0.00  0.00    -0.383 OA
HETATM   47  H   UNK     0       4.397   8.647 -29.414  0.00  0.00     0.000 HD
HETATM   48  H   UNK     0       3.335  10.257 -30.779  0.00  0.00     0.000 HD
ENDROOT
BRANCH   3  49
HETATM   49  O   UNK     0     -11.617   6.445 -21.583  0.00  0.00    -0.358 OA
HETATM   50  H   UNK     0     -12.591   6.287 -21.812  0.00  0.00     0.217 HD
ENDBRANCH   3  49
BRANCH   5  51
HETATM   51  O   UNK     0     -11.914   3.772 -21.041  0.00  0.00    -0.356 OA
HETATM   52  H   UNK     0     -12.545   3.111 -21.476  0.00  0.00     0.218 HD
ENDBRANCH   5  51
BRANCH   6  53
HETATM   53  O   UNK     0     -10.011   1.989 -21.867  0.00  0.00    -0.356 OA
HETATM   54  H   UNK     0     -10.929   1.566 -21.919  0.00  0.00     0.218 HD
ENDBRANCH   6  53
BRANCH   9  55
HETATM   55  O   UNK     0      -6.513   0.373 -22.940  0.00  0.00    -0.356 OA
HETATM   56  H   UNK     0      -6.156  -0.568 -23.045  0.00  0.00     0.218 HD
ENDBRANCH   9  55
BRANCH   7  57
HETATM   57  O   UNK     0      -4.048   0.037 -24.047  0.00  0.00    -0.357 OA
HETATM   58  H   UNK     0      -3.407  -0.109 -23.277  0.00  0.00     0.217 HD
ENDBRANCH   7  57
BRANCH   8  59
HETATM   59  C   UNK     0      -2.698   1.894 -25.485  0.00  0.00     0.023 A 
HETATM   60  C   UNK     0      -1.605   2.329 -24.742  0.00  0.00     0.113 A 
HETATM   61  C   UNK     0      -0.307   2.087 -25.151  0.00  0.00     0.133 A 
HETATM   62  C   UNK     0      -0.073   1.392 -26.321  0.00  0.00     0.102 A 
HETATM   63  C   UNK     0      -1.144   0.956 -27.078  0.00  0.00     0.049 A 
HETATM   64  C   UNK     0      -2.450   1.201 -26.677  0.00  0.00    -0.018 A 
BRANCH  60  65
HETATM   65  O   UNK     0      -1.821   3.020 -23.590  0.00  0.00    -0.357 OA
HETATM   66  H   UNK     0      -2.736   3.011 -23.158  0.00  0.00     0.217 HD
ENDBRANCH  60  65
BRANCH  61  67
HETATM   67  O   UNK     0       0.737   2.534 -24.404  0.00  0.00    -0.356 OA
HETATM   68  H   UNK     0       0.741   2.395 -23.402  0.00  0.00     0.218 HD
ENDBRANCH  61  67
BRANCH  62  69
HETATM   69  O   UNK     0       1.201   1.145 -26.726  0.00  0.00    -0.358 OA
HETATM   70  H   UNK     0       1.603   0.226 -26.601  0.00  0.00     0.217 HD
ENDBRANCH  62  69
BRANCH  64  71
HETATM   71  C   UNK     0      -3.530   0.696 -27.592  0.00  0.00     0.203 C 
BRANCH  71  72
HETATM   72  O   UNK     0      -3.945  -0.585 -27.135  0.00  0.00    -0.396 OA
HETATM   73  H   UNK     0      -4.335  -0.689 -26.206  0.00  0.00     0.209 HD
ENDBRANCH  71  72
ENDBRANCH  64  71
ENDBRANCH   8  59
BRANCH  31  74
HETATM   74  O   UNK     0      -4.659  10.680 -26.294  0.00  0.00    -0.283 OA
BRANCH  74  75
HETATM   75  C   UNK     0      -5.562  11.185 -27.171  0.00  0.00     0.295 C 
HETATM   76  O   UNK     0      -5.397  12.294 -27.624  0.00  0.00    -0.259 OA
BRANCH  75  77
HETATM   77  C   UNK     0      -6.734  10.399 -27.579  0.00  0.00     0.045 A 
HETATM   78  C   UNK     0      -7.683  10.016 -26.643  0.00  0.00     0.057 A 
HETATM   79  C   UNK     0      -8.781   9.268 -27.039  0.00  0.00     0.102 A 
HETATM   80  C   UNK     0      -8.928   8.900 -28.367  0.00  0.00     0.132 A 
HETATM   81  C   UNK     0      -7.980   9.283 -29.302  0.00  0.00     0.102 A 
HETATM   82  C   UNK     0      -6.885  10.034 -28.908  0.00  0.00     0.057 A 
BRANCH  79  83
HETATM   83  O   UNK     0      -9.716   8.891 -26.124  0.00  0.00    -0.358 OA
HETATM   84  H   UNK     0     -10.540   9.459 -25.980  0.00  0.00     0.217 HD
ENDBRANCH  79  83
BRANCH  80  85
HETATM   85  O   UNK     0     -10.002   8.159 -28.754  0.00  0.00    -0.356 OA
HETATM   86  H   UNK     0     -10.424   7.503 -28.107  0.00  0.00     0.218 HD
ENDBRANCH  80  85
BRANCH  81  87
HETATM   87  O   UNK     0      -8.123   8.921 -30.604  0.00  0.00    -0.358 OA
HETATM   88  H   UNK     0      -7.833   9.552 -31.340  0.00  0.00     0.217 HD
ENDBRANCH  81  87
ENDBRANCH  75  77
ENDBRANCH  74  75
ENDBRANCH  31  74
BRANCH  19  89
HETATM   89  O   UNK     0       2.630   4.251 -28.465  0.00  0.00    -0.358 OA
HETATM   90  H   UNK     0       2.550   3.687 -29.302  0.00  0.00     0.217 HD
ENDBRANCH  19  89
BRANCH  26  91
HETATM   91  O   UNK     0       0.534  13.805 -29.059  0.00  0.00    -0.358 OA
HETATM   92  H   UNK     0      -0.388  14.213 -29.140  0.00  0.00     0.217 HD
ENDBRANCH  26  91
BRANCH  17  93
HETATM   93  O   UNK     0       4.331   6.289 -29.156  0.00  0.00    -0.357 OA
HETATM   94  H   UNK     0       4.914   7.015 -29.553  0.00  0.00     0.217 HD
ENDBRANCH  17  93
BRANCH  24  95
HETATM   95  O   UNK     0       2.455  12.441 -30.470  0.00  0.00    -0.357 OA
HETATM   96  H   UNK     0       2.949  11.935 -31.194  0.00  0.00     0.217 HD
ENDBRANCH  24  95
TORSDOF 21
