REMARK VINA RESULT:      -7.2     19.784     23.894
REMARK  21 active torsions:
REMARK  status: ('A' for Active; 'I' for Inactive)
REMARK    1  A    between atoms: C_3  and  O_78 
REMARK    2  A    between atoms: C_5  and  O_77 
REMARK    3  A    between atoms: C_6  and  O_76 
REMARK    4  A    between atoms: C_7  and  O_15 
REMARK    5  A    between atoms: C_8  and  C_17 
REMARK    6  A    between atoms: C_9  and  O_13 
REMARK    7  A    between atoms: C_16  and  O_24 
REMARK    8  A    between atoms: C_18  and  O_22 
REMARK    9  A    between atoms: C_19  and  C_72 
REMARK   10  A    between atoms: C_20  and  O_23 
REMARK   11  A    between atoms: C_28  and  O_32 
REMARK   12  A    between atoms: C_30  and  O_33 
REMARK   13  A    between atoms: C_37  and  O_42 
REMARK   14  A    between atoms: C_39  and  O_43 
REMARK   15  A    between atoms: C_46  and  O_67 
REMARK   16  A    between atoms: C_48  and  O_65 
REMARK   17  A    between atoms: C_49  and  C_52 
REMARK   18  A    between atoms: C_50  and  O_66 
REMARK   19  A    between atoms: C_52  and  O_60 
REMARK   20  A    between atoms: C_54  and  O_60 
REMARK   21  A    between atoms: C_72  and  O_73 
ROOT
HETATM    1  C   UNK     0       0.090 -16.852 -38.560  0.00  0.00     0.058 A 
HETATM    2  C   UNK     0       0.746 -17.063 -37.356  0.00  0.00     0.060 A 
HETATM    3  C   UNK     0       0.473 -15.826 -39.405  0.00  0.00     0.102 A 
HETATM    4  C   UNK     0       1.811 -16.229 -36.988  0.00  0.00     0.127 A 
HETATM    5  C   UNK     0       1.523 -15.002 -39.049  0.00  0.00     0.135 A 
HETATM    6  C   UNK     0       2.184 -15.206 -37.850  0.00  0.00     0.137 A 
HETATM    7  C   UNK     0       3.982 -17.865 -32.853  0.00  0.00     0.114 A 
HETATM    8  C   UNK     0       3.025 -18.812 -32.496  0.00  0.00     0.030 A 
HETATM    9  C   UNK     0       3.819 -17.043 -33.958  0.00  0.00     0.134 A 
HETATM   10  C   UNK     0       1.880 -18.913 -33.296  0.00  0.00     0.059 A 
HETATM   11  C   UNK     0       2.687 -17.146 -34.743  0.00  0.00     0.116 A 
HETATM   12  C   UNK     0       1.737 -18.081 -34.392  0.00  0.00     0.329 A 
HETATM   13  O   UNK     0       2.545 -16.304 -35.821  0.00  0.00    -0.304 OA
HETATM   14  C   UNK     0       0.770 -19.850 -33.085  0.00  0.00     0.295 C 
HETATM   15  C   UNK     0      -1.175 -26.634 -29.010  0.00  0.00     0.026 A 
HETATM   16  C   UNK     0      -1.610 -25.812 -30.047  0.00  0.00     0.006 A 
HETATM   17  C   UNK     0      -0.130 -26.275 -28.178  0.00  0.00     0.111 A 
HETATM   18  C   UNK     0      -0.944 -24.586 -30.232  0.00  0.00     0.054 A 
HETATM   19  C   UNK     0       0.515 -25.071 -28.370  0.00  0.00     0.100 A 
HETATM   20  C   UNK     0       0.105 -24.237 -29.392  0.00  0.00     0.058 A 
HETATM   21  O   UNK     0      -1.803 -27.824 -28.804  0.00  0.00     0.000 OA
HETATM   22  C   UNK     0      -3.591 -27.282 -30.127  0.00  0.00     0.026 A 
HETATM   23  C   UNK     0      -2.798 -26.377 -30.831  0.00  0.00     0.006 A 
HETATM   24  C   UNK     0      -4.682 -27.906 -30.707  0.00  0.00     0.111 A 
HETATM   25  C   UNK     0      -3.149 -26.110 -32.162  0.00  0.00     0.054 A 
HETATM   26  C   UNK     0      -5.011 -27.635 -32.020  0.00  0.00     0.100 A 
HETATM   27  C   UNK     0      -4.243 -26.740 -32.737  0.00  0.00     0.058 A 
HETATM   28  C   UNK     0      -2.425 -25.197 -33.032  0.00  0.00     0.294 C 
HETATM   29  O   UNK     0      -3.280 -27.565 -28.834  0.00  0.00     0.000 OA
HETATM   30  O   UNK     0      -1.366 -25.538 -33.509  0.00  0.00    -0.259 OA
HETATM   31  C   UNK     0      -2.818 -22.172 -34.951  0.00  0.00     0.302 C 
HETATM   32  C   UNK     0      -2.071 -23.211 -34.152  0.00  0.00     0.220 C 
HETATM   33  O   UNK     0      -1.891 -21.526 -35.834  0.00  0.00    -0.348 OA
HETATM   34  C   UNK     0      -1.083 -22.490 -33.298  0.00  0.00     0.198 C 
HETATM   35  C   UNK     0      -0.728 -20.914 -35.238  0.00  0.00     0.181 C 
HETATM   36  C   UNK     0      -0.033 -21.884 -34.219  0.00  0.00     0.195 C 
HETATM   37  C   UNK     0       0.277 -20.565 -36.346  0.00  0.00     0.212 C 
HETATM   38  O   UNK     0      -0.508 -23.401 -32.371  0.00  0.00    -0.306 OA
HETATM   39  O   UNK     0       0.928 -21.158 -33.448  0.00  0.00    -0.307 OA
HETATM   40  O   UNK     0      -2.939 -23.970 -33.335  0.00  0.00    -0.304 OA
HETATM   41  O   UNK     0      -0.046 -19.379 -37.063  0.00  0.00    -0.328 OA
HETATM   42  C   UNK     0      -1.283 -23.588 -31.257  0.00  0.00     0.294 C 
HETATM   43  O   UNK     0      -2.256 -22.889 -31.098  0.00  0.00    -0.259 OA
HETATM   44  O   UNK     0      -0.291 -19.460 -32.654  0.00  0.00    -0.259 OA
HETATM   45  C   UNK     0       0.273 -18.173 -36.520  0.00  0.00     0.179 C 
HETATM   46  O   UNK     0       0.205 -18.024 -35.321  0.00  0.00    -0.383 OA
HETATM   47  H   UNK     0      -1.503 -28.430 -28.051  0.00  0.00     0.000 HD
HETATM   48  H   UNK     0      -3.843 -28.226 -28.312  0.00  0.00     0.000 HD
ENDROOT
BRANCH   3  49
HETATM   49  O   UNK     0      -0.180 -15.628 -40.581  0.00  0.00    -0.358 OA
HETATM   50  H   UNK     0      -1.163 -15.384 -40.579  0.00  0.00     0.217 HD
ENDBRANCH   3  49
BRANCH   5  51
HETATM   51  O   UNK     0       1.904 -13.990 -39.875  0.00  0.00    -0.356 OA
HETATM   52  H   UNK     0       1.207 -13.381 -40.284  0.00  0.00     0.218 HD
ENDBRANCH   5  51
BRANCH   6  53
HETATM   53  O   UNK     0       3.215 -14.387 -37.507  0.00  0.00    -0.356 OA
HETATM   54  H   UNK     0       3.196 -13.410 -37.772  0.00  0.00     0.218 HD
ENDBRANCH   6  53
BRANCH   9  55
HETATM   55  O   UNK     0       4.776 -16.124 -34.261  0.00  0.00    -0.356 OA
HETATM   56  H   UNK     0       5.560 -16.384 -34.846  0.00  0.00     0.218 HD
ENDBRANCH   9  55
BRANCH   7  57
HETATM   57  O   UNK     0       5.099 -17.735 -32.089  0.00  0.00    -0.357 OA
HETATM   58  H   UNK     0       5.264 -16.877 -31.577  0.00  0.00     0.217 HD
ENDBRANCH   7  57
BRANCH   8  59
HETATM   59  C   UNK     0       3.337 -19.610 -31.240  0.00  0.00     0.023 A 
HETATM   60  C   UNK     0       2.817 -19.083 -30.062  0.00  0.00     0.113 A 
HETATM   61  C   UNK     0       3.025 -19.695 -28.839  0.00  0.00     0.133 A 
HETATM   62  C   UNK     0       3.761 -20.860 -28.771  0.00  0.00     0.102 A 
HETATM   63  C   UNK     0       4.293 -21.398 -29.928  0.00  0.00     0.049 A 
HETATM   64  C   UNK     0       4.094 -20.785 -31.157  0.00  0.00    -0.018 A 
BRANCH  60  65
HETATM   65  O   UNK     0       2.094 -17.931 -30.115  0.00  0.00    -0.357 OA
HETATM   66  H   UNK     0       1.280 -17.817 -29.525  0.00  0.00     0.217 HD
ENDBRANCH  60  65
BRANCH  61  67
HETATM   67  O   UNK     0       2.508 -19.148 -27.707  0.00  0.00    -0.356 OA
HETATM   68  H   UNK     0       1.716 -18.520 -27.763  0.00  0.00     0.218 HD
ENDBRANCH  61  67
BRANCH  62  69
HETATM   69  O   UNK     0       3.965 -21.470 -27.572  0.00  0.00    -0.358 OA
HETATM   70  H   UNK     0       4.835 -21.954 -27.392  0.00  0.00     0.217 HD
ENDBRANCH  62  69
BRANCH  64  71
HETATM   71  C   UNK     0       4.737 -21.452 -32.341  0.00  0.00     0.203 C 
BRANCH  71  72
HETATM   72  O   UNK     0       3.741 -22.181 -33.045  0.00  0.00    -0.396 OA
HETATM   73  H   UNK     0       4.011 -22.885 -33.720  0.00  0.00     0.209 HD
ENDBRANCH  71  72
ENDBRANCH  64  71
ENDBRANCH   8  59
BRANCH  31  74
HETATM   74  O   UNK     0      -3.850 -22.789 -35.704  0.00  0.00    -0.283 OA
BRANCH  74  75
HETATM   75  C   UNK     0      -5.134 -22.527 -35.354  0.00  0.00     0.295 C 
HETATM   76  O   UNK     0      -5.710 -21.593 -35.861  0.00  0.00    -0.259 OA
BRANCH  75  77
HETATM   77  C   UNK     0      -5.832 -23.367 -34.372  0.00  0.00     0.045 A 
HETATM   78  C   UNK     0      -6.649 -24.405 -34.791  0.00  0.00     0.057 A 
HETATM   79  C   UNK     0      -7.308 -25.188 -33.855  0.00  0.00     0.102 A 
HETATM   80  C   UNK     0      -7.152 -24.930 -32.502  0.00  0.00     0.132 A 
HETATM   81  C   UNK     0      -6.334 -23.893 -32.083  0.00  0.00     0.102 A 
HETATM   82  C   UNK     0      -5.673 -23.114 -33.018  0.00  0.00     0.057 A 
BRANCH  79  83
HETATM   83  O   UNK     0      -8.111 -26.209 -34.262  0.00  0.00    -0.358 OA
HETATM   84  H   UNK     0      -8.972 -26.010 -34.754  0.00  0.00     0.217 HD
ENDBRANCH  79  83
BRANCH  80  85
HETATM   85  O   UNK     0      -7.804 -25.693 -31.584  0.00  0.00    -0.356 OA
HETATM   86  H   UNK     0      -7.965 -26.677 -31.765  0.00  0.00     0.218 HD
ENDBRANCH  80  85
BRANCH  81  87
HETATM   87  O   UNK     0      -6.183 -23.639 -30.757  0.00  0.00    -0.358 OA
HETATM   88  H   UNK     0      -5.796 -24.347 -30.147  0.00  0.00     0.217 HD
ENDBRANCH  81  87
ENDBRANCH  75  77
ENDBRANCH  74  75
ENDBRANCH  31  74
BRANCH  19  89
HETATM   89  O   UNK     0       1.541 -24.711 -27.554  0.00  0.00    -0.358 OA
HETATM   90  H   UNK     0       2.035 -23.841 -27.715  0.00  0.00     0.217 HD
ENDBRANCH  19  89
BRANCH  26  91
HETATM   91  O   UNK     0      -6.076 -28.248 -32.601  0.00  0.00    -0.358 OA
HETATM   92  H   UNK     0      -7.015 -27.938 -32.390  0.00  0.00     0.217 HD
ENDBRANCH  26  91
BRANCH  17  93
HETATM   93  O   UNK     0       0.258 -27.103 -27.171  0.00  0.00    -0.357 OA
HETATM   94  H   UNK     0       0.957 -27.816 -27.342  0.00  0.00     0.217 HD
ENDBRANCH  17  93
BRANCH  24  95
HETATM   95  O   UNK     0      -5.427 -28.789 -29.989  0.00  0.00    -0.357 OA
HETATM   96  H   UNK     0      -5.070 -29.160 -29.117  0.00  0.00     0.217 HD
ENDBRANCH  24  95
TORSDOF 21
