REMARK VINA RESULT:      -7.4      3.060      8.269
REMARK  21 active torsions:
REMARK  status: ('A' for Active; 'I' for Inactive)
REMARK    1  A    between atoms: C_3  and  O_78 
REMARK    2  A    between atoms: C_5  and  O_77 
REMARK    3  A    between atoms: C_6  and  O_76 
REMARK    4  A    between atoms: C_7  and  O_15 
REMARK    5  A    between atoms: C_8  and  C_17 
REMARK    6  A    between atoms: C_9  and  O_13 
REMARK    7  A    between atoms: C_16  and  O_24 
REMARK    8  A    between atoms: C_18  and  O_22 
REMARK    9  A    between atoms: C_19  and  C_72 
REMARK   10  A    between atoms: C_20  and  O_23 
REMARK   11  A    between atoms: C_28  and  O_32 
REMARK   12  A    between atoms: C_30  and  O_33 
REMARK   13  A    between atoms: C_37  and  O_42 
REMARK   14  A    between atoms: C_39  and  O_43 
REMARK   15  A    between atoms: C_46  and  O_67 
REMARK   16  A    between atoms: C_48  and  O_65 
REMARK   17  A    between atoms: C_49  and  C_52 
REMARK   18  A    between atoms: C_50  and  O_66 
REMARK   19  A    between atoms: C_52  and  O_60 
REMARK   20  A    between atoms: C_54  and  O_60 
REMARK   21  A    between atoms: C_72  and  O_73 
ROOT
HETATM    1  C   UNK     0       7.019   0.565 -35.523  0.00  0.00     0.058 A 
HETATM    2  C   UNK     0       5.665   0.264 -35.564  0.00  0.00     0.060 A 
HETATM    3  C   UNK     0       7.775   0.586 -36.681  0.00  0.00     0.102 A 
HETATM    4  C   UNK     0       5.053  -0.022 -36.793  0.00  0.00     0.127 A 
HETATM    5  C   UNK     0       7.178   0.306 -37.894  0.00  0.00     0.135 A 
HETATM    6  C   UNK     0       5.827   0.006 -37.945  0.00  0.00     0.137 A 
HETATM    7  C   UNK     0       0.158  -0.499 -36.251  0.00  0.00     0.114 A 
HETATM    8  C   UNK     0       0.121  -0.532 -34.860  0.00  0.00     0.030 A 
HETATM    9  C   UNK     0       1.354  -0.433 -36.949  0.00  0.00     0.134 A 
HETATM   10  C   UNK     0       1.343  -0.496 -34.176  0.00  0.00     0.059 A 
HETATM   11  C   UNK     0       2.557  -0.399 -36.270  0.00  0.00     0.116 A 
HETATM   12  C   UNK     0       2.524  -0.434 -34.892  0.00  0.00     0.329 A 
HETATM   13  O   UNK     0       3.727  -0.354 -36.990  0.00  0.00    -0.304 OA
HETATM   14  C   UNK     0       1.507  -0.516 -32.718  0.00  0.00     0.295 C 
HETATM   15  C   UNK     0      -2.678   0.536 -25.804  0.00  0.00     0.026 A 
HETATM   16  C   UNK     0      -1.380   0.436 -26.299  0.00  0.00     0.006 A 
HETATM   17  C   UNK     0      -3.784   0.266 -26.589  0.00  0.00     0.111 A 
HETATM   18  C   UNK     0      -1.220   0.052 -27.643  0.00  0.00     0.054 A 
HETATM   19  C   UNK     0      -3.615  -0.109 -27.905  0.00  0.00     0.100 A 
HETATM   20  C   UNK     0      -2.338  -0.214 -28.422  0.00  0.00     0.058 A 
HETATM   21  O   UNK     0      -2.864   0.900 -24.506  0.00  0.00     0.000 OA
HETATM   22  C   UNK     0      -0.674   0.547 -23.936  0.00  0.00     0.026 A 
HETATM   23  C   UNK     0      -0.294   0.746 -25.262  0.00  0.00     0.006 A 
HETATM   24  C   UNK     0       0.181   0.814 -22.882  0.00  0.00     0.111 A 
HETATM   25  C   UNK     0       1.002   1.225 -25.499  0.00  0.00     0.054 A 
HETATM   26  C   UNK     0       1.452   1.290 -23.132  0.00  0.00     0.100 A 
HETATM   27  C   UNK     0       1.853   1.492 -24.437  0.00  0.00     0.058 A 
HETATM   28  C   UNK     0       1.549   1.489 -26.820  0.00  0.00     0.294 C 
HETATM   29  O   UNK     0      -1.924   0.083 -23.669  0.00  0.00     0.000 OA
HETATM   30  O   UNK     0       1.204   2.480 -27.424  0.00  0.00    -0.259 OA
HETATM   31  C   UNK     0       4.202   0.513 -29.054  0.00  0.00     0.302 C 
HETATM   32  C   UNK     0       2.839   1.040 -28.679  0.00  0.00     0.220 C 
HETATM   33  O   UNK     0       4.559   1.050 -30.335  0.00  0.00    -0.348 OA
HETATM   34  C   UNK     0       1.865   0.495 -29.668  0.00  0.00     0.198 C 
HETATM   35  C   UNK     0       3.647   0.813 -31.428  0.00  0.00     0.181 C 
HETATM   36  C   UNK     0       2.168   1.137 -31.016  0.00  0.00     0.195 C 
HETATM   37  C   UNK     0       4.035   1.716 -32.608  0.00  0.00     0.212 C 
HETATM   38  O   UNK     0       0.542   0.782 -29.233  0.00  0.00    -0.306 OA
HETATM   39  O   UNK     0       1.273   0.629 -32.008  0.00  0.00    -0.307 OA
HETATM   40  O   UNK     0       2.463   0.643 -27.376  0.00  0.00    -0.304 OA
HETATM   41  O   UNK     0       5.144   1.235 -33.359  0.00  0.00    -0.328 OA
HETATM   42  C   UNK     0       0.071  -0.126 -28.322  0.00  0.00     0.294 C 
HETATM   43  O   UNK     0       0.724  -1.117 -28.095  0.00  0.00    -0.259 OA
HETATM   44  O   UNK     0       1.902  -1.513 -32.156  0.00  0.00    -0.259 OA
HETATM   45  C   UNK     0       4.939   0.264 -34.289  0.00  0.00     0.179 C 
HETATM   46  O   UNK     0       4.113  -0.596 -34.079  0.00  0.00    -0.383 OA
HETATM   47  H   UNK     0      -3.800   0.971 -24.130  0.00  0.00     0.000 HD
HETATM   48  H   UNK     0      -2.217  -0.060 -22.710  0.00  0.00     0.000 HD
ENDROOT
BRANCH   3  49
HETATM   49  O   UNK     0       9.102   0.879 -36.626  0.00  0.00    -0.358 OA
HETATM   50  H   UNK     0       9.485   1.346 -35.814  0.00  0.00     0.217 HD
ENDBRANCH   3  49
BRANCH   5  51
HETATM   51  O   UNK     0       7.916   0.324 -39.037  0.00  0.00    -0.356 OA
HETATM   52  H   UNK     0       7.460   0.231 -39.936  0.00  0.00     0.218 HD
ENDBRANCH   5  51
BRANCH   6  53
HETATM   53  O   UNK     0       5.248  -0.270 -39.145  0.00  0.00    -0.356 OA
HETATM   54  H   UNK     0       5.598  -1.032 -39.713  0.00  0.00     0.218 HD
ENDBRANCH   6  53
BRANCH   9  55
HETATM   55  O   UNK     0       1.340  -0.414 -38.310  0.00  0.00    -0.356 OA
HETATM   56  H   UNK     0       0.565   0.010 -38.803  0.00  0.00     0.218 HD
ENDBRANCH   9  55
BRANCH   7  57
HETATM   57  O   UNK     0      -1.012  -0.545 -36.944  0.00  0.00    -0.357 OA
HETATM   58  H   UNK     0      -1.544   0.303 -37.093  0.00  0.00     0.217 HD
ENDBRANCH   7  57
BRANCH   8  59
HETATM   59  C   UNK     0      -1.267  -0.639 -34.248  0.00  0.00     0.023 A 
HETATM   60  C   UNK     0      -1.825  -1.913 -34.269  0.00  0.00     0.113 A 
HETATM   61  C   UNK     0      -3.085  -2.162 -33.756  0.00  0.00     0.133 A 
HETATM   62  C   UNK     0      -3.817  -1.132 -33.202  0.00  0.00     0.102 A 
HETATM   63  C   UNK     0      -3.285   0.144 -33.177  0.00  0.00     0.049 A 
HETATM   64  C   UNK     0      -2.024   0.402 -33.696  0.00  0.00    -0.018 A 
BRANCH  60  65
HETATM   65  O   UNK     0      -1.116  -2.937 -34.817  0.00  0.00    -0.357 OA
HETATM   66  H   UNK     0      -0.214  -2.759 -35.238  0.00  0.00     0.217 HD
ENDBRANCH  60  65
BRANCH  61  67
HETATM   67  O   UNK     0      -3.602  -3.418 -33.799  0.00  0.00    -0.356 OA
HETATM   68  H   UNK     0      -3.005  -4.219 -33.636  0.00  0.00     0.218 HD
ENDBRANCH  61  67
BRANCH  62  69
HETATM   69  O   UNK     0      -5.055  -1.370 -32.691  0.00  0.00    -0.358 OA
HETATM   70  H   UNK     0      -5.826  -0.759 -32.925  0.00  0.00     0.217 HD
ENDBRANCH  62  69
BRANCH  64  71
HETATM   71  C   UNK     0      -1.561   1.831 -33.630  0.00  0.00     0.203 C 
BRANCH  71  72
HETATM   72  O   UNK     0      -1.098   2.094 -32.312  0.00  0.00    -0.396 OA
HETATM   73  H   UNK     0      -0.184   1.769 -32.022  0.00  0.00     0.209 HD
ENDBRANCH  71  72
ENDBRANCH  64  71
ENDBRANCH   8  59
BRANCH  31  74
HETATM   74  O   UNK     0       5.159   0.908 -28.083  0.00  0.00    -0.283 OA
BRANCH  74  75
HETATM   75  C   UNK     0       5.835  -0.067 -27.426  0.00  0.00     0.295 C 
HETATM   76  O   UNK     0       6.965  -0.338 -27.760  0.00  0.00    -0.259 OA
BRANCH  75  77
HETATM   77  C   UNK     0       5.212  -0.792 -26.310  0.00  0.00     0.045 A 
HETATM   78  C   UNK     0       4.649  -2.043 -26.512  0.00  0.00     0.057 A 
HETATM   79  C   UNK     0       4.058  -2.714 -25.453  0.00  0.00     0.102 A 
HETATM   80  C   UNK     0       4.026  -2.135 -24.195  0.00  0.00     0.132 A 
HETATM   81  C   UNK     0       4.589  -0.885 -23.993  0.00  0.00     0.102 A 
HETATM   82  C   UNK     0       5.183  -0.215 -25.050  0.00  0.00     0.057 A 
BRANCH  79  83
HETATM   83  O   UNK     0       3.507  -3.944 -25.647  0.00  0.00    -0.358 OA
HETATM   84  H   UNK     0       2.513  -4.031 -25.818  0.00  0.00     0.217 HD
ENDBRANCH  79  83
BRANCH  80  85
HETATM   85  O   UNK     0       3.440  -2.791 -23.157  0.00  0.00    -0.356 OA
HETATM   86  H   UNK     0       2.844  -3.590 -23.336  0.00  0.00     0.218 HD
ENDBRANCH  80  85
BRANCH  81  87
HETATM   87  O   UNK     0       4.556  -0.315 -22.760  0.00  0.00    -0.358 OA
HETATM   88  H   UNK     0       5.336  -0.432 -22.126  0.00  0.00     0.217 HD
ENDBRANCH  81  87
ENDBRANCH  75  77
ENDBRANCH  74  75
ENDBRANCH  31  74
BRANCH  19  89
HETATM   89  O   UNK     0      -4.699  -0.378 -28.682  0.00  0.00    -0.358 OA
HETATM   90  H   UNK     0      -4.677  -0.168 -29.672  0.00  0.00     0.217 HD
ENDBRANCH  19  89
BRANCH  26  91
HETATM   91  O   UNK     0       2.298   1.563 -22.102  0.00  0.00    -0.358 OA
HETATM   92  H   UNK     0       2.195   2.420 -21.576  0.00  0.00     0.217 HD
ENDBRANCH  26  91
BRANCH  17  93
HETATM   93  O   UNK     0      -5.036   0.366 -26.064  0.00  0.00    -0.357 OA
HETATM   94  H   UNK     0      -5.782  -0.219 -26.419  0.00  0.00     0.217 HD
ENDBRANCH  17  93
BRANCH  24  95
HETATM   95  O   UNK     0      -0.229   0.614 -21.599  0.00  0.00    -0.357 OA
HETATM   96  H   UNK     0      -0.918  -0.098 -21.394  0.00  0.00     0.217 HD
ENDBRANCH  24  95
TORSDOF 21
