REMARK VINA RESULT:      -7.3      2.987      9.234
REMARK  21 active torsions:
REMARK  status: ('A' for Active; 'I' for Inactive)
REMARK    1  A    between atoms: C_3  and  O_78 
REMARK    2  A    between atoms: C_5  and  O_77 
REMARK    3  A    between atoms: C_6  and  O_76 
REMARK    4  A    between atoms: C_7  and  O_15 
REMARK    5  A    between atoms: C_8  and  C_17 
REMARK    6  A    between atoms: C_9  and  O_13 
REMARK    7  A    between atoms: C_16  and  O_24 
REMARK    8  A    between atoms: C_18  and  O_22 
REMARK    9  A    between atoms: C_19  and  C_72 
REMARK   10  A    between atoms: C_20  and  O_23 
REMARK   11  A    between atoms: C_28  and  O_32 
REMARK   12  A    between atoms: C_30  and  O_33 
REMARK   13  A    between atoms: C_37  and  O_42 
REMARK   14  A    between atoms: C_39  and  O_43 
REMARK   15  A    between atoms: C_46  and  O_67 
REMARK   16  A    between atoms: C_48  and  O_65 
REMARK   17  A    between atoms: C_49  and  C_52 
REMARK   18  A    between atoms: C_50  and  O_66 
REMARK   19  A    between atoms: C_52  and  O_60 
REMARK   20  A    between atoms: C_54  and  O_60 
REMARK   21  A    between atoms: C_72  and  O_73 
ROOT
HETATM    1  C   UNK     0       8.048  -5.525 -31.428  0.00  0.00     0.058 A 
HETATM    2  C   UNK     0       6.923  -4.754 -31.682  0.00  0.00     0.060 A 
HETATM    3  C   UNK     0       8.766  -6.093 -32.464  0.00  0.00     0.102 A 
HETATM    4  C   UNK     0       6.505  -4.547 -33.004  0.00  0.00     0.127 A 
HETATM    5  C   UNK     0       8.361  -5.891 -33.769  0.00  0.00     0.135 A 
HETATM    6  C   UNK     0       7.240  -5.123 -34.033  0.00  0.00     0.137 A 
HETATM    7  C   UNK     0       2.760  -1.318 -33.182  0.00  0.00     0.114 A 
HETATM    8  C   UNK     0       2.481  -1.272 -31.819  0.00  0.00     0.030 A 
HETATM    9  C   UNK     0       3.732  -2.160 -33.702  0.00  0.00     0.134 A 
HETATM   10  C   UNK     0       3.222  -2.109 -30.975  0.00  0.00     0.059 A 
HETATM   11  C   UNK     0       4.458  -2.985 -32.865  0.00  0.00     0.116 A 
HETATM   12  C   UNK     0       4.185  -2.944 -31.514  0.00  0.00     0.329 A 
HETATM   13  O   UNK     0       5.402  -3.823 -33.411  0.00  0.00    -0.304 OA
HETATM   14  C   UNK     0       3.078  -2.197 -29.517  0.00  0.00     0.295 C 
HETATM   15  C   UNK     0      -0.140   1.769 -23.167  0.00  0.00     0.026 A 
HETATM   16  C   UNK     0       0.749   0.746 -23.488  0.00  0.00     0.006 A 
HETATM   17  C   UNK     0      -0.953   2.359 -24.117  0.00  0.00     0.111 A 
HETATM   18  C   UNK     0       0.803   0.324 -24.829  0.00  0.00     0.054 A 
HETATM   19  C   UNK     0      -0.891   1.937 -25.429  0.00  0.00     0.100 A 
HETATM   20  C   UNK     0      -0.016   0.925 -25.775  0.00  0.00     0.058 A 
HETATM   21  O   UNK     0      -0.218   2.195 -21.877  0.00  0.00     0.000 OA
HETATM   22  C   UNK     0       0.917   0.385 -21.052  0.00  0.00     0.026 A 
HETATM   23  C   UNK     0       1.535   0.207 -22.288  0.00  0.00     0.006 A 
HETATM   24  C   UNK     0       1.514  -0.017 -19.870  0.00  0.00     0.111 A 
HETATM   25  C   UNK     0       2.796  -0.408 -22.298  0.00  0.00     0.054 A 
HETATM   26  C   UNK     0       2.757  -0.615 -19.897  0.00  0.00     0.100 A 
HETATM   27  C   UNK     0       3.388  -0.807 -21.109  0.00  0.00     0.058 A 
HETATM   28  C   UNK     0       3.573  -0.662 -23.500  0.00  0.00     0.294 C 
HETATM   29  O   UNK     0      -0.306   0.978 -21.004  0.00  0.00     0.000 OA
HETATM   30  O   UNK     0       4.150   0.252 -24.045  0.00  0.00    -0.259 OA
HETATM   31  C   UNK     0       5.037  -3.324 -25.438  0.00  0.00     0.302 C 
HETATM   32  C   UNK     0       4.431  -1.963 -25.201  0.00  0.00     0.220 C 
HETATM   33  O   UNK     0       5.875  -3.251 -26.599  0.00  0.00    -0.348 OA
HETATM   34  C   UNK     0       3.543  -1.664 -26.363  0.00  0.00     0.198 C 
HETATM   35  C   UNK     0       5.268  -2.788 -27.824  0.00  0.00     0.181 C 
HETATM   36  C   UNK     0       4.431  -1.482 -27.587  0.00  0.00     0.195 C 
HETATM   37  C   UNK     0       6.373  -2.482 -28.846  0.00  0.00     0.212 C 
HETATM   38  O   UNK     0       2.783  -0.496 -26.086  0.00  0.00    -0.306 OA
HETATM   39  O   UNK     0       3.624  -1.216 -28.737  0.00  0.00    -0.307 OA
HETATM   40  O   UNK     0       3.677  -1.924 -24.007  0.00  0.00    -0.304 OA
HETATM   41  O   UNK     0       6.903  -3.639 -29.483  0.00  0.00    -0.328 OA
HETATM   42  C   UNK     0       1.662  -0.753 -25.340  0.00  0.00     0.294 C 
HETATM   43  O   UNK     0       1.355  -1.902 -25.126  0.00  0.00    -0.259 OA
HETATM   44  O   UNK     0       2.539  -3.153 -29.008  0.00  0.00    -0.259 OA
HETATM   45  C   UNK     0       6.220  -4.190 -30.524  0.00  0.00     0.179 C 
HETATM   46  O   UNK     0       5.010  -4.179 -30.513  0.00  0.00    -0.383 OA
HETATM   47  H   UNK     0      -0.863   2.933 -21.626  0.00  0.00     0.000 HD
HETATM   48  H   UNK     0      -0.765   1.120 -20.112  0.00  0.00     0.000 HD
ENDROOT
BRANCH   3  49
HETATM   49  O   UNK     0       9.866  -6.849 -32.201  0.00  0.00    -0.358 OA
HETATM   50  H   UNK     0       9.773  -7.715 -31.685  0.00  0.00     0.217 HD
ENDBRANCH   3  49
BRANCH   5  51
HETATM   51  O   UNK     0       9.062  -6.449 -34.794  0.00  0.00    -0.356 OA
HETATM   52  H   UNK     0      10.048  -6.249 -34.899  0.00  0.00     0.218 HD
ENDBRANCH   5  51
BRANCH   6  53
HETATM   53  O   UNK     0       6.847  -4.932 -35.321  0.00  0.00    -0.356 OA
HETATM   54  H   UNK     0       7.211  -5.527 -36.055  0.00  0.00     0.218 HD
ENDBRANCH   6  53
BRANCH   9  55
HETATM   55  O   UNK     0       3.961  -2.179 -35.043  0.00  0.00    -0.356 OA
HETATM   56  H   UNK     0       3.904  -1.322 -35.578  0.00  0.00     0.218 HD
ENDBRANCH   9  55
BRANCH   7  57
HETATM   57  O   UNK     0       2.049  -0.526 -34.029  0.00  0.00    -0.357 OA
HETATM   58  H   UNK     0       2.262  -0.525 -35.019  0.00  0.00     0.217 HD
ENDBRANCH   7  57
BRANCH   8  59
HETATM   59  C   UNK     0       1.365  -0.322 -31.415  0.00  0.00     0.023 A 
HETATM   60  C   UNK     0       0.100  -0.896 -31.343  0.00  0.00     0.113 A 
HETATM   61  C   UNK     0      -1.015  -0.155 -30.996  0.00  0.00     0.133 A 
HETATM   62  C   UNK     0      -0.884   1.189 -30.707  0.00  0.00     0.102 A 
HETATM   63  C   UNK     0       0.363   1.781 -30.779  0.00  0.00     0.049 A 
HETATM   64  C   UNK     0       1.485   1.044 -31.133  0.00  0.00    -0.018 A 
BRANCH  60  65
HETATM   65  O   UNK     0      -0.045  -2.218 -31.630  0.00  0.00    -0.357 OA
HETATM   66  H   UNK     0      -0.880  -2.711 -31.342  0.00  0.00     0.217 HD
ENDBRANCH  60  65
BRANCH  61  67
HETATM   67  O   UNK     0      -2.238  -0.746 -30.943  0.00  0.00    -0.356 OA
HETATM   68  H   UNK     0      -3.065  -0.224 -31.200  0.00  0.00     0.218 HD
ENDBRANCH  61  67
BRANCH  62  69
HETATM   69  O   UNK     0      -1.975   1.923 -30.361  0.00  0.00    -0.358 OA
HETATM   70  H   UNK     0      -2.763   1.477 -29.911  0.00  0.00     0.217 HD
ENDBRANCH  62  69
BRANCH  64  71
HETATM   71  C   UNK     0       2.782   1.802 -31.196  0.00  0.00     0.203 C 
BRANCH  71  72
HETATM   72  O   UNK     0       3.509   1.552 -30.001  0.00  0.00    -0.396 OA
HETATM   73  H   UNK     0       3.152   1.884 -29.113  0.00  0.00     0.209 HD
ENDBRANCH  71  72
ENDBRANCH  64  71
ENDBRANCH   8  59
BRANCH  31  74
HETATM   74  O   UNK     0       5.808  -3.713 -24.312  0.00  0.00    -0.283 OA
BRANCH  74  75
HETATM   75  C   UNK     0       5.487  -4.878 -23.696  0.00  0.00     0.295 C 
HETATM   76  O   UNK     0       4.571  -4.903 -22.908  0.00  0.00    -0.259 OA
BRANCH  75  77
HETATM   77  C   UNK     0       6.236  -6.110 -23.983  0.00  0.00     0.045 A 
HETATM   78  C   UNK     0       7.485  -6.319 -23.419  0.00  0.00     0.057 A 
HETATM   79  C   UNK     0       8.184  -7.482 -23.702  0.00  0.00     0.102 A 
HETATM   80  C   UNK     0       7.638  -8.432 -24.550  0.00  0.00     0.132 A 
HETATM   81  C   UNK     0       6.389  -8.223 -25.113  0.00  0.00     0.102 A 
HETATM   82  C   UNK     0       5.688  -7.063 -24.827  0.00  0.00     0.057 A 
BRANCH  79  83
HETATM   83  O   UNK     0       9.410  -7.692 -23.148  0.00  0.00    -0.358 OA
HETATM   84  H   UNK     0       9.501  -7.803 -22.147  0.00  0.00     0.217 HD
ENDBRANCH  79  83
BRANCH  80  85
HETATM   85  O   UNK     0       8.328  -9.570 -24.833  0.00  0.00    -0.356 OA
HETATM   86  H   UNK     0       8.117 -10.427 -24.337  0.00  0.00     0.218 HD
ENDBRANCH  80  85
BRANCH  81  87
HETATM   87  O   UNK     0       5.854  -9.153 -25.946  0.00  0.00    -0.358 OA
HETATM   88  H   UNK     0       6.457  -9.702 -26.545  0.00  0.00     0.217 HD
ENDBRANCH  81  87
ENDBRANCH  75  77
ENDBRANCH  74  75
ENDBRANCH  31  74
BRANCH  19  89
HETATM   89  O   UNK     0      -1.689   2.512 -26.368  0.00  0.00    -0.358 OA
HETATM   90  H   UNK     0      -1.333   3.267 -26.942  0.00  0.00     0.217 HD
ENDBRANCH  19  89
BRANCH  26  91
HETATM   91  O   UNK     0       3.356  -1.008 -18.740  0.00  0.00    -0.358 OA
HETATM   92  H   UNK     0       3.400  -1.989 -18.501  0.00  0.00     0.217 HD
ENDBRANCH  26  91
BRANCH  17  93
HETATM   93  O   UNK     0      -1.815   3.350 -23.760  0.00  0.00    -0.357 OA
HETATM   94  H   UNK     0      -1.480   4.299 -23.654  0.00  0.00     0.217 HD
ENDBRANCH  17  93
BRANCH  24  95
HETATM   95  O   UNK     0       0.881   0.182 -18.681  0.00  0.00    -0.357 OA
HETATM   96  H   UNK     0       0.843  -0.563 -17.998  0.00  0.00     0.217 HD
ENDBRANCH  24  95
TORSDOF 21
