REMARK VINA RESULT:      -7.2     24.229     28.498
REMARK  21 active torsions:
REMARK  status: ('A' for Active; 'I' for Inactive)
REMARK    1  A    between atoms: C_3  and  O_78 
REMARK    2  A    between atoms: C_5  and  O_77 
REMARK    3  A    between atoms: C_6  and  O_76 
REMARK    4  A    between atoms: C_7  and  O_15 
REMARK    5  A    between atoms: C_8  and  C_17 
REMARK    6  A    between atoms: C_9  and  O_13 
REMARK    7  A    between atoms: C_16  and  O_24 
REMARK    8  A    between atoms: C_18  and  O_22 
REMARK    9  A    between atoms: C_19  and  C_72 
REMARK   10  A    between atoms: C_20  and  O_23 
REMARK   11  A    between atoms: C_28  and  O_32 
REMARK   12  A    between atoms: C_30  and  O_33 
REMARK   13  A    between atoms: C_37  and  O_42 
REMARK   14  A    between atoms: C_39  and  O_43 
REMARK   15  A    between atoms: C_46  and  O_67 
REMARK   16  A    between atoms: C_48  and  O_65 
REMARK   17  A    between atoms: C_49  and  C_52 
REMARK   18  A    between atoms: C_50  and  O_66 
REMARK   19  A    between atoms: C_52  and  O_60 
REMARK   20  A    between atoms: C_54  and  O_60 
REMARK   21  A    between atoms: C_72  and  O_73 
ROOT
HETATM    1  C   UNK     0       2.877 -24.487 -23.815  0.00  0.00     0.058 A 
HETATM    2  C   UNK     0       1.866 -24.149 -22.927  0.00  0.00     0.060 A 
HETATM    3  C   UNK     0       4.194 -24.160 -23.547  0.00  0.00     0.102 A 
HETATM    4  C   UNK     0       2.179 -23.469 -21.742  0.00  0.00     0.127 A 
HETATM    5  C   UNK     0       4.509 -23.491 -22.380  0.00  0.00     0.135 A 
HETATM    6  C   UNK     0       3.507 -23.152 -21.487  0.00  0.00     0.137 A 
HETATM    7  C   UNK     0      -1.812 -23.048 -18.848  0.00  0.00     0.114 A 
HETATM    8  C   UNK     0      -2.767 -23.458 -19.775  0.00  0.00     0.030 A 
HETATM    9  C   UNK     0      -0.473 -22.923 -19.183  0.00  0.00     0.134 A 
HETATM   10  C   UNK     0      -2.329 -23.746 -21.075  0.00  0.00     0.059 A 
HETATM   11  C   UNK     0      -0.047 -23.206 -20.467  0.00  0.00     0.116 A 
HETATM   12  C   UNK     0      -0.988 -23.611 -21.389  0.00  0.00     0.329 A 
HETATM   13  O   UNK     0       1.285 -23.054 -20.775  0.00  0.00    -0.304 OA
HETATM   14  C   UNK     0      -3.179 -24.195 -22.183  0.00  0.00     0.295 C 
HETATM   15  C   UNK     0     -10.566 -27.271 -23.725  0.00  0.00     0.026 A 
HETATM   16  C   UNK     0      -9.321 -27.057 -24.310  0.00  0.00     0.006 A 
HETATM   17  C   UNK     0     -10.901 -26.734 -22.495  0.00  0.00     0.111 A 
HETATM   18  C   UNK     0      -8.393 -26.270 -23.604  0.00  0.00     0.054 A 
HETATM   19  C   UNK     0      -9.983 -25.964 -21.812  0.00  0.00     0.100 A 
HETATM   20  C   UNK     0      -8.739 -25.738 -22.369  0.00  0.00     0.058 A 
HETATM   21  O   UNK     0     -11.486 -28.024 -24.387  0.00  0.00     0.000 OA
HETATM   22  C   UNK     0     -10.352 -27.934 -26.374  0.00  0.00     0.026 A 
HETATM   23  C   UNK     0      -9.160 -27.712 -25.686  0.00  0.00     0.006 A 
HETATM   24  C   UNK     0     -10.378 -28.548 -27.615  0.00  0.00     0.111 A 
HETATM   25  C   UNK     0      -7.971 -28.128 -26.302  0.00  0.00     0.054 A 
HETATM   26  C   UNK     0      -9.199 -28.956 -28.204  0.00  0.00     0.100 A 
HETATM   27  C   UNK     0      -8.005 -28.744 -27.544  0.00  0.00     0.058 A 
HETATM   28  C   UNK     0      -6.649 -27.974 -25.716  0.00  0.00     0.294 C 
HETATM   29  O   UNK     0     -11.525 -27.544 -25.808  0.00  0.00     0.000 OA
HETATM   30  O   UNK     0      -6.300 -28.710 -24.822  0.00  0.00    -0.259 OA
HETATM   31  C   UNK     0      -3.449 -26.414 -26.276  0.00  0.00     0.302 C 
HETATM   32  C   UNK     0      -4.577 -26.994 -25.458  0.00  0.00     0.220 C 
HETATM   33  O   UNK     0      -2.236 -26.526 -25.519  0.00  0.00    -0.348 OA
HETATM   34  C   UNK     0      -4.735 -26.134 -24.248  0.00  0.00     0.198 C 
HETATM   35  C   UNK     0      -2.219 -25.927 -24.206  0.00  0.00     0.181 C 
HETATM   36  C   UNK     0      -3.496 -26.323 -23.383  0.00  0.00     0.195 C 
HETATM   37  C   UNK     0      -0.977 -26.419 -23.447  0.00  0.00     0.212 C 
HETATM   38  O   UNK     0      -5.921 -26.507 -23.559  0.00  0.00    -0.306 OA
HETATM   39  O   UNK     0      -3.588 -25.499 -22.218  0.00  0.00    -0.307 OA
HETATM   40  O   UNK     0      -5.790 -27.021 -26.182  0.00  0.00    -0.304 OA
HETATM   41  O   UNK     0       0.225 -25.756 -23.823  0.00  0.00    -0.328 OA
HETATM   42  C   UNK     0      -7.046 -25.923 -24.079  0.00  0.00     0.294 C 
HETATM   43  O   UNK     0      -6.923 -25.075 -24.930  0.00  0.00    -0.259 OA
HETATM   44  O   UNK     0      -3.464 -23.441 -23.085  0.00  0.00    -0.259 OA
HETATM   45  C   UNK     0       0.497 -24.533 -23.292  0.00  0.00     0.179 C 
HETATM   46  O   UNK     0      -0.411 -23.762 -23.079  0.00  0.00    -0.383 OA
HETATM   47  H   UNK     0     -12.398 -28.184 -23.979  0.00  0.00     0.000 HD
HETATM   48  H   UNK     0     -12.399 -27.705 -26.292  0.00  0.00     0.000 HD
ENDROOT
BRANCH   3  49
HETATM   49  O   UNK     0       5.175 -24.493 -24.427  0.00  0.00    -0.358 OA
HETATM   50  H   UNK     0       5.642 -25.388 -24.350  0.00  0.00     0.217 HD
ENDBRANCH   3  49
BRANCH   5  51
HETATM   51  O   UNK     0       5.802 -23.165 -22.109  0.00  0.00    -0.356 OA
HETATM   52  H   UNK     0       6.188 -22.297 -22.458  0.00  0.00     0.218 HD
ENDBRANCH   5  51
BRANCH   6  53
HETATM   53  O   UNK     0       3.827 -22.491 -20.341  0.00  0.00    -0.356 OA
HETATM   54  H   UNK     0       4.619 -21.861 -20.325  0.00  0.00     0.218 HD
ENDBRANCH   6  53
BRANCH   9  55
HETATM   55  O   UNK     0       0.421 -22.507 -18.246  0.00  0.00    -0.356 OA
HETATM   56  H   UNK     0       1.208 -21.932 -18.517  0.00  0.00     0.218 HD
ENDBRANCH   9  55
BRANCH   7  57
HETATM   57  O   UNK     0      -2.209 -22.750 -17.581  0.00  0.00    -0.357 OA
HETATM   58  H   UNK     0      -2.465 -23.493 -16.944  0.00  0.00     0.217 HD
ENDBRANCH   7  57
BRANCH   8  59
HETATM   59  C   UNK     0      -4.195 -23.512 -19.258  0.00  0.00     0.023 A 
HETATM   60  C   UNK     0      -4.919 -22.332 -19.401  0.00  0.00     0.113 A 
HETATM   61  C   UNK     0      -6.229 -22.228 -18.970  0.00  0.00     0.133 A 
HETATM   62  C   UNK     0      -6.849 -23.314 -18.386  0.00  0.00     0.102 A 
HETATM   63  C   UNK     0      -6.146 -24.494 -18.228  0.00  0.00     0.049 A 
HETATM   64  C   UNK     0      -4.829 -24.604 -18.653  0.00  0.00    -0.018 A 
BRANCH  60  65
HETATM   65  O   UNK     0      -4.318 -21.252 -19.970  0.00  0.00    -0.357 OA
HETATM   66  H   UNK     0      -3.549 -20.795 -19.500  0.00  0.00     0.217 HD
ENDBRANCH  60  65
BRANCH  61  67
HETATM   67  O   UNK     0      -6.904 -21.057 -19.118  0.00  0.00    -0.356 OA
HETATM   68  H   UNK     0      -7.173 -20.520 -18.304  0.00  0.00     0.218 HD
ENDBRANCH  61  67
BRANCH  62  69
HETATM   69  O   UNK     0      -8.138 -23.220 -17.964  0.00  0.00    -0.358 OA
HETATM   70  H   UNK     0      -8.896 -23.362 -18.618  0.00  0.00     0.217 HD
ENDBRANCH  62  69
BRANCH  64  71
HETATM   71  C   UNK     0      -4.163 -25.930 -18.410  0.00  0.00     0.203 C 
BRANCH  71  72
HETATM   72  O   UNK     0      -4.207 -26.683 -19.614  0.00  0.00    -0.396 OA
HETATM   73  H   UNK     0      -4.773 -27.520 -19.668  0.00  0.00     0.209 HD
ENDBRANCH  71  72
ENDBRANCH  64  71
ENDBRANCH   8  59
BRANCH  31  74
HETATM   74  O   UNK     0      -3.321 -27.126 -27.497  0.00  0.00    -0.283 OA
BRANCH  74  75
HETATM   75  C   UNK     0      -3.254 -26.407 -28.645  0.00  0.00     0.295 C 
HETATM   76  O   UNK     0      -2.195 -25.938 -28.993  0.00  0.00    -0.259 OA
BRANCH  75  77
HETATM   77  C   UNK     0      -4.451 -26.197 -29.471  0.00  0.00     0.045 A 
HETATM   78  C   UNK     0      -5.256 -27.269 -29.825  0.00  0.00     0.057 A 
HETATM   79  C   UNK     0      -6.379 -27.060 -30.611  0.00  0.00     0.102 A 
HETATM   80  C   UNK     0      -6.694 -25.782 -31.045  0.00  0.00     0.132 A 
HETATM   81  C   UNK     0      -5.890 -24.711 -30.690  0.00  0.00     0.102 A 
HETATM   82  C   UNK     0      -4.770 -24.919 -29.902  0.00  0.00     0.057 A 
BRANCH  79  83
HETATM   83  O   UNK     0      -7.173 -28.109 -30.959  0.00  0.00    -0.358 OA
HETATM   84  H   UNK     0      -7.591 -28.687 -30.241  0.00  0.00     0.217 HD
ENDBRANCH  79  83
BRANCH  80  85
HETATM   85  O   UNK     0      -7.792 -25.578 -31.822  0.00  0.00    -0.356 OA
HETATM   86  H   UNK     0      -7.821 -24.793 -32.461  0.00  0.00     0.218 HD
ENDBRANCH  80  85
BRANCH  81  87
HETATM   87  O   UNK     0      -6.197 -23.458 -31.118  0.00  0.00    -0.358 OA
HETATM   88  H   UNK     0      -5.477 -22.866 -31.510  0.00  0.00     0.217 HD
ENDBRANCH  81  87
ENDBRANCH  75  77
ENDBRANCH  74  75
ENDBRANCH  31  74
BRANCH  19  89
HETATM   89  O   UNK     0     -10.306 -25.431 -20.603  0.00  0.00    -0.358 OA
HETATM   90  H   UNK     0     -11.010 -25.874 -20.026  0.00  0.00     0.217 HD
ENDBRANCH  19  89
BRANCH  26  91
HETATM   91  O   UNK     0      -9.214 -29.567 -29.419  0.00  0.00    -0.358 OA
HETATM   92  H   UNK     0      -9.941 -30.234 -29.641  0.00  0.00     0.217 HD
ENDBRANCH  26  91
BRANCH  17  93
HETATM   93  O   UNK     0     -12.132 -26.959 -21.962  0.00  0.00    -0.357 OA
HETATM   94  H   UNK     0     -12.940 -27.033 -22.568  0.00  0.00     0.217 HD
ENDBRANCH  17  93
BRANCH  24  95
HETATM   95  O   UNK     0     -11.563 -28.755 -28.251  0.00  0.00    -0.357 OA
HETATM   96  H   UNK     0     -12.046 -29.638 -28.146  0.00  0.00     0.217 HD
ENDBRANCH  24  95
TORSDOF 21
