MODEL 1
REMARK VINA RESULT:      -5.4      0.000      0.000
REMARK  5 active torsions:
REMARK  status: ('A' for Active; 'I' for Inactive)
REMARK    1  A    between atoms: C_3  and  O_1 
REMARK    2  A    between atoms: C_4  and  O_14 
REMARK    3  A    between atoms: C_7  and  C_8 
REMARK    4  A    between atoms: C_9  and  C_10 
REMARK    5  A    between atoms: C_10  and  O_12 
ROOT
ATOM      1  C   LIG     1     185.623 165.878 161.850  0.00  0.00     0.162 A 
ATOM      2  C   LIG     1     185.966 166.018 163.195  0.00  0.00     0.158 A 
ATOM      3  C   LIG     1     184.967 166.099 164.164  0.00  0.00     0.050 A 
ATOM      4  C   LIG     1     183.624 166.040 163.790  0.00  0.00     0.012 A 
ATOM      5  C   LIG     1     183.282 165.900 162.446  0.00  0.00    -0.021 A 
ATOM      6  C   LIG     1     184.280 165.819 161.475  0.00  0.00     0.057 A 
ENDROOT
BRANCH   5   7
ATOM      7  C   LIG     1     181.882 165.838 162.055  0.00  0.00     0.015 C 
ATOM      8  C   LIG     1     181.033 166.889 162.015  0.00  0.00     0.092 C 
BRANCH   8   9
ATOM      9  C   LIG     1     179.633 166.695 161.589  0.00  0.00     0.330 C 
ATOM     10  O   LIG     1     179.211 165.807 160.867  0.00  0.00    -0.246 OA
BRANCH   9  11
ATOM     11  O   LIG     1     178.874 167.673 162.136  0.00  0.00    -0.478 OA
ATOM     12  H   LIG     1     179.339 168.537 162.146  0.00  0.00     0.295 HD
ENDBRANCH   9  11
ENDBRANCH   8   9
ENDBRANCH   5   7
BRANCH   1  13
ATOM     13  O   LIG     1     186.590 165.800 160.893  0.00  0.00    -0.491 OA
ATOM     14  C   LIG     1     187.014 167.025 160.299  0.00  0.00     0.277 C 
ENDBRANCH   1  13
BRANCH   2  15
ATOM     15  O   LIG     1     187.273 166.078 163.573  0.00  0.00    -0.503 OA
ATOM     16  H   LIG     1     187.369 166.742 164.278  0.00  0.00     0.292 HD
ENDBRANCH   2  15
TORSDOF 5
ENDMDL
MODEL 2
REMARK VINA RESULT:      -5.4      0.894      2.387
REMARK  5 active torsions:
REMARK  status: ('A' for Active; 'I' for Inactive)
REMARK    1  A    between atoms: C_3  and  O_1 
REMARK    2  A    between atoms: C_4  and  O_14 
REMARK    3  A    between atoms: C_7  and  C_8 
REMARK    4  A    between atoms: C_9  and  C_10 
REMARK    5  A    between atoms: C_10  and  O_12 
ROOT
ATOM      1  C   LIG     1     185.191 165.950 163.706  0.00  0.00     0.162 A 
ATOM      2  C   LIG     1     186.054 165.920 162.610  0.00  0.00     0.158 A 
ATOM      3  C   LIG     1     185.536 165.843 161.318  0.00  0.00     0.050 A 
ATOM      4  C   LIG     1     184.155 165.795 161.121  0.00  0.00     0.012 A 
ATOM      5  C   LIG     1     183.294 165.824 162.216  0.00  0.00    -0.021 A 
ATOM      6  C   LIG     1     183.811 165.902 163.510  0.00  0.00     0.057 A 
ENDROOT
BRANCH   5   7
ATOM      7  C   LIG     1     181.855 165.775 162.011  0.00  0.00     0.015 C 
ATOM      8  C   LIG     1     181.087 166.810 161.603  0.00  0.00     0.092 C 
BRANCH   8   9
ATOM      9  C   LIG     1     179.633 166.628 161.423  0.00  0.00     0.330 C 
ATOM     10  O   LIG     1     179.085 165.704 160.845  0.00  0.00    -0.246 OA
BRANCH   9  11
ATOM     11  O   LIG     1     178.990 167.664 162.009  0.00  0.00    -0.478 OA
ATOM     12  H   LIG     1     178.123 167.395 162.382  0.00  0.00     0.295 HD
ENDBRANCH   9  11
ENDBRANCH   8   9
ENDBRANCH   5   7
BRANCH   1  13
ATOM     13  O   LIG     1     185.686 166.024 164.974  0.00  0.00    -0.491 OA
ATOM     14  C   LIG     1     185.549 164.863 165.791  0.00  0.00     0.277 C 
ENDBRANCH   1  13
BRANCH   2  15
ATOM     15  O   LIG     1     187.403 165.965 162.790  0.00  0.00    -0.503 OA
ATOM     16  H   LIG     1     187.598 165.915 163.742  0.00  0.00     0.292 HD
ENDBRANCH   2  15
TORSDOF 5
ENDMDL
MODEL 3
REMARK VINA RESULT:      -5.2     21.227     22.126
REMARK  5 active torsions:
REMARK  status: ('A' for Active; 'I' for Inactive)
REMARK    1  A    between atoms: C_3  and  O_1 
REMARK    2  A    between atoms: C_4  and  O_14 
REMARK    3  A    between atoms: C_7  and  C_8 
REMARK    4  A    between atoms: C_9  and  C_10 
REMARK    5  A    between atoms: C_10  and  O_12 
ROOT
ATOM      1  C   LIG     1     187.610 186.193 171.634  0.00  0.00     0.162 A 
ATOM      2  C   LIG     1     186.716 187.244 171.429  0.00  0.00     0.158 A 
ATOM      3  C   LIG     1     185.438 187.191 171.985  0.00  0.00     0.050 A 
ATOM      4  C   LIG     1     185.053 186.086 172.744  0.00  0.00     0.012 A 
ATOM      5  C   LIG     1     185.946 185.035 172.948  0.00  0.00    -0.021 A 
ATOM      6  C   LIG     1     187.225 185.087 172.393  0.00  0.00     0.057 A 
ENDROOT
BRANCH   5   7
ATOM      7  C   LIG     1     185.545 183.884 173.741  0.00  0.00     0.015 C 
ATOM      8  C   LIG     1     184.568 183.879 174.675  0.00  0.00     0.092 C 
BRANCH   8   9
ATOM      9  C   LIG     1     184.249 182.637 175.407  0.00  0.00     0.330 C 
ATOM     10  O   LIG     1     183.134 182.203 175.647  0.00  0.00    -0.246 OA
BRANCH   9  11
ATOM     11  O   LIG     1     185.407 182.042 175.777  0.00  0.00    -0.478 OA
ATOM     12  H   LIG     1     185.813 182.481 176.554  0.00  0.00     0.295 HD
ENDBRANCH   9  11
ENDBRANCH   8   9
ENDBRANCH   5   7
BRANCH   1  13
ATOM     13  O   LIG     1     188.861 186.233 171.095  0.00  0.00    -0.491 OA
ATOM     14  C   LIG     1     189.102 185.410 169.955  0.00  0.00     0.277 C 
ENDBRANCH   1  13
BRANCH   2  15
ATOM     15  O   LIG     1     187.080 188.328 170.689  0.00  0.00    -0.503 OA
ATOM     16  H   LIG     1     187.584 188.942 171.251  0.00  0.00     0.292 HD
ENDBRANCH   2  15
TORSDOF 5
ENDMDL
MODEL 4
REMARK VINA RESULT:      -5.2     21.601     22.634
REMARK  5 active torsions:
REMARK  status: ('A' for Active; 'I' for Inactive)
REMARK    1  A    between atoms: C_3  and  O_1 
REMARK    2  A    between atoms: C_4  and  O_14 
REMARK    3  A    between atoms: C_7  and  C_8 
REMARK    4  A    between atoms: C_9  and  C_10 
REMARK    5  A    between atoms: C_10  and  O_12 
ROOT
ATOM      1  C   LIG     1     184.425 184.013 174.682  0.00  0.00     0.162 A 
ATOM      2  C   LIG     1     185.598 183.278 174.859  0.00  0.00     0.158 A 
ATOM      3  C   LIG     1     186.796 183.735 174.311  0.00  0.00     0.050 A 
ATOM      4  C   LIG     1     186.822 184.926 173.584  0.00  0.00     0.012 A 
ATOM      5  C   LIG     1     185.650 185.659 173.407  0.00  0.00    -0.021 A 
ATOM      6  C   LIG     1     184.451 185.203 173.955  0.00  0.00     0.057 A 
ENDROOT
BRANCH   5   7
ATOM      7  C   LIG     1     185.677 186.901 172.650  0.00  0.00     0.015 C 
ATOM      8  C   LIG     1     185.439 187.015 171.324  0.00  0.00     0.092 C 
BRANCH   8   9
ATOM      9  C   LIG     1     185.487 188.339 170.674  0.00  0.00     0.330 C 
ATOM     10  O   LIG     1     184.536 188.971 170.245  0.00  0.00    -0.246 OA
BRANCH   9  11
ATOM     11  O   LIG     1     186.775 188.753 170.627  0.00  0.00    -0.478 OA
ATOM     12  H   LIG     1     187.318 188.345 171.335  0.00  0.00     0.295 HD
ENDBRANCH   9  11
ENDBRANCH   8   9
ENDBRANCH   5   7
BRANCH   1  13
ATOM     13  O   LIG     1     183.248 183.576 175.212  0.00  0.00    -0.491 OA
ATOM     14  C   LIG     1     182.220 183.212 174.293  0.00  0.00     0.277 C 
ENDBRANCH   1  13
BRANCH   2  15
ATOM     15  O   LIG     1     185.585 182.113 175.566  0.00  0.00    -0.503 OA
ATOM     16  H   LIG     1     186.251 182.164 176.273  0.00  0.00     0.292 HD
ENDBRANCH   2  15
TORSDOF 5
ENDMDL
MODEL 5
REMARK VINA RESULT:      -5.1     20.677     21.457
REMARK  5 active torsions:
REMARK  status: ('A' for Active; 'I' for Inactive)
REMARK    1  A    between atoms: C_3  and  O_1 
REMARK    2  A    between atoms: C_4  and  O_14 
REMARK    3  A    between atoms: C_7  and  C_8 
REMARK    4  A    between atoms: C_9  and  C_10 
REMARK    5  A    between atoms: C_10  and  O_12 
ROOT
ATOM      1  C   LIG     1     186.195 184.274 173.478  0.00  0.00     0.162 A 
ATOM      2  C   LIG     1     186.586 185.175 174.469  0.00  0.00     0.158 A 
ATOM      3  C   LIG     1     185.677 185.569 175.451  0.00  0.00     0.050 A 
ATOM      4  C   LIG     1     184.377 185.062 175.441  0.00  0.00     0.012 A 
ATOM      5  C   LIG     1     183.987 184.162 174.451  0.00  0.00    -0.021 A 
ATOM      6  C   LIG     1     184.895 183.768 173.469  0.00  0.00     0.057 A 
ENDROOT
BRANCH   5   7
ATOM      7  C   LIG     1     182.632 183.634 174.442  0.00  0.00     0.015 C 
ATOM      8  C   LIG     1     181.735 183.799 173.444  0.00  0.00     0.092 C 
BRANCH   8   9
ATOM      9  C   LIG     1     180.389 183.200 173.552  0.00  0.00     0.330 C 
ATOM     10  O   LIG     1     180.044 182.112 173.124  0.00  0.00    -0.246 OA
BRANCH   9  11
ATOM     11  O   LIG     1     179.583 184.063 174.213  0.00  0.00    -0.478 OA
ATOM     12  H   LIG     1     179.555 183.875 175.176  0.00  0.00     0.295 HD
ENDBRANCH   9  11
ENDBRANCH   8   9
ENDBRANCH   5   7
BRANCH   1  13
ATOM     13  O   LIG     1     187.074 183.883 172.513  0.00  0.00    -0.491 OA
ATOM     14  C   LIG     1     186.973 184.528 171.245  0.00  0.00     0.277 C 
ENDBRANCH   1  13
BRANCH   2  15
ATOM     15  O   LIG     1     187.852 185.678 174.488  0.00  0.00    -0.503 OA
ATOM     16  H   LIG     1     188.452 185.011 174.866  0.00  0.00     0.292 HD
ENDBRANCH   2  15
TORSDOF 5
ENDMDL
MODEL 6
REMARK VINA RESULT:      -5.1     16.724     18.230
REMARK  5 active torsions:
REMARK  status: ('A' for Active; 'I' for Inactive)
REMARK    1  A    between atoms: C_3  and  O_1 
REMARK    2  A    between atoms: C_4  and  O_14 
REMARK    3  A    between atoms: C_7  and  C_8 
REMARK    4  A    between atoms: C_9  and  C_10 
REMARK    5  A    between atoms: C_10  and  O_12 
ROOT
ATOM      1  C   LIG     1     178.462 169.281 180.819  0.00  0.00     0.162 A 
ATOM      2  C   LIG     1     177.763 170.468 181.039  0.00  0.00     0.158 A 
ATOM      3  C   LIG     1     177.046 171.057 179.998  0.00  0.00     0.050 A 
ATOM      4  C   LIG     1     177.027 170.460 178.737  0.00  0.00     0.012 A 
ATOM      5  C   LIG     1     177.726 169.274 178.518  0.00  0.00    -0.021 A 
ATOM      6  C   LIG     1     178.443 168.683 179.558  0.00  0.00     0.057 A 
ENDROOT
BRANCH   5   7
ATOM      7  C   LIG     1     177.706 168.650 177.205  0.00  0.00     0.015 C 
ATOM      8  C   LIG     1     177.742 169.310 176.025  0.00  0.00     0.092 C 
BRANCH   8   9
ATOM      9  C   LIG     1     177.726 168.558 174.755  0.00  0.00     0.330 C 
ATOM     10  O   LIG     1     178.699 168.178 174.125  0.00  0.00    -0.246 OA
BRANCH   9  11
ATOM     11  O   LIG     1     176.439 168.349 174.390  0.00  0.00    -0.478 OA
ATOM     12  H   LIG     1     176.318 167.479 173.954  0.00  0.00     0.295 HD
ENDBRANCH   9  11
ENDBRANCH   8   9
ENDBRANCH   5   7
BRANCH   1  13
ATOM     13  O   LIG     1     179.167 168.696 181.828  0.00  0.00    -0.491 OA
ATOM     14  C   LIG     1     178.437 167.874 182.736  0.00  0.00     0.277 C 
ENDBRANCH   1  13
BRANCH   2  15
ATOM     15  O   LIG     1     177.774 171.062 182.265  0.00  0.00    -0.503 OA
ATOM     16  H   LIG     1     177.126 170.617 182.838  0.00  0.00     0.292 HD
ENDBRANCH   2  15
TORSDOF 5
ENDMDL
MODEL 7
REMARK VINA RESULT:      -5.1     13.980     15.954
REMARK  5 active torsions:
REMARK  status: ('A' for Active; 'I' for Inactive)
REMARK    1  A    between atoms: C_3  and  O_1 
REMARK    2  A    between atoms: C_4  and  O_14 
REMARK    3  A    between atoms: C_7  and  C_8 
REMARK    4  A    between atoms: C_9  and  C_10 
REMARK    5  A    between atoms: C_10  and  O_12 
ROOT
ATOM      1  C   LIG     1     174.703 177.836 170.375  0.00  0.00     0.162 A 
ATOM      2  C   LIG     1     175.058 178.874 169.513  0.00  0.00     0.158 A 
ATOM      3  C   LIG     1     174.716 178.806 168.163  0.00  0.00     0.050 A 
ATOM      4  C   LIG     1     174.019 177.701 167.674  0.00  0.00     0.012 A 
ATOM      5  C   LIG     1     173.665 176.664 168.536  0.00  0.00    -0.021 A 
ATOM      6  C   LIG     1     174.006 176.731 169.886  0.00  0.00     0.057 A 
ENDROOT
BRANCH   5   7
ATOM      7  C   LIG     1     172.938 175.512 168.027  0.00  0.00     0.015 C 
ATOM      8  C   LIG     1     173.415 174.248 167.969  0.00  0.00     0.092 C 
BRANCH   8   9
ATOM      9  C   LIG     1     172.571 173.161 167.437  0.00  0.00     0.330 C 
ATOM     10  O   LIG     1     171.415 172.923 167.747  0.00  0.00    -0.246 OA
BRANCH   9  11
ATOM     11  O   LIG     1     173.290 172.454 166.535  0.00  0.00    -0.478 OA
ATOM     12  H   LIG     1     173.833 171.758 166.962  0.00  0.00     0.295 HD
ENDBRANCH   9  11
ENDBRANCH   8   9
ENDBRANCH   5   7
BRANCH   1  13
ATOM     13  O   LIG     1     175.032 177.891 171.696  0.00  0.00    -0.491 OA
ATOM     14  C   LIG     1     176.170 177.137 172.111  0.00  0.00     0.277 C 
ENDBRANCH   1  13
BRANCH   2  15
ATOM     15  O   LIG     1     175.739 179.958 169.978  0.00  0.00    -0.503 OA
ATOM     16  H   LIG     1     175.615 180.699 169.360  0.00  0.00     0.292 HD
ENDBRANCH   2  15
TORSDOF 5
ENDMDL
MODEL 8
REMARK VINA RESULT:      -5.0     21.352     22.190
REMARK  5 active torsions:
REMARK  status: ('A' for Active; 'I' for Inactive)
REMARK    1  A    between atoms: C_3  and  O_1 
REMARK    2  A    between atoms: C_4  and  O_14 
REMARK    3  A    between atoms: C_7  and  C_8 
REMARK    4  A    between atoms: C_9  and  C_10 
REMARK    5  A    between atoms: C_10  and  O_12 
ROOT
ATOM      1  C   LIG     1     185.870 185.530 174.576  0.00  0.00     0.162 A 
ATOM      2  C   LIG     1     186.278 186.576 173.748  0.00  0.00     0.158 A 
ATOM      3  C   LIG     1     185.472 186.977 172.683  0.00  0.00     0.050 A 
ATOM      4  C   LIG     1     184.258 186.332 172.446  0.00  0.00     0.012 A 
ATOM      5  C   LIG     1     183.850 185.287 173.273  0.00  0.00    -0.021 A 
ATOM      6  C   LIG     1     184.656 184.885 174.339  0.00  0.00     0.057 A 
ENDROOT
BRANCH   5   7
ATOM      7  C   LIG     1     182.584 184.615 173.026  0.00  0.00     0.015 C 
ATOM      8  C   LIG     1     181.971 183.763 173.878  0.00  0.00     0.092 C 
BRANCH   8   9
ATOM      9  C   LIG     1     180.678 183.153 173.513  0.00  0.00     0.330 C 
ATOM     10  O   LIG     1     180.511 182.202 172.766  0.00  0.00    -0.246 OA
BRANCH   9  11
ATOM     11  O   LIG     1     179.687 183.821 174.147  0.00  0.00    -0.478 OA
ATOM     12  H   LIG     1     180.035 184.425 174.838  0.00  0.00     0.295 HD
ENDBRANCH   9  11
ENDBRANCH   8   9
ENDBRANCH   5   7
BRANCH   1  13
ATOM     13  O   LIG     1     186.650 185.128 175.619  0.00  0.00    -0.491 OA
ATOM     14  C   LIG     1     187.478 183.987 175.406  0.00  0.00     0.277 C 
ENDBRANCH   1  13
BRANCH   2  15
ATOM     15  O   LIG     1     187.462 187.212 173.969  0.00  0.00    -0.503 OA
ATOM     16  H   LIG     1     187.309 187.970 174.560  0.00  0.00     0.292 HD
ENDBRANCH   2  15
TORSDOF 5
ENDMDL
MODEL 9
REMARK VINA RESULT:      -5.0      6.881      9.607
REMARK  5 active torsions:
REMARK  status: ('A' for Active; 'I' for Inactive)
REMARK    1  A    between atoms: C_3  and  O_1 
REMARK    2  A    between atoms: C_4  and  O_14 
REMARK    3  A    between atoms: C_7  and  C_8 
REMARK    4  A    between atoms: C_9  and  C_10 
REMARK    5  A    between atoms: C_10  and  O_12 
ROOT
ATOM      1  C   LIG     1     188.483 170.358 158.437  0.00  0.00     0.162 A 
ATOM      2  C   LIG     1     187.540 170.477 157.416  0.00  0.00     0.158 A 
ATOM      3  C   LIG     1     187.021 171.729 157.089  0.00  0.00     0.050 A 
ATOM      4  C   LIG     1     187.443 172.863 157.784  0.00  0.00     0.012 A 
ATOM      5  C   LIG     1     188.385 172.744 158.805  0.00  0.00    -0.021 A 
ATOM      6  C   LIG     1     188.905 171.492 159.132  0.00  0.00     0.057 A 
ENDROOT
BRANCH   5   7
ATOM      7  C   LIG     1     188.826 173.925 159.529  0.00  0.00     0.015 C 
ATOM      8  C   LIG     1     188.825 174.065 160.873  0.00  0.00     0.092 C 
BRANCH   8   9
ATOM      9  C   LIG     1     189.309 175.317 161.488  0.00  0.00     0.330 C 
ATOM     10  O   LIG     1     190.286 175.962 161.146  0.00  0.00    -0.246 OA
BRANCH   9  11
ATOM     11  O   LIG     1     188.485 175.645 162.511  0.00  0.00    -0.478 OA
ATOM     12  H   LIG     1     188.132 174.851 162.967  0.00  0.00     0.295 HD
ENDBRANCH   9  11
ENDBRANCH   8   9
ENDBRANCH   5   7
BRANCH   1  13
ATOM     13  O   LIG     1     188.997 169.140 158.766  0.00  0.00    -0.491 OA
ATOM     14  C   LIG     1     188.660 168.620 160.051  0.00  0.00     0.277 C 
ENDBRANCH   1  13
BRANCH   2  15
ATOM     15  O   LIG     1     187.119 169.377 156.731  0.00  0.00    -0.503 OA
ATOM     16  H   LIG     1     186.569 168.830 157.318  0.00  0.00     0.292 HD
ENDBRANCH   2  15
TORSDOF 5
ENDMDL
MODEL 10
REMARK VINA RESULT:      -4.8     20.901     21.767
REMARK  5 active torsions:
REMARK  status: ('A' for Active; 'I' for Inactive)
REMARK    1  A    between atoms: C_3  and  O_1 
REMARK    2  A    between atoms: C_4  and  O_14 
REMARK    3  A    between atoms: C_7  and  C_8 
REMARK    4  A    between atoms: C_9  and  C_10 
REMARK    5  A    between atoms: C_10  and  O_12 
ROOT
ATOM      1  C   LIG     1     187.283 185.481 171.715  0.00  0.00     0.162 A 
ATOM      2  C   LIG     1     187.706 186.569 172.480  0.00  0.00     0.158 A 
ATOM      3  C   LIG     1     187.404 186.624 173.840  0.00  0.00     0.050 A 
ATOM      4  C   LIG     1     186.679 185.592 174.437  0.00  0.00     0.012 A 
ATOM      5  C   LIG     1     186.256 184.506 173.673  0.00  0.00    -0.021 A 
ATOM      6  C   LIG     1     186.558 184.449 172.312  0.00  0.00     0.057 A 
ENDROOT
BRANCH   5   7
ATOM      7  C   LIG     1     185.502 183.429 174.295  0.00  0.00     0.015 C 
ATOM      8  C   LIG     1     184.202 183.495 174.661  0.00  0.00     0.092 C 
BRANCH   8   9
ATOM      9  C   LIG     1     183.546 182.325 175.277  0.00  0.00     0.330 C 
ATOM     10  O   LIG     1     182.780 181.551 174.727  0.00  0.00    -0.246 OA
BRANCH   9  11
ATOM     11  O   LIG     1     183.933 182.241 176.571  0.00  0.00    -0.478 OA
ATOM     12  H   LIG     1     183.338 182.747 177.165  0.00  0.00     0.295 HD
ENDBRANCH   9  11
ENDBRANCH   8   9
ENDBRANCH   5   7
BRANCH   1  13
ATOM     13  O   LIG     1     187.571 185.416 170.385  0.00  0.00    -0.491 OA
ATOM     14  C   LIG     1     188.080 184.178 169.893  0.00  0.00     0.277 C 
ENDBRANCH   1  13
BRANCH   2  15
ATOM     15  O   LIG     1     188.413 187.583 171.909  0.00  0.00    -0.503 OA
ATOM     16  H   LIG     1     189.363 187.390 171.987  0.00  0.00     0.292 HD
ENDBRANCH   2  15
TORSDOF 5
ENDMDL
