REMARK VINA RESULT:      -5.1     16.724     18.230
REMARK  5 active torsions:
REMARK  status: ('A' for Active; 'I' for Inactive)
REMARK    1  A    between atoms: C_3  and  O_1 
REMARK    2  A    between atoms: C_4  and  O_14 
REMARK    3  A    between atoms: C_7  and  C_8 
REMARK    4  A    between atoms: C_9  and  C_10 
REMARK    5  A    between atoms: C_10  and  O_12 
ROOT
ATOM      1  C   LIG     1     178.462 169.281 180.819  0.00  0.00     0.162 A 
ATOM      2  C   LIG     1     177.763 170.468 181.039  0.00  0.00     0.158 A 
ATOM      3  C   LIG     1     177.046 171.057 179.998  0.00  0.00     0.050 A 
ATOM      4  C   LIG     1     177.027 170.460 178.737  0.00  0.00     0.012 A 
ATOM      5  C   LIG     1     177.726 169.274 178.518  0.00  0.00    -0.021 A 
ATOM      6  C   LIG     1     178.443 168.683 179.558  0.00  0.00     0.057 A 
ENDROOT
BRANCH   5   7
ATOM      7  C   LIG     1     177.706 168.650 177.205  0.00  0.00     0.015 C 
ATOM      8  C   LIG     1     177.742 169.310 176.025  0.00  0.00     0.092 C 
BRANCH   8   9
ATOM      9  C   LIG     1     177.726 168.558 174.755  0.00  0.00     0.330 C 
ATOM     10  O   LIG     1     178.699 168.178 174.125  0.00  0.00    -0.246 OA
BRANCH   9  11
ATOM     11  O   LIG     1     176.439 168.349 174.390  0.00  0.00    -0.478 OA
ATOM     12  H   LIG     1     176.318 167.479 173.954  0.00  0.00     0.295 HD
ENDBRANCH   9  11
ENDBRANCH   8   9
ENDBRANCH   5   7
BRANCH   1  13
ATOM     13  O   LIG     1     179.167 168.696 181.828  0.00  0.00    -0.491 OA
ATOM     14  C   LIG     1     178.437 167.874 182.736  0.00  0.00     0.277 C 
ENDBRANCH   1  13
BRANCH   2  15
ATOM     15  O   LIG     1     177.774 171.062 182.265  0.00  0.00    -0.503 OA
ATOM     16  H   LIG     1     177.126 170.617 182.838  0.00  0.00     0.292 HD
ENDBRANCH   2  15
TORSDOF 5
