REMARK VINA RESULT:      -5.0     21.352     22.190
REMARK  5 active torsions:
REMARK  status: ('A' for Active; 'I' for Inactive)
REMARK    1  A    between atoms: C_3  and  O_1 
REMARK    2  A    between atoms: C_4  and  O_14 
REMARK    3  A    between atoms: C_7  and  C_8 
REMARK    4  A    between atoms: C_9  and  C_10 
REMARK    5  A    between atoms: C_10  and  O_12 
ROOT
ATOM      1  C   LIG     1     185.870 185.530 174.576  0.00  0.00     0.162 A 
ATOM      2  C   LIG     1     186.278 186.576 173.748  0.00  0.00     0.158 A 
ATOM      3  C   LIG     1     185.472 186.977 172.683  0.00  0.00     0.050 A 
ATOM      4  C   LIG     1     184.258 186.332 172.446  0.00  0.00     0.012 A 
ATOM      5  C   LIG     1     183.850 185.287 173.273  0.00  0.00    -0.021 A 
ATOM      6  C   LIG     1     184.656 184.885 174.339  0.00  0.00     0.057 A 
ENDROOT
BRANCH   5   7
ATOM      7  C   LIG     1     182.584 184.615 173.026  0.00  0.00     0.015 C 
ATOM      8  C   LIG     1     181.971 183.763 173.878  0.00  0.00     0.092 C 
BRANCH   8   9
ATOM      9  C   LIG     1     180.678 183.153 173.513  0.00  0.00     0.330 C 
ATOM     10  O   LIG     1     180.511 182.202 172.766  0.00  0.00    -0.246 OA
BRANCH   9  11
ATOM     11  O   LIG     1     179.687 183.821 174.147  0.00  0.00    -0.478 OA
ATOM     12  H   LIG     1     180.035 184.425 174.838  0.00  0.00     0.295 HD
ENDBRANCH   9  11
ENDBRANCH   8   9
ENDBRANCH   5   7
BRANCH   1  13
ATOM     13  O   LIG     1     186.650 185.128 175.619  0.00  0.00    -0.491 OA
ATOM     14  C   LIG     1     187.478 183.987 175.406  0.00  0.00     0.277 C 
ENDBRANCH   1  13
BRANCH   2  15
ATOM     15  O   LIG     1     187.462 187.212 173.969  0.00  0.00    -0.503 OA
ATOM     16  H   LIG     1     187.309 187.970 174.560  0.00  0.00     0.292 HD
ENDBRANCH   2  15
TORSDOF 5
