REMARK VINA RESULT:      -5.2     21.227     22.126
REMARK  5 active torsions:
REMARK  status: ('A' for Active; 'I' for Inactive)
REMARK    1  A    between atoms: C_3  and  O_1 
REMARK    2  A    between atoms: C_4  and  O_14 
REMARK    3  A    between atoms: C_7  and  C_8 
REMARK    4  A    between atoms: C_9  and  C_10 
REMARK    5  A    between atoms: C_10  and  O_12 
ROOT
ATOM      1  C   LIG     1     187.610 186.193 171.634  0.00  0.00     0.162 A 
ATOM      2  C   LIG     1     186.716 187.244 171.429  0.00  0.00     0.158 A 
ATOM      3  C   LIG     1     185.438 187.191 171.985  0.00  0.00     0.050 A 
ATOM      4  C   LIG     1     185.053 186.086 172.744  0.00  0.00     0.012 A 
ATOM      5  C   LIG     1     185.946 185.035 172.948  0.00  0.00    -0.021 A 
ATOM      6  C   LIG     1     187.225 185.087 172.393  0.00  0.00     0.057 A 
ENDROOT
BRANCH   5   7
ATOM      7  C   LIG     1     185.545 183.884 173.741  0.00  0.00     0.015 C 
ATOM      8  C   LIG     1     184.568 183.879 174.675  0.00  0.00     0.092 C 
BRANCH   8   9
ATOM      9  C   LIG     1     184.249 182.637 175.407  0.00  0.00     0.330 C 
ATOM     10  O   LIG     1     183.134 182.203 175.647  0.00  0.00    -0.246 OA
BRANCH   9  11
ATOM     11  O   LIG     1     185.407 182.042 175.777  0.00  0.00    -0.478 OA
ATOM     12  H   LIG     1     185.813 182.481 176.554  0.00  0.00     0.295 HD
ENDBRANCH   9  11
ENDBRANCH   8   9
ENDBRANCH   5   7
BRANCH   1  13
ATOM     13  O   LIG     1     188.861 186.233 171.095  0.00  0.00    -0.491 OA
ATOM     14  C   LIG     1     189.102 185.410 169.955  0.00  0.00     0.277 C 
ENDBRANCH   1  13
BRANCH   2  15
ATOM     15  O   LIG     1     187.080 188.328 170.689  0.00  0.00    -0.503 OA
ATOM     16  H   LIG     1     187.584 188.942 171.251  0.00  0.00     0.292 HD
ENDBRANCH   2  15
TORSDOF 5
