REMARK VINA RESULT:      -4.8     20.901     21.767
REMARK  5 active torsions:
REMARK  status: ('A' for Active; 'I' for Inactive)
REMARK    1  A    between atoms: C_3  and  O_1 
REMARK    2  A    between atoms: C_4  and  O_14 
REMARK    3  A    between atoms: C_7  and  C_8 
REMARK    4  A    between atoms: C_9  and  C_10 
REMARK    5  A    between atoms: C_10  and  O_12 
ROOT
ATOM      1  C   LIG     1     187.283 185.481 171.715  0.00  0.00     0.162 A 
ATOM      2  C   LIG     1     187.706 186.569 172.480  0.00  0.00     0.158 A 
ATOM      3  C   LIG     1     187.404 186.624 173.840  0.00  0.00     0.050 A 
ATOM      4  C   LIG     1     186.679 185.592 174.437  0.00  0.00     0.012 A 
ATOM      5  C   LIG     1     186.256 184.506 173.673  0.00  0.00    -0.021 A 
ATOM      6  C   LIG     1     186.558 184.449 172.312  0.00  0.00     0.057 A 
ENDROOT
BRANCH   5   7
ATOM      7  C   LIG     1     185.502 183.429 174.295  0.00  0.00     0.015 C 
ATOM      8  C   LIG     1     184.202 183.495 174.661  0.00  0.00     0.092 C 
BRANCH   8   9
ATOM      9  C   LIG     1     183.546 182.325 175.277  0.00  0.00     0.330 C 
ATOM     10  O   LIG     1     182.780 181.551 174.727  0.00  0.00    -0.246 OA
BRANCH   9  11
ATOM     11  O   LIG     1     183.933 182.241 176.571  0.00  0.00    -0.478 OA
ATOM     12  H   LIG     1     183.338 182.747 177.165  0.00  0.00     0.295 HD
ENDBRANCH   9  11
ENDBRANCH   8   9
ENDBRANCH   5   7
BRANCH   1  13
ATOM     13  O   LIG     1     187.571 185.416 170.385  0.00  0.00    -0.491 OA
ATOM     14  C   LIG     1     188.080 184.178 169.893  0.00  0.00     0.277 C 
ENDBRANCH   1  13
BRANCH   2  15
ATOM     15  O   LIG     1     188.413 187.583 171.909  0.00  0.00    -0.503 OA
ATOM     16  H   LIG     1     189.363 187.390 171.987  0.00  0.00     0.292 HD
ENDBRANCH   2  15
TORSDOF 5
