REMARK VINA RESULT:      -5.2     21.601     22.634
REMARK  5 active torsions:
REMARK  status: ('A' for Active; 'I' for Inactive)
REMARK    1  A    between atoms: C_3  and  O_1 
REMARK    2  A    between atoms: C_4  and  O_14 
REMARK    3  A    between atoms: C_7  and  C_8 
REMARK    4  A    between atoms: C_9  and  C_10 
REMARK    5  A    between atoms: C_10  and  O_12 
ROOT
ATOM      1  C   LIG     1     184.425 184.013 174.682  0.00  0.00     0.162 A 
ATOM      2  C   LIG     1     185.598 183.278 174.859  0.00  0.00     0.158 A 
ATOM      3  C   LIG     1     186.796 183.735 174.311  0.00  0.00     0.050 A 
ATOM      4  C   LIG     1     186.822 184.926 173.584  0.00  0.00     0.012 A 
ATOM      5  C   LIG     1     185.650 185.659 173.407  0.00  0.00    -0.021 A 
ATOM      6  C   LIG     1     184.451 185.203 173.955  0.00  0.00     0.057 A 
ENDROOT
BRANCH   5   7
ATOM      7  C   LIG     1     185.677 186.901 172.650  0.00  0.00     0.015 C 
ATOM      8  C   LIG     1     185.439 187.015 171.324  0.00  0.00     0.092 C 
BRANCH   8   9
ATOM      9  C   LIG     1     185.487 188.339 170.674  0.00  0.00     0.330 C 
ATOM     10  O   LIG     1     184.536 188.971 170.245  0.00  0.00    -0.246 OA
BRANCH   9  11
ATOM     11  O   LIG     1     186.775 188.753 170.627  0.00  0.00    -0.478 OA
ATOM     12  H   LIG     1     187.318 188.345 171.335  0.00  0.00     0.295 HD
ENDBRANCH   9  11
ENDBRANCH   8   9
ENDBRANCH   5   7
BRANCH   1  13
ATOM     13  O   LIG     1     183.248 183.576 175.212  0.00  0.00    -0.491 OA
ATOM     14  C   LIG     1     182.220 183.212 174.293  0.00  0.00     0.277 C 
ENDBRANCH   1  13
BRANCH   2  15
ATOM     15  O   LIG     1     185.585 182.113 175.566  0.00  0.00    -0.503 OA
ATOM     16  H   LIG     1     186.251 182.164 176.273  0.00  0.00     0.292 HD
ENDBRANCH   2  15
TORSDOF 5
