REMARK VINA RESULT:      -5.4      0.894      2.387
REMARK  5 active torsions:
REMARK  status: ('A' for Active; 'I' for Inactive)
REMARK    1  A    between atoms: C_3  and  O_1 
REMARK    2  A    between atoms: C_4  and  O_14 
REMARK    3  A    between atoms: C_7  and  C_8 
REMARK    4  A    between atoms: C_9  and  C_10 
REMARK    5  A    between atoms: C_10  and  O_12 
ROOT
ATOM      1  C   LIG     1     185.191 165.950 163.706  0.00  0.00     0.162 A 
ATOM      2  C   LIG     1     186.054 165.920 162.610  0.00  0.00     0.158 A 
ATOM      3  C   LIG     1     185.536 165.843 161.318  0.00  0.00     0.050 A 
ATOM      4  C   LIG     1     184.155 165.795 161.121  0.00  0.00     0.012 A 
ATOM      5  C   LIG     1     183.294 165.824 162.216  0.00  0.00    -0.021 A 
ATOM      6  C   LIG     1     183.811 165.902 163.510  0.00  0.00     0.057 A 
ENDROOT
BRANCH   5   7
ATOM      7  C   LIG     1     181.855 165.775 162.011  0.00  0.00     0.015 C 
ATOM      8  C   LIG     1     181.087 166.810 161.603  0.00  0.00     0.092 C 
BRANCH   8   9
ATOM      9  C   LIG     1     179.633 166.628 161.423  0.00  0.00     0.330 C 
ATOM     10  O   LIG     1     179.085 165.704 160.845  0.00  0.00    -0.246 OA
BRANCH   9  11
ATOM     11  O   LIG     1     178.990 167.664 162.009  0.00  0.00    -0.478 OA
ATOM     12  H   LIG     1     178.123 167.395 162.382  0.00  0.00     0.295 HD
ENDBRANCH   9  11
ENDBRANCH   8   9
ENDBRANCH   5   7
BRANCH   1  13
ATOM     13  O   LIG     1     185.686 166.024 164.974  0.00  0.00    -0.491 OA
ATOM     14  C   LIG     1     185.549 164.863 165.791  0.00  0.00     0.277 C 
ENDBRANCH   1  13
BRANCH   2  15
ATOM     15  O   LIG     1     187.403 165.965 162.790  0.00  0.00    -0.503 OA
ATOM     16  H   LIG     1     187.598 165.915 163.742  0.00  0.00     0.292 HD
ENDBRANCH   2  15
TORSDOF 5
