REMARK VINA RESULT:      -5.0      6.881      9.607
REMARK  5 active torsions:
REMARK  status: ('A' for Active; 'I' for Inactive)
REMARK    1  A    between atoms: C_3  and  O_1 
REMARK    2  A    between atoms: C_4  and  O_14 
REMARK    3  A    between atoms: C_7  and  C_8 
REMARK    4  A    between atoms: C_9  and  C_10 
REMARK    5  A    between atoms: C_10  and  O_12 
ROOT
ATOM      1  C   LIG     1     188.483 170.358 158.437  0.00  0.00     0.162 A 
ATOM      2  C   LIG     1     187.540 170.477 157.416  0.00  0.00     0.158 A 
ATOM      3  C   LIG     1     187.021 171.729 157.089  0.00  0.00     0.050 A 
ATOM      4  C   LIG     1     187.443 172.863 157.784  0.00  0.00     0.012 A 
ATOM      5  C   LIG     1     188.385 172.744 158.805  0.00  0.00    -0.021 A 
ATOM      6  C   LIG     1     188.905 171.492 159.132  0.00  0.00     0.057 A 
ENDROOT
BRANCH   5   7
ATOM      7  C   LIG     1     188.826 173.925 159.529  0.00  0.00     0.015 C 
ATOM      8  C   LIG     1     188.825 174.065 160.873  0.00  0.00     0.092 C 
BRANCH   8   9
ATOM      9  C   LIG     1     189.309 175.317 161.488  0.00  0.00     0.330 C 
ATOM     10  O   LIG     1     190.286 175.962 161.146  0.00  0.00    -0.246 OA
BRANCH   9  11
ATOM     11  O   LIG     1     188.485 175.645 162.511  0.00  0.00    -0.478 OA
ATOM     12  H   LIG     1     188.132 174.851 162.967  0.00  0.00     0.295 HD
ENDBRANCH   9  11
ENDBRANCH   8   9
ENDBRANCH   5   7
BRANCH   1  13
ATOM     13  O   LIG     1     188.997 169.140 158.766  0.00  0.00    -0.491 OA
ATOM     14  C   LIG     1     188.660 168.620 160.051  0.00  0.00     0.277 C 
ENDBRANCH   1  13
BRANCH   2  15
ATOM     15  O   LIG     1     187.119 169.377 156.731  0.00  0.00    -0.503 OA
ATOM     16  H   LIG     1     186.569 168.830 157.318  0.00  0.00     0.292 HD
ENDBRANCH   2  15
TORSDOF 5
