REMARK VINA RESULT:      -5.1     13.980     15.954
REMARK  5 active torsions:
REMARK  status: ('A' for Active; 'I' for Inactive)
REMARK    1  A    between atoms: C_3  and  O_1 
REMARK    2  A    between atoms: C_4  and  O_14 
REMARK    3  A    between atoms: C_7  and  C_8 
REMARK    4  A    between atoms: C_9  and  C_10 
REMARK    5  A    between atoms: C_10  and  O_12 
ROOT
ATOM      1  C   LIG     1     174.703 177.836 170.375  0.00  0.00     0.162 A 
ATOM      2  C   LIG     1     175.058 178.874 169.513  0.00  0.00     0.158 A 
ATOM      3  C   LIG     1     174.716 178.806 168.163  0.00  0.00     0.050 A 
ATOM      4  C   LIG     1     174.019 177.701 167.674  0.00  0.00     0.012 A 
ATOM      5  C   LIG     1     173.665 176.664 168.536  0.00  0.00    -0.021 A 
ATOM      6  C   LIG     1     174.006 176.731 169.886  0.00  0.00     0.057 A 
ENDROOT
BRANCH   5   7
ATOM      7  C   LIG     1     172.938 175.512 168.027  0.00  0.00     0.015 C 
ATOM      8  C   LIG     1     173.415 174.248 167.969  0.00  0.00     0.092 C 
BRANCH   8   9
ATOM      9  C   LIG     1     172.571 173.161 167.437  0.00  0.00     0.330 C 
ATOM     10  O   LIG     1     171.415 172.923 167.747  0.00  0.00    -0.246 OA
BRANCH   9  11
ATOM     11  O   LIG     1     173.290 172.454 166.535  0.00  0.00    -0.478 OA
ATOM     12  H   LIG     1     173.833 171.758 166.962  0.00  0.00     0.295 HD
ENDBRANCH   9  11
ENDBRANCH   8   9
ENDBRANCH   5   7
BRANCH   1  13
ATOM     13  O   LIG     1     175.032 177.891 171.696  0.00  0.00    -0.491 OA
ATOM     14  C   LIG     1     176.170 177.137 172.111  0.00  0.00     0.277 C 
ENDBRANCH   1  13
BRANCH   2  15
ATOM     15  O   LIG     1     175.739 179.958 169.978  0.00  0.00    -0.503 OA
ATOM     16  H   LIG     1     175.615 180.699 169.360  0.00  0.00     0.292 HD
ENDBRANCH   2  15
TORSDOF 5
