REMARK VINA RESULT:      -6.6      1.172      2.831
REMARK  6 active torsions:
REMARK  status: ('A' for Active; 'I' for Inactive)
REMARK    1  A    between atoms: O_2  and  C_12 
REMARK    2  A    between atoms: O_3  and  C_14 
REMARK    3  A    between atoms: O_5  and  C_16 
REMARK    4  A    between atoms: O_6  and  C_20 
REMARK    5  A    between atoms: O_7  and  C_22 
REMARK    6  A    between atoms: C_10  and  C_11 
ROOT
HETATM    1  O   UNK     0     185.512 187.542 171.657  0.00  0.00    -0.306 OA
HETATM    2  O   UNK     0     181.969 186.222 170.138  0.00  0.00    -0.284 OA
HETATM    3  C   UNK     0     183.666 187.859 170.113  0.00  0.00     0.084 A 
HETATM    4  C   UNK     0     184.878 188.257 170.675  0.00  0.00     0.096 A 
HETATM    5  C   UNK     0     184.928 186.366 172.102  0.00  0.00     0.123 A 
HETATM    6  C   UNK     0     183.759 185.876 171.649  0.00  0.00     0.152 A 
HETATM    7  C   UNK     0     183.035 186.619 170.590  0.00  0.00     0.223 A 
HETATM    8  C   UNK     0     183.065 188.629 169.115  0.00  0.00     0.085 A 
HETATM    9  C   UNK     0     185.495 189.431 170.241  0.00  0.00     0.075 A 
HETATM   10  C   UNK     0     184.898 190.202 169.244  0.00  0.00     0.071 A 
HETATM   11  C   UNK     0     183.685 189.802 168.683  0.00  0.00     0.074 A 
ENDROOT
BRANCH   5  12
HETATM   12  C   UNK     0     185.711 185.698 173.156  0.00  0.00     0.004 A 
HETATM   13  C   UNK     0     185.636 186.149 174.473  0.00  0.00     0.053 A 
HETATM   14  C   UNK     0     186.377 185.516 175.471  0.00  0.00     0.099 A 
HETATM   15  C   UNK     0     187.193 184.431 175.151  0.00  0.00     0.098 A 
HETATM   16  C   UNK     0     187.268 183.979 173.834  0.00  0.00     0.040 A 
HETATM   17  C   UNK     0     186.527 184.612 172.836  0.00  0.00     0.017 A 
BRANCH  14  18
HETATM   18  O   UNK     0     186.297 185.966 176.754  0.00  0.00    -0.358 OA
HETATM   19  H   UNK     0     187.189 186.055 177.127  0.00  0.00     0.217 HD
ENDBRANCH  14  18
BRANCH  15  20
HETATM   20  O   UNK     0     187.920 183.803 176.117  0.00  0.00    -0.358 OA
HETATM   21  H   UNK     0     187.423 183.043 176.460  0.00  0.00     0.217 HD
ENDBRANCH  15  20
ENDBRANCH   5  12
BRANCH   6  22
HETATM   22  O   UNK     0     183.189 184.720 172.136  0.00  0.00    -0.355 OA
HETATM   23  H   UNK     0     183.855 184.199 172.613  0.00  0.00     0.218 HD
ENDBRANCH   6  22
BRANCH   8  24
HETATM   24  O   UNK     0     181.882 188.285 168.534  0.00  0.00    -0.360 OA
HETATM   25  H   UNK     0     181.495 187.516 168.979  0.00  0.00     0.217 HD
ENDBRANCH   8  24
BRANCH  10  26
HETATM   26  O   UNK     0     185.500 191.347 168.820  0.00  0.00    -0.361 OA
HETATM   27  H   UNK     0     186.129 191.128 168.111  0.00  0.00     0.217 HD
ENDBRANCH  10  26
TORSDOF 6
