MODEL 1
REMARK VINA RESULT:      -6.9      0.000      0.000
REMARK  5 active torsions:
REMARK  status: ('A' for Active; 'I' for Inactive)
REMARK    1  A    between atoms: C_3  and  O_1 
REMARK    2  A    between atoms: C_4  and  O_14 
REMARK    3  A    between atoms: C_7  and  C_8 
REMARK    4  A    between atoms: C_9  and  C_10 
REMARK    5  A    between atoms: C_10  and  O_12 
ROOT
ATOM      1  C   LIG     1     190.588 175.967 178.100  0.00  0.00     0.162 A 
ATOM      2  C   LIG     1     190.320 174.616 177.879  0.00  0.00     0.158 A 
ATOM      3  C   LIG     1     189.001 174.176 177.775  0.00  0.00     0.050 A 
ATOM      4  C   LIG     1     187.950 175.086 177.893  0.00  0.00     0.012 A 
ATOM      5  C   LIG     1     188.219 176.436 178.114  0.00  0.00    -0.021 A 
ATOM      6  C   LIG     1     189.538 176.878 178.218  0.00  0.00     0.057 A 
ENDROOT
BRANCH   5   7
ATOM      7  C   LIG     1     187.123 177.385 178.236  0.00  0.00     0.015 C 
ATOM      8  C   LIG     1     185.866 177.192 177.777  0.00  0.00     0.092 C 
BRANCH   8   9
ATOM      9  C   LIG     1     184.838 178.233 177.973  0.00  0.00     0.330 C 
ATOM     10  O   LIG     1     183.759 178.302 177.407  0.00  0.00    -0.246 OA
BRANCH   9  11
ATOM     11  O   LIG     1     185.285 179.116 178.896  0.00  0.00    -0.478 OA
ATOM     12  H   LIG     1     185.552 179.968 178.490  0.00  0.00     0.295 HD
ENDBRANCH   9  11
ENDBRANCH   8   9
ENDBRANCH   5   7
BRANCH   1  13
ATOM     13  O   LIG     1     191.873 176.409 178.205  0.00  0.00    -0.491 OA
ATOM     14  C   LIG     1     192.181 177.249 179.316  0.00  0.00     0.277 C 
ENDBRANCH   1  13
BRANCH   2  15
ATOM     15  O   LIG     1     191.337 173.718 177.764  0.00  0.00    -0.503 OA
ATOM     16  H   LIG     1     191.002 172.830 177.980  0.00  0.00     0.292 HD
ENDBRANCH   2  15
TORSDOF 5
ENDMDL
MODEL 2
REMARK VINA RESULT:      -6.5     34.159     35.750
REMARK  5 active torsions:
REMARK  status: ('A' for Active; 'I' for Inactive)
REMARK    1  A    between atoms: C_3  and  O_1 
REMARK    2  A    between atoms: C_4  and  O_14 
REMARK    3  A    between atoms: C_7  and  C_8 
REMARK    4  A    between atoms: C_9  and  C_10 
REMARK    5  A    between atoms: C_10  and  O_12 
ROOT
ATOM      1  C   LIG     1     170.977 164.195 148.148  0.00  0.00     0.162 A 
ATOM      2  C   LIG     1     169.770 164.750 148.576  0.00  0.00     0.158 A 
ATOM      3  C   LIG     1     169.766 165.965 149.259  0.00  0.00     0.050 A 
ATOM      4  C   LIG     1     170.967 166.626 149.516  0.00  0.00     0.012 A 
ATOM      5  C   LIG     1     172.172 166.072 149.089  0.00  0.00    -0.021 A 
ATOM      6  C   LIG     1     172.179 164.856 148.405  0.00  0.00     0.057 A 
ENDROOT
BRANCH   5   7
ATOM      7  C   LIG     1     173.425 166.762 149.355  0.00  0.00     0.015 C 
ATOM      8  C   LIG     1     174.509 166.755 148.548  0.00  0.00     0.092 C 
BRANCH   8   9
ATOM      9  C   LIG     1     175.721 167.507 148.929  0.00  0.00     0.330 C 
ATOM     10  O   LIG     1     175.938 168.689 148.716  0.00  0.00    -0.246 OA
BRANCH   9  11
ATOM     11  O   LIG     1     176.571 166.667 149.564  0.00  0.00    -0.478 OA
ATOM     12  H   LIG     1     176.312 165.727 149.451  0.00  0.00     0.295 HD
ENDBRANCH   9  11
ENDBRANCH   8   9
ENDBRANCH   5   7
BRANCH   1  13
ATOM     13  O   LIG     1     170.995 163.007 147.481  0.00  0.00    -0.491 OA
ATOM     14  C   LIG     1     170.795 163.055 146.069  0.00  0.00     0.277 C 
ENDBRANCH   1  13
BRANCH   2  15
ATOM     15  O   LIG     1     168.591 164.113 148.332  0.00  0.00    -0.503 OA
ATOM     16  H   LIG     1     168.117 164.584 147.626  0.00  0.00     0.292 HD
ENDBRANCH   2  15
TORSDOF 5
ENDMDL
MODEL 3
REMARK VINA RESULT:      -6.5      1.200      2.504
REMARK  5 active torsions:
REMARK  status: ('A' for Active; 'I' for Inactive)
REMARK    1  A    between atoms: C_3  and  O_1 
REMARK    2  A    between atoms: C_4  and  O_14 
REMARK    3  A    between atoms: C_7  and  C_8 
REMARK    4  A    between atoms: C_9  and  C_10 
REMARK    5  A    between atoms: C_10  and  O_12 
ROOT
ATOM      1  C   LIG     1     189.018 174.958 177.894  0.00  0.00     0.162 A 
ATOM      2  C   LIG     1     190.167 175.733 177.736  0.00  0.00     0.158 A 
ATOM      3  C   LIG     1     190.091 177.122 177.835  0.00  0.00     0.050 A 
ATOM      4  C   LIG     1     188.866 177.737 178.093  0.00  0.00     0.012 A 
ATOM      5  C   LIG     1     187.717 176.963 178.251  0.00  0.00    -0.021 A 
ATOM      6  C   LIG     1     187.792 175.574 178.152  0.00  0.00     0.057 A 
ENDROOT
BRANCH   5   7
ATOM      7  C   LIG     1     186.440 177.604 178.521  0.00  0.00     0.015 C 
ATOM      8  C   LIG     1     185.312 177.436 177.796  0.00  0.00     0.092 C 
BRANCH   8   9
ATOM      9  C   LIG     1     184.072 178.139 178.181  0.00  0.00     0.330 C 
ATOM     10  O   LIG     1     183.980 179.301 178.542  0.00  0.00    -0.246 OA
BRANCH   9  11
ATOM     11  O   LIG     1     183.033 177.279 178.069  0.00  0.00    -0.478 OA
ATOM     12  H   LIG     1     183.183 176.453 178.575  0.00  0.00     0.295 HD
ENDBRANCH   9  11
ENDBRANCH   8   9
ENDBRANCH   5   7
BRANCH   1  13
ATOM     13  O   LIG     1     189.079 173.601 177.798  0.00  0.00    -0.491 OA
ATOM     14  C   LIG     1     189.093 172.865 179.020  0.00  0.00     0.277 C 
ENDBRANCH   1  13
BRANCH   2  15
ATOM     15  O   LIG     1     191.369 175.144 177.482  0.00  0.00    -0.503 OA
ATOM     16  H   LIG     1     192.081 175.733 177.788  0.00  0.00     0.292 HD
ENDBRANCH   2  15
TORSDOF 5
ENDMDL
MODEL 4
REMARK VINA RESULT:      -6.4     41.320     42.738
REMARK  5 active torsions:
REMARK  status: ('A' for Active; 'I' for Inactive)
REMARK    1  A    between atoms: C_3  and  O_1 
REMARK    2  A    between atoms: C_4  and  O_14 
REMARK    3  A    between atoms: C_7  and  C_8 
REMARK    4  A    between atoms: C_9  and  C_10 
REMARK    5  A    between atoms: C_10  and  O_12 
ROOT
ATOM      1  C   LIG     1     149.730 177.313 162.771  0.00  0.00     0.162 A 
ATOM      2  C   LIG     1     150.283 176.228 162.090  0.00  0.00     0.158 A 
ATOM      3  C   LIG     1     150.449 176.285 160.707  0.00  0.00     0.050 A 
ATOM      4  C   LIG     1     150.063 177.427 160.004  0.00  0.00     0.012 A 
ATOM      5  C   LIG     1     149.511 178.511 160.685  0.00  0.00    -0.021 A 
ATOM      6  C   LIG     1     149.344 178.454 162.069  0.00  0.00     0.057 A 
ENDROOT
BRANCH   5   7
ATOM      7  C   LIG     1     149.109 179.701 159.953  0.00  0.00     0.015 C 
ATOM      8  C   LIG     1     148.471 180.768 160.484  0.00  0.00     0.092 C 
BRANCH   8   9
ATOM      9  C   LIG     1     148.126 181.924 159.633  0.00  0.00     0.330 C 
ATOM     10  O   LIG     1     147.142 182.636 159.742  0.00  0.00    -0.246 OA
BRANCH   9  11
ATOM     11  O   LIG     1     149.089 182.075 158.694  0.00  0.00    -0.478 OA
ATOM     12  H   LIG     1     149.344 181.219 158.288  0.00  0.00     0.295 HD
ENDBRANCH   9  11
ENDBRANCH   8   9
ENDBRANCH   5   7
BRANCH   1  13
ATOM     13  O   LIG     1     149.562 177.268 164.123  0.00  0.00    -0.491 OA
ATOM     14  C   LIG     1     148.530 178.084 164.674  0.00  0.00     0.277 C 
ENDBRANCH   1  13
BRANCH   2  15
ATOM     15  O   LIG     1     150.663 175.107 162.765  0.00  0.00    -0.503 OA
ATOM     16  H   LIG     1     151.095 174.495 162.144  0.00  0.00     0.292 HD
ENDBRANCH   2  15
TORSDOF 5
ENDMDL
MODEL 5
REMARK VINA RESULT:      -6.2      1.649      6.221
REMARK  5 active torsions:
REMARK  status: ('A' for Active; 'I' for Inactive)
REMARK    1  A    between atoms: C_3  and  O_1 
REMARK    2  A    between atoms: C_4  and  O_14 
REMARK    3  A    between atoms: C_7  and  C_8 
REMARK    4  A    between atoms: C_9  and  C_10 
REMARK    5  A    between atoms: C_10  and  O_12 
ROOT
ATOM      1  C   LIG     1     185.093 177.046 178.862  0.00  0.00     0.162 A 
ATOM      2  C   LIG     1     185.388 178.405 178.753  0.00  0.00     0.158 A 
ATOM      3  C   LIG     1     186.708 178.821 178.588  0.00  0.00     0.050 A 
ATOM      4  C   LIG     1     187.735 177.878 178.533  0.00  0.00     0.012 A 
ATOM      5  C   LIG     1     187.440 176.520 178.642  0.00  0.00    -0.021 A 
ATOM      6  C   LIG     1     186.119 176.103 178.806  0.00  0.00     0.057 A 
ENDROOT
BRANCH   5   7
ATOM      7  C   LIG     1     188.510 175.536 178.584  0.00  0.00     0.015 C 
ATOM      8  C   LIG     1     189.232 175.230 177.482  0.00  0.00     0.092 C 
BRANCH   8   9
ATOM      9  C   LIG     1     190.302 174.216 177.556  0.00  0.00     0.330 C 
ATOM     10  O   LIG     1     190.177 173.054 177.905  0.00  0.00    -0.246 OA
BRANCH   9  11
ATOM     11  O   LIG     1     191.467 174.786 177.169  0.00  0.00    -0.478 OA
ATOM     12  H   LIG     1     192.206 174.558 177.773  0.00  0.00     0.295 HD
ENDBRANCH   9  11
ENDBRANCH   8   9
ENDBRANCH   5   7
BRANCH   1  13
ATOM     13  O   LIG     1     183.806 176.628 179.023  0.00  0.00    -0.491 OA
ATOM     14  C   LIG     1     183.428 176.187 180.326  0.00  0.00     0.277 C 
ENDBRANCH   1  13
BRANCH   2  15
ATOM     15  O   LIG     1     184.394 179.336 178.806  0.00  0.00    -0.503 OA
ATOM     16  H   LIG     1     183.798 179.120 179.544  0.00  0.00     0.292 HD
ENDBRANCH   2  15
TORSDOF 5
ENDMDL
MODEL 6
REMARK VINA RESULT:      -6.2     41.642     43.336
REMARK  5 active torsions:
REMARK  status: ('A' for Active; 'I' for Inactive)
REMARK    1  A    between atoms: C_3  and  O_1 
REMARK    2  A    between atoms: C_4  and  O_14 
REMARK    3  A    between atoms: C_7  and  C_8 
REMARK    4  A    between atoms: C_9  and  C_10 
REMARK    5  A    between atoms: C_10  and  O_12 
ROOT
ATOM      1  C   LIG     1     150.184 177.126 160.233  0.00  0.00     0.162 A 
ATOM      2  C   LIG     1     150.127 176.828 161.595  0.00  0.00     0.158 A 
ATOM      3  C   LIG     1     149.555 177.738 162.484  0.00  0.00     0.050 A 
ATOM      4  C   LIG     1     149.040 178.946 162.012  0.00  0.00     0.012 A 
ATOM      5  C   LIG     1     149.097 179.243 160.651  0.00  0.00    -0.021 A 
ATOM      6  C   LIG     1     149.669 178.334 159.761  0.00  0.00     0.057 A 
ENDROOT
BRANCH   5   7
ATOM      7  C   LIG     1     148.560 180.501 160.159  0.00  0.00     0.015 C 
ATOM      8  C   LIG     1     147.296 180.942 160.353  0.00  0.00     0.092 C 
BRANCH   8   9
ATOM      9  C   LIG     1     146.875 182.247 159.807  0.00  0.00     0.330 C 
ATOM     10  O   LIG     1     145.782 182.517 159.336  0.00  0.00    -0.246 OA
BRANCH   9  11
ATOM     11  O   LIG     1     147.907 183.116 159.914  0.00  0.00    -0.478 OA
ATOM     12  H   LIG     1     147.854 183.651 160.735  0.00  0.00     0.295 HD
ENDBRANCH   9  11
ENDBRANCH   8   9
ENDBRANCH   5   7
BRANCH   1  13
ATOM     13  O   LIG     1     150.742 176.246 159.355  0.00  0.00    -0.491 OA
ATOM     14  C   LIG     1     150.842 176.664 157.995  0.00  0.00     0.277 C 
ENDBRANCH   1  13
BRANCH   2  15
ATOM     15  O   LIG     1     150.628 175.653 162.068  0.00  0.00    -0.503 OA
ATOM     16  H   LIG     1     150.877 175.768 163.002  0.00  0.00     0.292 HD
ENDBRANCH   2  15
TORSDOF 5
ENDMDL
MODEL 7
REMARK VINA RESULT:      -6.1     17.955     18.596
REMARK  5 active torsions:
REMARK  status: ('A' for Active; 'I' for Inactive)
REMARK    1  A    between atoms: C_3  and  O_1 
REMARK    2  A    between atoms: C_4  and  O_14 
REMARK    3  A    between atoms: C_7  and  C_8 
REMARK    4  A    between atoms: C_9  and  C_10 
REMARK    5  A    between atoms: C_10  and  O_12 
ROOT
ATOM      1  C   LIG     1     172.894 172.384 186.945  0.00  0.00     0.162 A 
ATOM      2  C   LIG     1     172.514 173.105 185.813  0.00  0.00     0.158 A 
ATOM      3  C   LIG     1     172.698 174.487 185.773  0.00  0.00     0.050 A 
ATOM      4  C   LIG     1     173.262 175.148 186.864  0.00  0.00     0.012 A 
ATOM      5  C   LIG     1     173.642 174.427 187.995  0.00  0.00    -0.021 A 
ATOM      6  C   LIG     1     173.459 173.045 188.037  0.00  0.00     0.057 A 
ENDROOT
BRANCH   5   7
ATOM      7  C   LIG     1     174.231 175.116 189.132  0.00  0.00     0.015 C 
ATOM      8  C   LIG     1     173.782 176.275 189.664  0.00  0.00     0.092 C 
BRANCH   8   9
ATOM      9  C   LIG     1     174.465 176.869 190.829  0.00  0.00     0.330 C 
ATOM     10  O   LIG     1     175.547 176.534 191.285  0.00  0.00    -0.246 OA
BRANCH   9  11
ATOM     11  O   LIG     1     173.693 177.864 191.324  0.00  0.00    -0.478 OA
ATOM     12  H   LIG     1     172.985 177.522 191.911  0.00  0.00     0.295 HD
ENDBRANCH   9  11
ENDBRANCH   8   9
ENDBRANCH   5   7
BRANCH   1  13
ATOM     13  O   LIG     1     172.719 171.033 186.997  0.00  0.00    -0.491 OA
ATOM     14  C   LIG     1     173.851 170.221 186.692  0.00  0.00     0.277 C 
ENDBRANCH   1  13
BRANCH   2  15
ATOM     15  O   LIG     1     171.961 172.471 184.742  0.00  0.00    -0.503 OA
ATOM     16  H   LIG     1     171.021 172.298 184.927  0.00  0.00     0.292 HD
ENDBRANCH   2  15
TORSDOF 5
ENDMDL
MODEL 8
REMARK VINA RESULT:      -5.9     40.800     41.869
REMARK  5 active torsions:
REMARK  status: ('A' for Active; 'I' for Inactive)
REMARK    1  A    between atoms: C_3  and  O_1 
REMARK    2  A    between atoms: C_4  and  O_14 
REMARK    3  A    between atoms: C_7  and  C_8 
REMARK    4  A    between atoms: C_9  and  C_10 
REMARK    5  A    between atoms: C_10  and  O_12 
ROOT
ATOM      1  C   LIG     1     154.091 195.402 166.555  0.00  0.00     0.162 A 
ATOM      2  C   LIG     1     153.521 194.828 167.692  0.00  0.00     0.158 A 
ATOM      3  C   LIG     1     153.231 195.620 168.802  0.00  0.00     0.050 A 
ATOM      4  C   LIG     1     153.511 196.987 168.777  0.00  0.00     0.012 A 
ATOM      5  C   LIG     1     154.081 197.560 167.641  0.00  0.00    -0.021 A 
ATOM      6  C   LIG     1     154.371 196.769 166.530  0.00  0.00     0.057 A 
ENDROOT
BRANCH   5   7
ATOM      7  C   LIG     1     154.371 198.985 167.614  0.00  0.00     0.015 C 
ATOM      8  C   LIG     1     153.875 199.901 168.476  0.00  0.00     0.092 C 
BRANCH   8   9
ATOM      9  C   LIG     1     154.257 201.321 168.348  0.00  0.00     0.330 C 
ATOM     10  O   LIG     1     153.596 202.284 168.702  0.00  0.00    -0.246 OA
BRANCH   9  11
ATOM     11  O   LIG     1     155.477 201.392 167.766  0.00  0.00    -0.478 OA
ATOM     12  H   LIG     1     156.130 201.848 168.338  0.00  0.00     0.295 HD
ENDBRANCH   9  11
ENDBRANCH   8   9
ENDBRANCH   5   7
BRANCH   1  13
ATOM     13  O   LIG     1     154.380 194.638 165.465  0.00  0.00    -0.491 OA
ATOM     14  C   LIG     1     153.671 194.931 164.263  0.00  0.00     0.277 C 
ENDBRANCH   1  13
BRANCH   2  15
ATOM     15  O   LIG     1     153.245 193.494 167.730  0.00  0.00    -0.503 OA
ATOM     16  H   LIG     1     152.304 193.372 167.946  0.00  0.00     0.292 HD
ENDBRANCH   2  15
TORSDOF 5
ENDMDL
MODEL 9
REMARK VINA RESULT:      -5.7     38.743     41.696
REMARK  5 active torsions:
REMARK  status: ('A' for Active; 'I' for Inactive)
REMARK    1  A    between atoms: C_3  and  O_1 
REMARK    2  A    between atoms: C_4  and  O_14 
REMARK    3  A    between atoms: C_7  and  C_8 
REMARK    4  A    between atoms: C_9  and  C_10 
REMARK    5  A    between atoms: C_10  and  O_12 
ROOT
ATOM      1  C   LIG     1     156.157 186.692 157.385  0.00  0.00     0.162 A 
ATOM      2  C   LIG     1     157.216 187.167 156.611  0.00  0.00     0.158 A 
ATOM      3  C   LIG     1     156.980 188.106 155.607  0.00  0.00     0.050 A 
ATOM      4  C   LIG     1     155.684 188.570 155.377  0.00  0.00     0.012 A 
ATOM      5  C   LIG     1     154.626 188.095 156.150  0.00  0.00    -0.021 A 
ATOM      6  C   LIG     1     154.862 187.156 157.155  0.00  0.00     0.057 A 
ENDROOT
BRANCH   5   7
ATOM      7  C   LIG     1     153.276 188.579 155.911  0.00  0.00     0.015 C 
ATOM      8  C   LIG     1     152.185 188.247 156.637  0.00  0.00     0.092 C 
BRANCH   8   9
ATOM      9  C   LIG     1     150.867 188.817 156.297  0.00  0.00     0.330 C 
ATOM     10  O   LIG     1     150.482 189.949 156.541  0.00  0.00    -0.246 OA
BRANCH   9  11
ATOM     11  O   LIG     1     150.137 187.873 155.659  0.00  0.00    -0.478 OA
ATOM     12  H   LIG     1     150.676 187.365 155.015  0.00  0.00     0.295 HD
ENDBRANCH   9  11
ENDBRANCH   8   9
ENDBRANCH   5   7
BRANCH   1  13
ATOM     13  O   LIG     1     156.375 185.774 158.368  0.00  0.00    -0.491 OA
ATOM     14  C   LIG     1     155.659 185.949 159.589  0.00  0.00     0.277 C 
ENDBRANCH   1  13
BRANCH   2  15
ATOM     15  O   LIG     1     158.485 186.720 156.826  0.00  0.00    -0.503 OA
ATOM     16  H   LIG     1     158.470 185.751 156.912  0.00  0.00     0.292 HD
ENDBRANCH   2  15
TORSDOF 5
ENDMDL
