allapininmol.mol
  ChemDraw04092511302D

 45 51  0  0  0  0  0  0  0  0999 V2000
   -3.8693   -1.1183    0.0000 C   0  0  0  0  0  0  0  0  0  0  0  0
   -3.1548   -1.5308    0.0000 C   0  0  0  0  0  0  0  0  0  0  0  0
   -2.4403   -1.1183    0.0000 C   0  0  0  0  0  0  0  0  0  0  0  0
   -2.4403   -0.2933    0.0000 C   0  0  0  0  0  0  0  0  0  0  0  0
   -3.1548    0.1192    0.0000 C   0  0  0  0  0  0  0  0  0  0  0  0
   -3.8693   -0.2933    0.0000 C   0  0  0  0  0  0  0  0  0  0  0  0
   -3.1548   -2.3558    0.0000 N   0  0  0  0  0  0  0  0  0  0  0  0
   -3.8693   -2.7683    0.0000 C   0  0  0  0  0  0  0  0  0  0  0  0
   -3.8693   -3.5933    0.0000 O   0  0  0  0  0  0  0  0  0  0  0  0
   -4.5837   -2.3558    0.0000 C   0  0  0  0  0  0  0  0  0  0  0  0
   -1.7258   -1.5308    0.0000 C   0  0  0  0  0  0  0  0  0  0  0  0
   -1.0114   -1.1183    0.0000 O   0  0  0  0  0  0  0  0  0  0  0  0
   -1.7258   -2.3558    0.0000 O   0  0  0  0  0  0  0  0  0  0  0  0
   -1.0114   -0.2933    0.0000 C   0  0  0  0  0  0  0  0  0  0  0  0
   -0.2969    0.1192    0.0000 C   0  0  0  0  0  0  0  0  0  0  0  0
   -0.2969    0.9442    0.0000 C   0  0  0  0  0  0  0  0  0  0  0  0
   -1.0114    1.3567    0.0000 C   0  0  0  0  0  0  0  0  0  0  0  0
   -1.7258    0.9442    0.0000 C   0  0  0  0  0  0  0  0  0  0  0  0
   -1.7258    0.1192    0.0000 C   0  0  0  0  0  0  0  0  0  0  0  0
    0.4176   -0.2933    0.0000 C   0  0  0  0  0  0  0  0  0  0  0  0
    0.4176    1.3567    0.0000 C   0  0  0  0  0  0  0  0  0  0  0  0
    1.2145   -0.0798    0.0000 C   0  0  0  0  0  0  0  0  0  0  0  0
    1.7978    0.5036    0.0000 C   0  0  0  0  0  0  0  0  0  0  0  0
    1.3853    1.2181    0.0000 C   0  0  0  0  0  0  0  0  0  0  0  0
    1.8162    2.0956    0.0000 C   0  0  0  0  0  0  0  0  0  0  0  0
    1.1148    2.7766    0.0000 C   0  0  0  0  0  0  0  0  0  0  0  0
    0.2504    2.3199    0.0000 C   0  0  0  0  0  0  0  0  0  0  0  0
    4.0198    0.4905    0.0000 C   0  0  0  0  0  0  0  0  0  0  0  0
    3.9992    2.0580    0.0000 C   0  0  0  0  0  0  0  0  0  0  0  0
   -0.2969   -0.7058    0.0000 H   0  0  0  0  0  0  0  0  0  0  0  0
    2.1113   -0.2595    0.0000 O   0  0  0  0  0  0  0  0  0  0  0  0
    2.2103    1.2181    0.0000 O   0  0  0  0  0  0  0  0  0  0  0  0
    1.0009    1.9401    0.0000 H   0  0  0  0  0  0  0  0  0  0  0  0
    1.2318    3.5933    0.0000 H   0  0  0  0  0  0  0  0  0  0  0  0
    4.5837    2.6401    0.0000 O   0  0  0  0  0  0  0  0  0  0  0  0
    4.3718    3.4375    0.0000 C   0  0  0  0  0  0  0  0  0  0  0  0
    2.6131    1.8821    0.0000 O   0  0  0  0  0  0  0  0  0  0  0  0
    2.8266    1.0852    0.0000 C   0  0  0  0  0  0  0  0  0  0  0  0
   -2.2708    2.4498    0.0000 N   0  0  0  0  0  0  0  0  0  0  0  0
   -1.2455    2.4498    0.0000 C   0  0  0  0  0  0  0  0  0  0  0  0
   -1.7258    1.7692    0.0000 O   0  0  0  0  0  0  0  0  0  0  0  0
   -2.4403    1.3567    0.0000 C   0  0  0  0  0  0  0  0  0  0  0  0
   -1.8083   -0.5068    0.0000 C   0  0  0  0  0  0  0  0  0  0  0  0
   -2.8542    3.0332    0.0000 C   0  0  0  0  0  0  0  0  0  0  0  0
   -3.5687    2.6207    0.0000 C   0  0  0  0  0  0  0  0  0  0  0  0
  1  2  2  0      
  2  3  1  0      
  3  4  2  0      
  4  5  1  0      
  5  6  2  0      
  6  1  1  0      
  2  7  1  0      
  7  8  1  0      
  8  9  2  0      
  8 10  1  0      
  3 11  1  0      
 11 12  1  0      
 11 13  2  0      
 12 14  1  0      
 14 15  1  0      
 15 16  1  0      
 16 17  1  0      
 17 18  1  0      
 18 19  1  0      
 19 14  1  0      
 15 20  1  0      
 16 21  1  0      
 20 22  1  0      
 22 23  1  0      
 23 24  1  0      
 21 24  1  0      
 24 25  1  0      
 25 26  1  0      
 26 27  1  0      
 27 21  1  0      
 23 28  1  0      
 29 28  1  0      
 15 30  1  1      
 23 31  1  1      
 24 32  1  1      
 21 33  1  1      
 26 34  1  1      
 29 35  1  1      
 35 36  1  0      
 26 29  1  0      
 25 37  1  6      
 37 38  1  0      
 39 40  1  0      
 17 41  1  6      
 41 42  1  0      
 16 40  1  6      
 22 40  1  6      
 14 43  1  6      
 39 43  1  0      
 39 44  1  0      
 44 45  1  0      
M  END
