Untitled Document-1
  ChemDraw04092512102D

 31 33  0  0  0  0  0  0  0  0999 V2000
   -2.5835    2.7758    0.0000 C   0  0  0  0  0  0  0  0  0  0  0  0
   -1.8690    2.3633    0.0000 C   0  0  0  0  0  0  0  0  0  0  0  0
   -1.1546    2.7758    0.0000 C   0  0  0  0  0  0  0  0  0  0  0  0
   -1.1546    3.6008    0.0000 C   0  0  0  0  0  0  0  0  0  0  0  0
   -1.8690    4.0133    0.0000 C   0  0  0  0  0  0  0  0  0  0  0  0
   -2.5835    3.6008    0.0000 C   0  0  0  0  0  0  0  0  0  0  0  0
   -0.3699    2.5208    0.0000 C   0  0  0  0  0  0  0  0  0  0  0  0
    0.1150    3.1883    0.0000 C   0  0  0  0  0  0  0  0  0  0  0  0
   -0.3699    3.8557    0.0000 O   0  0  0  0  0  0  0  0  0  0  0  0
    0.9400    3.1883    0.0000 C   0  0  0  0  0  0  0  0  0  0  0  0
    1.3525    2.4738    0.0000 C   0  0  0  0  0  0  0  0  0  0  0  0
    2.1775    2.4738    0.0000 C   0  0  0  0  0  0  0  0  0  0  0  0
    2.5900    1.7593    0.0000 C   0  0  0  0  0  0  0  0  0  0  0  0
   -0.1150    1.7362    0.0000 C   0  0  0  0  0  0  0  0  0  0  0  0
   -0.5275    1.0217    0.0000 C   0  0  0  0  0  0  0  0  0  0  0  0
    0.7055    1.6500    0.0000 O   0  0  0  0  0  0  0  0  0  0  0  0
   -1.3525    1.0217    0.0000 C   0  0  0  0  0  0  0  0  0  0  0  0
   -1.7650    0.3073    0.0000 C   0  0  0  0  0  0  0  0  0  0  0  0
   -1.3525   -0.4072    0.0000 C   0  0  0  0  0  0  0  0  0  0  0  0
   -0.5275   -0.4072    0.0000 C   0  0  0  0  0  0  0  0  0  0  0  0
   -0.1150    0.3073    0.0000 C   0  0  0  0  0  0  0  0  0  0  0  0
   -2.5900    0.3073    0.0000 I   0  0  0  0  0  0  0  0  0  0  0  0
   -1.7650   -1.1217    0.0000 O   0  0  0  0  0  0  0  0  0  0  0  0
   -0.1150   -1.1217    0.0000 I   0  0  0  0  0  0  0  0  0  0  0  0
   -1.3525   -1.8361    0.0000 C   0  0  0  0  0  0  0  0  0  0  0  0
   -1.9359   -2.4195    0.0000 C   0  0  0  0  0  0  0  0  0  0  0  0
   -1.3525   -3.0029    0.0000 N   0  0  0  0  0  0  0  0  0  0  0  0
   -1.5660   -3.7998    0.0000 C   0  0  0  0  0  0  0  0  0  0  0  0
   -0.5556   -2.7893    0.0000 C   0  0  0  0  0  0  0  0  0  0  0  0
   -0.3421   -1.9924    0.0000 C   0  0  0  0  0  0  0  0  0  0  0  0
   -2.3629   -4.0133    0.0000 C   0  0  0  0  0  0  0  0  0  0  0  0
  1  2  2  0      
  2  3  1  0      
  3  4  2  0      
  4  5  1  0      
  5  6  2  0      
  6  1  1  0      
  3  7  1  0      
  7  8  2  0      
  8  9  1  0      
  9  4  1  0      
  8 10  1  0      
 10 11  1  0      
 11 12  1  0      
 12 13  1  0      
  7 14  1  0      
 14 15  1  0      
 14 16  2  0      
 15 17  2  0      
 17 18  1  0      
 18 19  2  0      
 19 20  1  0      
 20 21  2  0      
 21 15  1  0      
 18 22  1  0      
 19 23  1  0      
 20 24  1  0      
 23 25  1  0      
 25 26  1  0      
 26 27  1  0      
 27 28  1  0      
 27 29  1  0      
 29 30  1  0      
 28 31  1  0      
M  END
