MODEL 1
REMARK VINA RESULT:      -8.6      0.000      0.000
REMARK  6 active torsions:
REMARK  status: ('A' for Active; 'I' for Inactive)
REMARK    1  A    between atoms: O_2  and  C_9 
REMARK    2  A    between atoms: O_4  and  C_14 
REMARK    3  A    between atoms: O_5  and  C_19 
REMARK    4  A    between atoms: O_6  and  C_20 
REMARK    5  A    between atoms: O_7  and  C_22 
REMARK    6  A    between atoms: C_8  and  C_10 
ROOT
HETATM    1  O   UNK     0       4.502  44.031  22.857  0.00  0.00    -0.337 OA
HETATM    2  O   UNK     0       2.072  41.310  20.977  0.00  0.00    -0.289 OA
HETATM    3  C   UNK     0       4.687  43.698  21.472  0.00  0.00     0.198 C 
HETATM    4  C   UNK     0       3.358  43.345  20.804  0.00  0.00     0.227 C 
HETATM    5  C   UNK     0       2.744  42.171  21.533  0.00  0.00     0.196 C 
HETATM    6  C   UNK     0       2.971  42.137  22.991  0.00  0.00     0.079 A 
HETATM    7  C   UNK     0       3.824  43.079  23.570  0.00  0.00     0.089 A 
HETATM    8  C   UNK     0       2.318  41.192  23.788  0.00  0.00     0.085 A 
HETATM    9  C   UNK     0       3.997  43.097  24.955  0.00  0.00     0.074 A 
HETATM   10  C   UNK     0       2.510  41.203  25.169  0.00  0.00     0.074 A 
HETATM   11  C   UNK     0       3.343  42.157  25.753  0.00  0.00     0.071 A 
ENDROOT
BRANCH   3  12
HETATM   12  C   UNK     0       5.352  44.889  20.808  0.00  0.00    -0.023 A 
HETATM   13  C   UNK     0       6.564  44.724  20.141  0.00  0.00     0.049 A 
HETATM   14  C   UNK     0       7.177  45.819  19.531  0.00  0.00     0.099 A 
HETATM   15  C   UNK     0       6.576  47.076  19.590  0.00  0.00     0.098 A 
HETATM   16  C   UNK     0       5.361  47.239  20.258  0.00  0.00     0.040 A 
HETATM   17  C   UNK     0       4.750  46.144  20.868  0.00  0.00     0.013 A 
BRANCH  14  18
HETATM   18  O   UNK     0       8.361  45.649  18.881  0.00  0.00    -0.358 OA
HETATM   19  H   UNK     0       8.542  46.449  18.358  0.00  0.00     0.217 HD
ENDBRANCH  14  18
BRANCH  15  20
HETATM   20  O   UNK     0       7.163  48.154  18.997  0.00  0.00    -0.358 OA
HETATM   21  H   UNK     0       7.054  48.082  18.033  0.00  0.00     0.217 HD
ENDBRANCH  15  20
ENDBRANCH   3  12
BRANCH   4  22
HETATM   22  O   UNK     0       3.574  42.963  19.456  0.00  0.00    -0.385 OA
HETATM   23  H   UNK     0       4.304  42.322  19.447  0.00  0.00     0.210 HD
ENDBRANCH   4  22
BRANCH   8  24
HETATM   24  O   UNK     0       1.479  40.250  23.274  0.00  0.00    -0.360 OA
HETATM   25  H   UNK     0       0.996  40.601  22.510  0.00  0.00     0.217 HD
ENDBRANCH   8  24
BRANCH  11  26
HETATM   26  O   UNK     0       3.521  42.170  27.102  0.00  0.00    -0.361 OA
HETATM   27  H   UNK     0       4.411  41.833  27.307  0.00  0.00     0.217 HD
ENDBRANCH  11  26
TORSDOF 6
ENDMDL
MODEL 2
REMARK VINA RESULT:      -7.7      1.365      3.254
REMARK  6 active torsions:
REMARK  status: ('A' for Active; 'I' for Inactive)
REMARK    1  A    between atoms: O_2  and  C_9 
REMARK    2  A    between atoms: O_4  and  C_14 
REMARK    3  A    between atoms: O_5  and  C_19 
REMARK    4  A    between atoms: O_6  and  C_20 
REMARK    5  A    between atoms: O_7  and  C_22 
REMARK    6  A    between atoms: C_8  and  C_10 
ROOT
HETATM    1  O   UNK     0       4.091  43.004  22.268  0.00  0.00    -0.337 OA
HETATM    2  O   UNK     0       4.670  43.503  26.300  0.00  0.00    -0.289 OA
HETATM    3  C   UNK     0       4.553  44.254  22.806  0.00  0.00     0.198 C 
HETATM    4  C   UNK     0       5.398  44.038  24.062  0.00  0.00     0.227 C 
HETATM    5  C   UNK     0       4.559  43.317  25.094  0.00  0.00     0.196 C 
HETATM    6  C   UNK     0       3.604  42.326  24.560  0.00  0.00     0.079 A 
HETATM    7  C   UNK     0       3.438  42.217  23.177  0.00  0.00     0.089 A 
HETATM    8  C   UNK     0       2.896  41.488  25.425  0.00  0.00     0.085 A 
HETATM    9  C   UNK     0       2.586  41.240  22.658  0.00  0.00     0.074 A 
HETATM   10  C   UNK     0       2.032  40.527  24.901  0.00  0.00     0.074 A 
HETATM   11  C   UNK     0       1.880  40.399  23.520  0.00  0.00     0.071 A 
ENDROOT
BRANCH   3  12
HETATM   12  C   UNK     0       5.338  44.951  21.712  0.00  0.00    -0.023 A 
HETATM   13  C   UNK     0       4.922  46.195  21.244  0.00  0.00     0.049 A 
HETATM   14  C   UNK     0       5.644  46.838  20.237  0.00  0.00     0.099 A 
HETATM   15  C   UNK     0       6.780  46.233  19.701  0.00  0.00     0.098 A 
HETATM   16  C   UNK     0       7.196  44.986  20.171  0.00  0.00     0.040 A 
HETATM   17  C   UNK     0       6.474  44.345  21.177  0.00  0.00     0.013 A 
BRANCH  14  18
HETATM   18  O   UNK     0       5.230  48.054  19.787  0.00  0.00    -0.358 OA
HETATM   19  H   UNK     0       5.871  48.724  20.081  0.00  0.00     0.217 HD
ENDBRANCH  14  18
BRANCH  15  20
HETATM   20  O   UNK     0       7.495  46.850  18.718  0.00  0.00    -0.358 OA
HETATM   21  H   UNK     0       6.878  47.228  18.068  0.00  0.00     0.217 HD
ENDBRANCH  15  20
ENDBRANCH   3  12
BRANCH   4  22
HETATM   22  O   UNK     0       5.791  45.286  24.607  0.00  0.00    -0.385 OA
HETATM   23  H   UNK     0       5.801  45.933  23.881  0.00  0.00     0.210 HD
ENDBRANCH   4  22
BRANCH   8  24
HETATM   24  O   UNK     0       3.019  41.555  26.780  0.00  0.00    -0.360 OA
HETATM   25  H   UNK     0       2.370  40.979  27.212  0.00  0.00     0.217 HD
ENDBRANCH   8  24
BRANCH  11  26
HETATM   26  O   UNK     0       1.042  39.455  23.012  0.00  0.00    -0.361 OA
HETATM   27  H   UNK     0       1.491  38.592  23.029  0.00  0.00     0.217 HD
ENDBRANCH  11  26
TORSDOF 6
ENDMDL
MODEL 3
REMARK VINA RESULT:      -7.5      1.603      7.002
REMARK  6 active torsions:
REMARK  status: ('A' for Active; 'I' for Inactive)
REMARK    1  A    between atoms: O_2  and  C_9 
REMARK    2  A    between atoms: O_4  and  C_14 
REMARK    3  A    between atoms: O_5  and  C_19 
REMARK    4  A    between atoms: O_6  and  C_20 
REMARK    5  A    between atoms: O_7  and  C_22 
REMARK    6  A    between atoms: C_8  and  C_10 
ROOT
HETATM    1  O   UNK     0       6.066  43.135  21.091  0.00  0.00    -0.337 OA
HETATM    2  O   UNK     0       5.317  47.106  20.369  0.00  0.00    -0.289 OA
HETATM    3  C   UNK     0       5.057  43.849  21.823  0.00  0.00     0.198 C 
HETATM    4  C   UNK     0       4.422  44.945  20.967  0.00  0.00     0.227 C 
HETATM    5  C   UNK     0       5.505  45.904  20.523  0.00  0.00     0.196 C 
HETATM    6  C   UNK     0       6.820  45.295  20.245  0.00  0.00     0.079 A 
HETATM    7  C   UNK     0       7.019  43.942  20.530  0.00  0.00     0.089 A 
HETATM    8  C   UNK     0       7.845  46.055  19.675  0.00  0.00     0.085 A 
HETATM    9  C   UNK     0       8.237  43.340  20.211  0.00  0.00     0.074 A 
HETATM   10  C   UNK     0       9.067  45.452  19.377  0.00  0.00     0.074 A 
HETATM   11  C   UNK     0       9.261  44.096  19.639  0.00  0.00     0.071 A 
ENDROOT
BRANCH   3  12
HETATM   12  C   UNK     0       4.032  42.830  22.284  0.00  0.00    -0.023 A 
HETATM   13  C   UNK     0       3.810  42.638  23.646  0.00  0.00     0.049 A 
HETATM   14  C   UNK     0       2.867  41.701  24.072  0.00  0.00     0.099 A 
HETATM   15  C   UNK     0       2.150  40.959  23.133  0.00  0.00     0.098 A 
HETATM   16  C   UNK     0       2.373  41.154  21.770  0.00  0.00     0.040 A 
HETATM   17  C   UNK     0       3.316  42.090  21.346  0.00  0.00     0.013 A 
BRANCH  14  18
HETATM   18  O   UNK     0       2.656  41.520  25.405  0.00  0.00    -0.358 OA
HETATM   19  H   UNK     0       2.409  42.376  25.794  0.00  0.00     0.217 HD
ENDBRANCH  14  18
BRANCH  15  20
HETATM   20  O   UNK     0       1.225  40.042  23.536  0.00  0.00    -0.358 OA
HETATM   21  H   UNK     0       0.335  40.410  23.402  0.00  0.00     0.217 HD
ENDBRANCH  15  20
ENDBRANCH   3  12
BRANCH   4  22
HETATM   22  O   UNK     0       3.473  45.673  21.729  0.00  0.00    -0.385 OA
HETATM   23  H   UNK     0       2.897  45.028  22.173  0.00  0.00     0.210 HD
ENDBRANCH   4  22
BRANCH   8  24
HETATM   24  O   UNK     0       7.705  47.378  19.381  0.00  0.00    -0.360 OA
HETATM   25  H   UNK     0       7.681  47.515  18.422  0.00  0.00     0.217 HD
ENDBRANCH   8  24
BRANCH  11  26
HETATM   26  O   UNK     0      10.452  43.509  19.339  0.00  0.00    -0.361 OA
HETATM   27  H   UNK     0      10.515  43.397  18.375  0.00  0.00     0.217 HD
ENDBRANCH  11  26
TORSDOF 6
ENDMDL
MODEL 4
REMARK VINA RESULT:      -7.2      1.579      6.982
REMARK  6 active torsions:
REMARK  status: ('A' for Active; 'I' for Inactive)
REMARK    1  A    between atoms: O_2  and  C_9 
REMARK    2  A    between atoms: O_4  and  C_14 
REMARK    3  A    between atoms: O_5  and  C_19 
REMARK    4  A    between atoms: O_6  and  C_20 
REMARK    5  A    between atoms: O_7  and  C_22 
REMARK    6  A    between atoms: C_8  and  C_10 
ROOT
HETATM    1  O   UNK     0       4.725  44.152  21.568  0.00  0.00    -0.337 OA
HETATM    2  O   UNK     0       8.496  42.873  20.576  0.00  0.00    -0.289 OA
HETATM    3  C   UNK     0       5.037  42.753  21.474  0.00  0.00     0.198 C 
HETATM    4  C   UNK     0       6.491  42.482  21.862  0.00  0.00     0.227 C 
HETATM    5  C   UNK     0       7.395  43.270  20.939  0.00  0.00     0.196 C 
HETATM    6  C   UNK     0       6.883  44.589  20.519  0.00  0.00     0.079 A 
HETATM    7  C   UNK     0       5.584  44.960  20.872  0.00  0.00     0.089 A 
HETATM    8  C   UNK     0       7.698  45.469  19.802  0.00  0.00     0.085 A 
HETATM    9  C   UNK     0       5.111  46.230  20.537  0.00  0.00     0.074 A 
HETATM   10  C   UNK     0       7.214  46.729  19.453  0.00  0.00     0.074 A 
HETATM   11  C   UNK     0       5.924  47.112  19.824  0.00  0.00     0.071 A 
ENDROOT
BRANCH   3  12
HETATM   12  C   UNK     0       4.067  42.015  22.377  0.00  0.00    -0.023 A 
HETATM   13  C   UNK     0       3.281  40.988  21.858  0.00  0.00     0.049 A 
HETATM   14  C   UNK     0       2.388  40.308  22.687  0.00  0.00     0.099 A 
HETATM   15  C   UNK     0       2.284  40.658  24.033  0.00  0.00     0.098 A 
HETATM   16  C   UNK     0       3.072  41.686  24.551  0.00  0.00     0.040 A 
HETATM   17  C   UNK     0       3.964  42.365  23.721  0.00  0.00     0.013 A 
BRANCH  14  18
HETATM   18  O   UNK     0       1.625  39.306  22.171  0.00  0.00    -0.358 OA
HETATM   19  H   UNK     0       2.131  38.868  21.465  0.00  0.00     0.217 HD
ENDBRANCH  14  18
BRANCH  15  20
HETATM   20  O   UNK     0       1.417  40.001  24.854  0.00  0.00    -0.358 OA
HETATM   21  H   UNK     0       1.037  40.635  25.486  0.00  0.00     0.217 HD
ENDBRANCH  15  20
ENDBRANCH   3  12
BRANCH   4  22
HETATM   22  O   UNK     0       6.791  41.106  21.704  0.00  0.00    -0.385 OA
HETATM   23  H   UNK     0       7.038  40.965  20.774  0.00  0.00     0.210 HD
ENDBRANCH   4  22
BRANCH   8  24
HETATM   24  O   UNK     0       8.971  45.157  19.430  0.00  0.00    -0.360 OA
HETATM   25  H   UNK     0       9.130  45.409  18.508  0.00  0.00     0.217 HD
ENDBRANCH   8  24
BRANCH  11  26
HETATM   26  O   UNK     0       5.458  48.346  19.488  0.00  0.00    -0.361 OA
HETATM   27  H   UNK     0       4.703  48.244  18.883  0.00  0.00     0.217 HD
ENDBRANCH  11  26
TORSDOF 6
ENDMDL
MODEL 5
REMARK VINA RESULT:      -7.2      2.588      6.929
REMARK  6 active torsions:
REMARK  status: ('A' for Active; 'I' for Inactive)
REMARK    1  A    between atoms: O_2  and  C_9 
REMARK    2  A    between atoms: O_4  and  C_14 
REMARK    3  A    between atoms: O_5  and  C_19 
REMARK    4  A    between atoms: O_6  and  C_20 
REMARK    5  A    between atoms: O_7  and  C_22 
REMARK    6  A    between atoms: C_8  and  C_10 
ROOT
HETATM    1  O   UNK     0       7.192  43.277  20.666  0.00  0.00    -0.337 OA
HETATM    2  O   UNK     0       7.851  45.605  17.351  0.00  0.00    -0.289 OA
HETATM    3  C   UNK     0       6.236  44.262  20.245  0.00  0.00     0.198 C 
HETATM    4  C   UNK     0       6.249  44.434  18.725  0.00  0.00     0.227 C 
HETATM    5  C   UNK     0       7.638  44.855  18.296  0.00  0.00     0.196 C 
HETATM    6  C   UNK     0       8.749  44.271  19.072  0.00  0.00     0.079 A 
HETATM    7  C   UNK     0       8.461  43.503  20.202  0.00  0.00     0.089 A 
HETATM    8  C   UNK     0      10.072  44.459  18.665  0.00  0.00     0.085 A 
HETATM    9  C   UNK     0       9.500  42.892  20.907  0.00  0.00     0.074 A 
HETATM   10  C   UNK     0      11.107  43.862  19.384  0.00  0.00     0.074 A 
HETATM   11  C   UNK     0      10.822  43.076  20.500  0.00  0.00     0.071 A 
ENDROOT
BRANCH   3  12
HETATM   12  C   UNK     0       4.877  43.813  20.748  0.00  0.00    -0.023 A 
HETATM   13  C   UNK     0       4.019  43.117  19.900  0.00  0.00     0.049 A 
HETATM   14  C   UNK     0       2.769  42.704  20.363  0.00  0.00     0.099 A 
HETATM   15  C   UNK     0       2.381  42.989  21.671  0.00  0.00     0.098 A 
HETATM   16  C   UNK     0       3.242  43.686  22.519  0.00  0.00     0.040 A 
HETATM   17  C   UNK     0       4.491  44.099  22.056  0.00  0.00     0.013 A 
BRANCH  14  18
HETATM   18  O   UNK     0       1.936  42.023  19.527  0.00  0.00    -0.358 OA
HETATM   19  H   UNK     0       2.260  42.133  18.616  0.00  0.00     0.217 HD
ENDBRANCH  14  18
BRANCH  15  20
HETATM   20  O   UNK     0       1.163  42.590  22.135  0.00  0.00    -0.358 OA
HETATM   21  H   UNK     0       0.968  43.065  22.962  0.00  0.00     0.217 HD
ENDBRANCH  15  20
ENDBRANCH   3  12
BRANCH   4  22
HETATM   22  O   UNK     0       5.341  45.453  18.340  0.00  0.00    -0.385 OA
HETATM   23  H   UNK     0       5.269  45.430  17.371  0.00  0.00     0.210 HD
ENDBRANCH   4  22
BRANCH   8  24
HETATM   24  O   UNK     0      10.408  45.202  17.573  0.00  0.00    -0.360 OA
HETATM   25  H   UNK     0       9.656  45.736  17.277  0.00  0.00     0.217 HD
ENDBRANCH   8  24
BRANCH  11  26
HETATM   26  O   UNK     0      11.835  42.488  21.194  0.00  0.00    -0.361 OA
HETATM   27  H   UNK     0      11.473  42.092  22.006  0.00  0.00     0.217 HD
ENDBRANCH  11  26
TORSDOF 6
ENDMDL
MODEL 6
REMARK VINA RESULT:      -7.2      2.949      5.159
REMARK  6 active torsions:
REMARK  status: ('A' for Active; 'I' for Inactive)
REMARK    1  A    between atoms: O_2  and  C_9 
REMARK    2  A    between atoms: O_4  and  C_14 
REMARK    3  A    between atoms: O_5  and  C_19 
REMARK    4  A    between atoms: O_6  and  C_20 
REMARK    5  A    between atoms: O_7  and  C_22 
REMARK    6  A    between atoms: C_8  and  C_10 
ROOT
HETATM    1  O   UNK     0       7.538  43.317  20.266  0.00  0.00    -0.337 OA
HETATM    2  O   UNK     0       5.531  46.859  20.783  0.00  0.00    -0.289 OA
HETATM    3  C   UNK     0       7.898  44.493  19.524  0.00  0.00     0.198 C 
HETATM    4  C   UNK     0       7.634  45.762  20.335  0.00  0.00     0.227 C 
HETATM    5  C   UNK     0       6.164  45.814  20.691  0.00  0.00     0.196 C 
HETATM    6  C   UNK     0       5.529  44.510  20.966  0.00  0.00     0.079 A 
HETATM    7  C   UNK     0       6.258  43.338  20.753  0.00  0.00     0.089 A 
HETATM    8  C   UNK     0       4.224  44.450  21.461  0.00  0.00     0.085 A 
HETATM    9  C   UNK     0       5.691  42.103  21.070  0.00  0.00     0.074 A 
HETATM   10  C   UNK     0       3.655  43.211  21.757  0.00  0.00     0.074 A 
HETATM   11  C   UNK     0       4.388  42.040  21.567  0.00  0.00     0.071 A 
ENDROOT
BRANCH   3  12
HETATM   12  C   UNK     0       9.362  44.358  19.151  0.00  0.00    -0.023 A 
HETATM   13  C   UNK     0       9.862  45.040  18.045  0.00  0.00     0.049 A 
HETATM   14  C   UNK     0      11.209  44.917  17.701  0.00  0.00     0.099 A 
HETATM   15  C   UNK     0      12.051  44.109  18.464  0.00  0.00     0.098 A 
HETATM   16  C   UNK     0      11.549  43.427  19.573  0.00  0.00     0.040 A 
HETATM   17  C   UNK     0      10.203  43.551  19.916  0.00  0.00     0.013 A 
BRANCH  14  18
HETATM   18  O   UNK     0      11.689  45.588  16.618  0.00  0.00    -0.358 OA
HETATM   19  H   UNK     0      12.174  46.371  16.933  0.00  0.00     0.217 HD
ENDBRANCH  14  18
BRANCH  15  20
HETATM   20  O   UNK     0      13.369  43.981  18.140  0.00  0.00    -0.358 OA
HETATM   21  H   UNK     0      13.488  43.170  17.616  0.00  0.00     0.217 HD
ENDBRANCH  15  20
ENDBRANCH   3  12
BRANCH   4  22
HETATM   22  O   UNK     0       7.941  46.909  19.560  0.00  0.00    -0.385 OA
HETATM   23  H   UNK     0       7.695  46.716  18.640  0.00  0.00     0.210 HD
ENDBRANCH   4  22
BRANCH   8  24
HETATM   24  O   UNK     0       3.468  45.562  21.683  0.00  0.00    -0.360 OA
HETATM   25  H   UNK     0       2.524  45.340  21.684  0.00  0.00     0.217 HD
ENDBRANCH   8  24
BRANCH  11  26
HETATM   26  O   UNK     0       3.833  40.834  21.866  0.00  0.00    -0.361 OA
HETATM   27  H   UNK     0       4.244  40.150  21.309  0.00  0.00     0.217 HD
ENDBRANCH  11  26
TORSDOF 6
ENDMDL
MODEL 7
REMARK VINA RESULT:      -7.2      1.343      6.629
REMARK  6 active torsions:
REMARK  status: ('A' for Active; 'I' for Inactive)
REMARK    1  A    between atoms: O_2  and  C_9 
REMARK    2  A    between atoms: O_4  and  C_14 
REMARK    3  A    between atoms: O_5  and  C_19 
REMARK    4  A    between atoms: O_6  and  C_20 
REMARK    5  A    between atoms: O_7  and  C_22 
REMARK    6  A    between atoms: C_8  and  C_10 
ROOT
HETATM    1  O   UNK     0       5.631  44.195  22.264  0.00  0.00    -0.337 OA
HETATM    2  O   UNK     0       4.017  43.143  18.641  0.00  0.00    -0.289 OA
HETATM    3  C   UNK     0       4.278  43.726  22.159  0.00  0.00     0.198 C 
HETATM    4  C   UNK     0       4.126  42.723  21.015  0.00  0.00     0.227 C 
HETATM    5  C   UNK     0       4.536  43.394  19.722  0.00  0.00     0.196 C 
HETATM    6  C   UNK     0       5.644  44.363  19.831  0.00  0.00     0.079 A 
HETATM    7  C   UNK     0       6.138  44.695  21.094  0.00  0.00     0.089 A 
HETATM    8  C   UNK     0       6.212  44.920  18.682  0.00  0.00     0.085 A 
HETATM    9  C   UNK     0       7.227  45.560  21.206  0.00  0.00     0.074 A 
HETATM   10  C   UNK     0       7.288  45.799  18.801  0.00  0.00     0.074 A 
HETATM   11  C   UNK     0       7.798  46.115  20.060  0.00  0.00     0.071 A 
ENDROOT
BRANCH   3  12
HETATM   12  C   UNK     0       3.909  43.115  23.497  0.00  0.00    -0.023 A 
HETATM   13  C   UNK     0       3.049  42.020  23.546  0.00  0.00     0.049 A 
HETATM   14  C   UNK     0       2.709  41.456  24.776  0.00  0.00     0.099 A 
HETATM   15  C   UNK     0       3.229  41.990  25.954  0.00  0.00     0.098 A 
HETATM   16  C   UNK     0       4.091  43.087  25.904  0.00  0.00     0.040 A 
HETATM   17  C   UNK     0       4.430  43.649  24.674  0.00  0.00     0.013 A 
BRANCH  14  18
HETATM   18  O   UNK     0       1.868  40.385  24.814  0.00  0.00    -0.358 OA
HETATM   19  H   UNK     0       0.999  40.690  25.128  0.00  0.00     0.217 HD
ENDBRANCH  14  18
BRANCH  15  20
HETATM   20  O   UNK     0       2.906  41.448  27.162  0.00  0.00    -0.358 OA
HETATM   21  H   UNK     0       3.233  40.533  27.196  0.00  0.00     0.217 HD
ENDBRANCH  15  20
ENDBRANCH   3  12
BRANCH   4  22
HETATM   22  O   UNK     0       2.772  42.321  20.894  0.00  0.00    -0.385 OA
HETATM   23  H   UNK     0       2.587  41.692  21.611  0.00  0.00     0.210 HD
ENDBRANCH   4  22
BRANCH   8  24
HETATM   24  O   UNK     0       5.766  44.633  17.427  0.00  0.00    -0.360 OA
HETATM   25  H   UNK     0       6.511  44.500  16.821  0.00  0.00     0.217 HD
ENDBRANCH   8  24
BRANCH  11  26
HETATM   26  O   UNK     0       8.854  46.967  20.171  0.00  0.00    -0.361 OA
HETATM   27  H   UNK     0       8.519  47.865  20.340  0.00  0.00     0.217 HD
ENDBRANCH  11  26
TORSDOF 6
ENDMDL
MODEL 8
REMARK VINA RESULT:      -6.9      2.635      6.797
REMARK  6 active torsions:
REMARK  status: ('A' for Active; 'I' for Inactive)
REMARK    1  A    between atoms: O_2  and  C_9 
REMARK    2  A    between atoms: O_4  and  C_14 
REMARK    3  A    between atoms: O_5  and  C_19 
REMARK    4  A    between atoms: O_6  and  C_20 
REMARK    5  A    between atoms: O_7  and  C_22 
REMARK    6  A    between atoms: C_8  and  C_10 
ROOT
HETATM    1  O   UNK     0       4.164  41.570  23.806  0.00  0.00    -0.337 OA
HETATM    2  O   UNK     0       3.007  44.617  21.312  0.00  0.00    -0.289 OA
HETATM    3  C   UNK     0       2.799  41.709  23.383  0.00  0.00     0.198 C 
HETATM    4  C   UNK     0       2.711  42.317  21.983  0.00  0.00     0.227 C 
HETATM    5  C   UNK     0       3.382  43.674  21.999  0.00  0.00     0.196 C 
HETATM    6  C   UNK     0       4.560  43.791  22.879  0.00  0.00     0.079 A 
HETATM    7  C   UNK     0       4.892  42.726  23.720  0.00  0.00     0.089 A 
HETATM    8  C   UNK     0       5.352  44.942  22.851  0.00  0.00     0.085 A 
HETATM    9  C   UNK     0       6.041  42.800  24.509  0.00  0.00     0.074 A 
HETATM   10  C   UNK     0       6.488  45.018  23.657  0.00  0.00     0.074 A 
HETATM   11  C   UNK     0       6.835  43.947  24.481  0.00  0.00     0.071 A 
ENDROOT
BRANCH   3  12
HETATM   12  C   UNK     0       2.168  40.331  23.439  0.00  0.00    -0.023 A 
HETATM   13  C   UNK     0       2.254  39.484  22.337  0.00  0.00     0.049 A 
HETATM   14  C   UNK     0       1.674  38.216  22.387  0.00  0.00     0.099 A 
HETATM   15  C   UNK     0       1.009  37.799  23.539  0.00  0.00     0.098 A 
HETATM   16  C   UNK     0       0.924  38.649  24.643  0.00  0.00     0.040 A 
HETATM   17  C   UNK     0       1.504  39.916  24.592  0.00  0.00     0.013 A 
BRANCH  14  18
HETATM   18  O   UNK     0       1.763  37.394  21.304  0.00  0.00    -0.358 OA
HETATM   19  H   UNK     0       2.424  37.764  20.693  0.00  0.00     0.217 HD
ENDBRANCH  14  18
BRANCH  15  20
HETATM   20  O   UNK     0       0.439  36.562  23.602  0.00  0.00    -0.358 OA
HETATM   21  H   UNK     0       0.526  36.219  24.508  0.00  0.00     0.217 HD
ENDBRANCH  15  20
ENDBRANCH   3  12
BRANCH   4  22
HETATM   22  O   UNK     0       1.355  42.500  21.613  0.00  0.00    -0.385 OA
HETATM   23  H   UNK     0       1.154  41.859  20.910  0.00  0.00     0.210 HD
ENDBRANCH   4  22
BRANCH   8  24
HETATM   24  O   UNK     0       5.071  46.010  22.053  0.00  0.00    -0.360 OA
HETATM   25  H   UNK     0       4.118  46.182  22.034  0.00  0.00     0.217 HD
ENDBRANCH   8  24
BRANCH  11  26
HETATM   26  O   UNK     0       7.949  44.022  25.260  0.00  0.00    -0.361 OA
HETATM   27  H   UNK     0       8.375  43.148  25.287  0.00  0.00     0.217 HD
ENDBRANCH  11  26
TORSDOF 6
ENDMDL
MODEL 9
REMARK VINA RESULT:      -6.9      2.119      7.380
REMARK  6 active torsions:
REMARK  status: ('A' for Active; 'I' for Inactive)
REMARK    1  A    between atoms: O_2  and  C_9 
REMARK    2  A    between atoms: O_4  and  C_14 
REMARK    3  A    between atoms: O_5  and  C_19 
REMARK    4  A    between atoms: O_6  and  C_20 
REMARK    5  A    between atoms: O_7  and  C_22 
REMARK    6  A    between atoms: C_8  and  C_10 
ROOT
HETATM    1  O   UNK     0       3.226  41.809  21.297  0.00  0.00    -0.337 OA
HETATM    2  O   UNK     0       4.596  44.422  24.150  0.00  0.00    -0.289 OA
HETATM    3  C   UNK     0       3.438  41.388  22.653  0.00  0.00     0.198 C 
HETATM    4  C   UNK     0       3.186  42.532  23.635  0.00  0.00     0.227 C 
HETATM    5  C   UNK     0       4.122  43.673  23.303  0.00  0.00     0.196 C 
HETATM    6  C   UNK     0       4.410  43.864  21.868  0.00  0.00     0.079 A 
HETATM    7  C   UNK     0       3.931  42.929  20.947  0.00  0.00     0.089 A 
HETATM    8  C   UNK     0       5.128  44.981  21.433  0.00  0.00     0.085 A 
HETATM    9  C   UNK     0       4.143  43.133  19.582  0.00  0.00     0.074 A 
HETATM   10  C   UNK     0       5.352  45.168  20.070  0.00  0.00     0.074 A 
HETATM   11  C   UNK     0       4.856  44.250  19.145  0.00  0.00     0.071 A 
ENDROOT
BRANCH   3  12
HETATM   12  C   UNK     0       2.514  40.212  22.908  0.00  0.00    -0.023 A 
HETATM   13  C   UNK     0       2.432  39.180  21.977  0.00  0.00     0.049 A 
HETATM   14  C   UNK     0       1.582  38.098  22.211  0.00  0.00     0.099 A 
HETATM   15  C   UNK     0       0.815  38.053  23.375  0.00  0.00     0.098 A 
HETATM   16  C   UNK     0       0.899  39.089  24.306  0.00  0.00     0.040 A 
HETATM   17  C   UNK     0       1.749  40.169  24.072  0.00  0.00     0.013 A 
BRANCH  14  18
HETATM   18  O   UNK     0       1.508  37.093  21.295  0.00  0.00    -0.358 OA
HETATM   19  H   UNK     0       2.351  36.607  21.306  0.00  0.00     0.217 HD
ENDBRANCH  14  18
BRANCH  15  20
HETATM   20  O   UNK     0      -0.018  37.002  23.616  0.00  0.00    -0.358 OA
HETATM   21  H   UNK     0      -0.428  37.117  24.490  0.00  0.00     0.217 HD
ENDBRANCH  15  20
ENDBRANCH   3  12
BRANCH   4  22
HETATM   22  O   UNK     0       3.460  42.108  24.960  0.00  0.00    -0.385 OA
HETATM   23  H   UNK     0       4.139  41.414  24.912  0.00  0.00     0.210 HD
ENDBRANCH   4  22
BRANCH   8  24
HETATM   24  O   UNK     0       5.620  45.920  22.289  0.00  0.00    -0.360 OA
HETATM   25  H   UNK     0       5.379  45.709  23.204  0.00  0.00     0.217 HD
ENDBRANCH   8  24
BRANCH  11  26
HETATM   26  O   UNK     0       5.070  44.441  17.814  0.00  0.00    -0.361 OA
HETATM   27  H   UNK     0       5.165  45.394  17.643  0.00  0.00     0.217 HD
ENDBRANCH  11  26
TORSDOF 6
ENDMDL
