MODEL 1
REMARK VINA RESULT:      -7.5      0.000      0.000
REMARK  13 active torsions:
REMARK  status: ('A' for Active; 'I' for Inactive)
REMARK    1  A    between atoms: C_2  and  O_12 
REMARK    2  A    between atoms: C_3  and  O_10 
REMARK    3  A    between atoms: C_4  and  O_8 
REMARK    4  A    between atoms: C_5  and  O_6 
REMARK    5  A    between atoms: C_22  and  C_23 
REMARK    6  A    between atoms: O_12  and  C_13 
REMARK    7  A    between atoms: C_13  and  C_14 
REMARK    8  A    between atoms: C_15  and  C_16 
REMARK    9  A    between atoms: C_23  and  O_24 
REMARK   10  A    between atoms: O_24  and  C_25 
REMARK   11  A    between atoms: C_26  and  O_34 
REMARK   12  A    between atoms: C_27  and  O_32 
REMARK   13  A    between atoms: C_28  and  O_30 
ROOT
ATOM      1  O   LIG     1       7.357  43.369  20.027  0.00  0.00    -0.341 OA
ATOM      2  C   LIG     1       6.254  43.839  19.256  0.00  0.00     0.282 C 
ATOM      3  C   LIG     1       6.196  45.367  19.281  0.00  0.00     0.201 C 
ATOM      4  C   LIG     1       7.526  45.981  18.846  0.00  0.00     0.179 C 
ATOM      5  C   LIG     1       8.700  45.338  19.582  0.00  0.00     0.177 C 
ATOM      6  C   LIG     1       8.614  43.811  19.511  0.00  0.00     0.178 C 
ENDROOT
BRANCH   6   7
ATOM      7  C   LIG     1       9.711  43.144  20.337  0.00  0.00     0.197 C 
BRANCH   7   8
ATOM      8  O   LIG     1      10.149  44.058  21.325  0.00  0.00    -0.346 OA
BRANCH   8   9
ATOM      9  C   LIG     1      10.206  43.456  22.614  0.00  0.00     0.281 C 
ATOM     10  O   LIG     1       8.911  43.057  23.078  0.00  0.00    -0.346 OA
ATOM     11  C   LIG     1       8.033  44.150  23.339  0.00  0.00     0.197 C 
ATOM     12  C   LIG     1       8.609  45.056  24.418  0.00  0.00     0.171 C 
ATOM     13  C   LIG     1       9.988  45.576  24.007  0.00  0.00     0.178 C 
ATOM     14  C   LIG     1      10.894  44.407  23.606  0.00  0.00     0.201 C 
BRANCH  12  15
ATOM     15  O   LIG     1       7.736  46.150  24.666  0.00  0.00    -0.387 OA
ATOM     16  H   LIG     1       8.231  46.967  24.486  0.00  0.00     0.210 HD
ENDBRANCH  12  15
BRANCH  13  17
ATOM     17  O   LIG     1       9.845  46.469  22.904  0.00  0.00    -0.386 OA
ATOM     18  H   LIG     1       9.699  47.360  23.265  0.00  0.00     0.210 HD
ENDBRANCH  13  17
BRANCH  14  19
ATOM     19  O   LIG     1      11.239  43.657  24.768  0.00  0.00    -0.384 OA
ATOM     20  H   LIG     1      11.597  44.267  25.434  0.00  0.00     0.210 HD
ENDBRANCH  14  19
ENDBRANCH   8   9
ENDBRANCH   7   8
ENDBRANCH   6   7
BRANCH   5  21
ATOM     21  O   LIG     1       9.922  45.769  18.989  0.00  0.00    -0.386 OA
ATOM     22  H   LIG     1      10.620  45.709  19.665  0.00  0.00     0.210 HD
ENDBRANCH   5  21
BRANCH   2  23
ATOM     23  O   LIG     1       5.035  43.343  19.806  0.00  0.00    -0.345 OA
BRANCH  23  24
ATOM     24  C   LIG     1       4.753  43.941  21.061  0.00  0.00     0.190 C 
BRANCH  24  25
ATOM     25  C   LIG     1       4.351  42.871  22.025  0.00  0.00     0.001 C 
ATOM     26  C   LIG     1       3.244  42.939  22.781  0.00  0.00     0.006 C 
BRANCH  26  27
ATOM     27  C   LIG     1       2.800  41.905  23.731  0.00  0.00    -0.025 A 
ATOM     28  C   LIG     1       2.005  40.863  23.280  0.00  0.00     0.008 A 
ATOM     29  C   LIG     1       1.585  39.885  24.181  0.00  0.00     0.001 A 
ATOM     30  C   LIG     1       1.965  39.960  25.521  0.00  0.00     0.000 A 
ATOM     31  C   LIG     1       2.766  41.014  25.961  0.00  0.00     0.001 A 
ATOM     32  C   LIG     1       3.186  41.993  25.060  0.00  0.00     0.008 A 
ENDBRANCH  26  27
ENDBRANCH  24  25
ENDBRANCH  23  24
ENDBRANCH   2  23
BRANCH   4  33
ATOM     33  O   LIG     1       7.526  47.377  19.150  0.00  0.00    -0.386 OA
ATOM     34  H   LIG     1       8.072  47.502  19.945  0.00  0.00     0.210 HD
ENDBRANCH   4  33
BRANCH   3  35
ATOM     35  O   LIG     1       5.164  45.789  18.389  0.00  0.00    -0.384 OA
ATOM     36  H   LIG     1       5.574  46.007  17.535  0.00  0.00     0.210 HD
ENDBRANCH   3  35
TORSDOF 13
ENDMDL
MODEL 2
REMARK VINA RESULT:      -7.5      1.886      3.188
REMARK  13 active torsions:
REMARK  status: ('A' for Active; 'I' for Inactive)
REMARK    1  A    between atoms: C_2  and  O_12 
REMARK    2  A    between atoms: C_3  and  O_10 
REMARK    3  A    between atoms: C_4  and  O_8 
REMARK    4  A    between atoms: C_5  and  O_6 
REMARK    5  A    between atoms: C_22  and  C_23 
REMARK    6  A    between atoms: O_12  and  C_13 
REMARK    7  A    between atoms: C_13  and  C_14 
REMARK    8  A    between atoms: C_15  and  C_16 
REMARK    9  A    between atoms: C_23  and  O_24 
REMARK   10  A    between atoms: O_24  and  C_25 
REMARK   11  A    between atoms: C_26  and  O_34 
REMARK   12  A    between atoms: C_27  and  O_32 
REMARK   13  A    between atoms: C_28  and  O_30 
ROOT
ATOM      1  O   LIG     1       6.983  44.071  21.143  0.00  0.00    -0.341 OA
ATOM      2  C   LIG     1       6.104  44.235  20.033  0.00  0.00     0.282 C 
ATOM      3  C   LIG     1       6.116  45.686  19.551  0.00  0.00     0.201 C 
ATOM      4  C   LIG     1       7.538  46.163  19.257  0.00  0.00     0.179 C 
ATOM      5  C   LIG     1       8.485  45.825  20.408  0.00  0.00     0.177 C 
ATOM      6  C   LIG     1       8.343  44.356  20.814  0.00  0.00     0.178 C 
ENDROOT
BRANCH   6   7
ATOM      7  C   LIG     1       9.193  44.024  22.037  0.00  0.00     0.197 C 
BRANCH   7   8
ATOM      8  O   LIG     1      10.559  44.112  21.674  0.00  0.00    -0.346 OA
BRANCH   8   9
ATOM      9  C   LIG     1      11.294  42.971  22.104  0.00  0.00     0.281 C 
ATOM     10  O   LIG     1      12.563  43.328  22.661  0.00  0.00    -0.346 OA
ATOM     11  C   LIG     1      13.472  43.883  21.713  0.00  0.00     0.197 C 
ATOM     12  C   LIG     1      13.764  42.883  20.601  0.00  0.00     0.171 C 
ATOM     13  C   LIG     1      12.470  42.458  19.905  0.00  0.00     0.178 C 
ATOM     14  C   LIG     1      11.447  41.979  20.940  0.00  0.00     0.201 C 
BRANCH  12  15
ATOM     15  O   LIG     1      14.660  43.445  19.652  0.00  0.00    -0.387 OA
ATOM     16  H   LIG     1      15.453  42.881  19.628  0.00  0.00     0.210 HD
ENDBRANCH  12  15
BRANCH  13  17
ATOM     17  O   LIG     1      11.936  43.568  19.184  0.00  0.00    -0.386 OA
ATOM     18  H   LIG     1      11.866  44.314  19.805  0.00  0.00     0.210 HD
ENDBRANCH  13  17
BRANCH  14  19
ATOM     19  O   LIG     1      11.870  40.729  21.479  0.00  0.00    -0.384 OA
ATOM     20  H   LIG     1      12.194  40.877  22.383  0.00  0.00     0.210 HD
ENDBRANCH  14  19
ENDBRANCH   8   9
ENDBRANCH   7   8
ENDBRANCH   6   7
BRANCH   5  21
ATOM     21  O   LIG     1       9.828  46.075  20.003  0.00  0.00    -0.386 OA
ATOM     22  H   LIG     1      10.066  46.974  20.291  0.00  0.00     0.210 HD
ENDBRANCH   5  21
BRANCH   2  23
ATOM     23  O   LIG     1       4.771  43.910  20.420  0.00  0.00    -0.345 OA
BRANCH  23  24
ATOM     24  C   LIG     1       4.305  44.775  21.443  0.00  0.00     0.190 C 
BRANCH  24  25
ATOM     25  C   LIG     1       3.836  43.948  22.597  0.00  0.00     0.001 C 
ATOM     26  C   LIG     1       3.372  42.695  22.465  0.00  0.00     0.006 C 
BRANCH  26  27
ATOM     27  C   LIG     1       2.914  41.839  23.573  0.00  0.00    -0.025 A 
ATOM     28  C   LIG     1       3.335  42.115  24.864  0.00  0.00     0.008 A 
ATOM     29  C   LIG     1       2.900  41.303  25.911  0.00  0.00     0.001 A 
ATOM     30  C   LIG     1       2.052  40.226  25.655  0.00  0.00     0.000 A 
ATOM     31  C   LIG     1       1.637  39.960  24.351  0.00  0.00     0.001 A 
ATOM     32  C   LIG     1       2.071  40.772  23.302  0.00  0.00     0.008 A 
ENDBRANCH  26  27
ENDBRANCH  24  25
ENDBRANCH  23  24
ENDBRANCH   2  23
BRANCH   4  33
ATOM     33  O   LIG     1       7.538  47.582  19.088  0.00  0.00    -0.386 OA
ATOM     34  H   LIG     1       6.658  47.906  19.345  0.00  0.00     0.210 HD
ENDBRANCH   4  33
BRANCH   3  35
ATOM     35  O   LIG     1       5.333  45.768  18.360  0.00  0.00    -0.384 OA
ATOM     36  H   LIG     1       4.402  45.626  18.602  0.00  0.00     0.210 HD
ENDBRANCH   3  35
TORSDOF 13
ENDMDL
MODEL 3
REMARK VINA RESULT:      -7.4      1.150      1.966
REMARK  13 active torsions:
REMARK  status: ('A' for Active; 'I' for Inactive)
REMARK    1  A    between atoms: C_2  and  O_12 
REMARK    2  A    between atoms: C_3  and  O_10 
REMARK    3  A    between atoms: C_4  and  O_8 
REMARK    4  A    between atoms: C_5  and  O_6 
REMARK    5  A    between atoms: C_22  and  C_23 
REMARK    6  A    between atoms: O_12  and  C_13 
REMARK    7  A    between atoms: C_13  and  C_14 
REMARK    8  A    between atoms: C_15  and  C_16 
REMARK    9  A    between atoms: C_23  and  O_24 
REMARK   10  A    between atoms: O_24  and  C_25 
REMARK   11  A    between atoms: C_26  and  O_34 
REMARK   12  A    between atoms: C_27  and  O_32 
REMARK   13  A    between atoms: C_28  and  O_30 
ROOT
ATOM      1  O   LIG     1       6.867  44.148  20.745  0.00  0.00    -0.341 OA
ATOM      2  C   LIG     1       5.818  44.622  19.905  0.00  0.00     0.282 C 
ATOM      3  C   LIG     1       5.975  46.121  19.647  0.00  0.00     0.201 C 
ATOM      4  C   LIG     1       7.364  46.449  19.101  0.00  0.00     0.179 C 
ATOM      5  C   LIG     1       8.458  45.789  19.938  0.00  0.00     0.177 C 
ATOM      6  C   LIG     1       8.157  44.303  20.152  0.00  0.00     0.178 C 
ENDROOT
BRANCH   6   7
ATOM      7  C   LIG     1       9.175  43.649  21.082  0.00  0.00     0.197 C 
BRANCH   7   8
ATOM      8  O   LIG     1       9.697  44.641  21.948  0.00  0.00    -0.346 OA
BRANCH   8   9
ATOM      9  C   LIG     1       9.220  44.483  23.280  0.00  0.00     0.281 C 
ATOM     10  O   LIG     1       9.231  45.719  24.004  0.00  0.00    -0.346 OA
ATOM     11  C   LIG     1      10.539  46.227  24.253  0.00  0.00     0.197 C 
ATOM     12  C   LIG     1      11.349  45.241  25.085  0.00  0.00     0.171 C 
ATOM     13  C   LIG     1      11.436  43.886  24.382  0.00  0.00     0.178 C 
ATOM     14  C   LIG     1      10.034  43.398  24.002  0.00  0.00     0.201 C 
BRANCH  12  15
ATOM     15  O   LIG     1      12.655  45.748  25.321  0.00  0.00    -0.387 OA
ATOM     16  H   LIG     1      13.177  45.036  25.731  0.00  0.00     0.210 HD
ENDBRANCH  12  15
BRANCH  13  17
ATOM     17  O   LIG     1      12.231  44.016  23.205  0.00  0.00    -0.386 OA
ATOM     18  H   LIG     1      11.653  43.851  22.440  0.00  0.00     0.210 HD
ENDBRANCH  13  17
BRANCH  14  19
ATOM     19  O   LIG     1       9.326  43.029  25.183  0.00  0.00    -0.384 OA
ATOM     20  H   LIG     1       9.766  43.440  25.946  0.00  0.00     0.210 HD
ENDBRANCH  14  19
ENDBRANCH   8   9
ENDBRANCH   7   8
ENDBRANCH   6   7
BRANCH   5  21
ATOM     21  O   LIG     1       9.710  45.926  19.271  0.00  0.00    -0.386 OA
ATOM     22  H   LIG     1       9.897  45.089  18.811  0.00  0.00     0.210 HD
ENDBRANCH   5  21
BRANCH   2  23
ATOM     23  O   LIG     1       4.559  44.414  20.543  0.00  0.00    -0.345 OA
BRANCH  23  24
ATOM     24  C   LIG     1       4.478  45.122  21.770  0.00  0.00     0.190 C 
BRANCH  24  25
ATOM     25  C   LIG     1       4.063  44.173  22.847  0.00  0.00     0.001 C 
ATOM     26  C   LIG     1       3.347  43.062  22.616  0.00  0.00     0.006 C 
BRANCH  26  27
ATOM     27  C   LIG     1       2.930  42.091  23.642  0.00  0.00    -0.025 A 
ATOM     28  C   LIG     1       3.357  42.259  24.949  0.00  0.00     0.008 A 
ATOM     29  C   LIG     1       2.961  41.339  25.920  0.00  0.00     0.001 A 
ATOM     30  C   LIG     1       2.144  40.264  25.572  0.00  0.00     0.000 A 
ATOM     31  C   LIG     1       1.722  40.108  24.252  0.00  0.00     0.001 A 
ATOM     32  C   LIG     1       2.118  41.028  23.281  0.00  0.00     0.008 A 
ENDBRANCH  26  27
ENDBRANCH  24  25
ENDBRANCH  23  24
ENDBRANCH   2  23
BRANCH   4  33
ATOM     33  O   LIG     1       7.569  47.862  19.140  0.00  0.00    -0.386 OA
ATOM     34  H   LIG     1       7.350  48.163  20.039  0.00  0.00     0.210 HD
ENDBRANCH   4  33
BRANCH   3  35
ATOM     35  O   LIG     1       4.986  46.516  18.697  0.00  0.00    -0.384 OA
ATOM     36  H   LIG     1       4.119  46.220  19.022  0.00  0.00     0.210 HD
ENDBRANCH   3  35
TORSDOF 13
ENDMDL
MODEL 4
REMARK VINA RESULT:      -7.4      2.898      7.725
REMARK  13 active torsions:
REMARK  status: ('A' for Active; 'I' for Inactive)
REMARK    1  A    between atoms: C_2  and  O_12 
REMARK    2  A    between atoms: C_3  and  O_10 
REMARK    3  A    between atoms: C_4  and  O_8 
REMARK    4  A    between atoms: C_5  and  O_6 
REMARK    5  A    between atoms: C_22  and  C_23 
REMARK    6  A    between atoms: O_12  and  C_13 
REMARK    7  A    between atoms: C_13  and  C_14 
REMARK    8  A    between atoms: C_15  and  C_16 
REMARK    9  A    between atoms: C_23  and  O_24 
REMARK   10  A    between atoms: O_24  and  C_25 
REMARK   11  A    between atoms: C_26  and  O_34 
REMARK   12  A    between atoms: C_27  and  O_32 
REMARK   13  A    between atoms: C_28  and  O_30 
ROOT
ATOM      1  O   LIG     1       7.964  43.910  19.757  0.00  0.00    -0.341 OA
ATOM      2  C   LIG     1       8.775  44.760  20.564  0.00  0.00     0.282 C 
ATOM      3  C   LIG     1       8.823  46.171  19.976  0.00  0.00     0.201 C 
ATOM      4  C   LIG     1       7.418  46.729  19.754  0.00  0.00     0.179 C 
ATOM      5  C   LIG     1       6.530  45.722  19.024  0.00  0.00     0.177 C 
ATOM      6  C   LIG     1       6.605  44.347  19.693  0.00  0.00     0.178 C 
ENDROOT
BRANCH   6   7
ATOM      7  C   LIG     1       5.819  43.296  18.914  0.00  0.00     0.197 C 
BRANCH   7   8
ATOM      8  O   LIG     1       5.107  42.491  19.836  0.00  0.00    -0.346 OA
BRANCH   8   9
ATOM      9  C   LIG     1       4.939  43.146  21.089  0.00  0.00     0.281 C 
ATOM     10  O   LIG     1       5.011  42.231  22.187  0.00  0.00    -0.346 OA
ATOM     11  C   LIG     1       3.931  41.300  22.232  0.00  0.00     0.197 C 
ATOM     12  C   LIG     1       2.601  42.028  22.373  0.00  0.00     0.171 C 
ATOM     13  C   LIG     1       2.400  43.013  21.220  0.00  0.00     0.178 C 
ATOM     14  C   LIG     1       3.619  43.933  21.094  0.00  0.00     0.201 C 
BRANCH  12  15
ATOM     15  O   LIG     1       1.527  41.098  22.404  0.00  0.00    -0.387 OA
ATOM     16  H   LIG     1       0.874  41.379  21.741  0.00  0.00     0.210 HD
ENDBRANCH  12  15
BRANCH  13  17
ATOM     17  O   LIG     1       2.222  42.287  20.005  0.00  0.00    -0.386 OA
ATOM     18  H   LIG     1       2.464  41.361  20.179  0.00  0.00     0.210 HD
ENDBRANCH  13  17
BRANCH  14  19
ATOM     19  O   LIG     1       3.647  44.834  22.199  0.00  0.00    -0.384 OA
ATOM     20  H   LIG     1       2.974  45.519  22.054  0.00  0.00     0.210 HD
ENDBRANCH  14  19
ENDBRANCH   8   9
ENDBRANCH   7   8
ENDBRANCH   6   7
BRANCH   5  21
ATOM     21  O   LIG     1       5.181  46.182  19.042  0.00  0.00    -0.386 OA
ATOM     22  H   LIG     1       4.658  45.555  19.570  0.00  0.00     0.210 HD
ENDBRANCH   5  21
BRANCH   2  23
ATOM     23  O   LIG     1      10.108  44.256  20.608  0.00  0.00    -0.345 OA
BRANCH  23  24
ATOM     24  C   LIG     1      10.349  43.341  19.551  0.00  0.00     0.190 C 
BRANCH  24  25
ATOM     25  C   LIG     1      11.651  42.649  19.801  0.00  0.00     0.001 C 
ATOM     26  C   LIG     1      12.243  42.604  21.004  0.00  0.00     0.006 C 
BRANCH  26  27
ATOM     27  C   LIG     1      13.515  41.923  21.300  0.00  0.00    -0.025 A 
ATOM     28  C   LIG     1      14.665  42.310  20.629  0.00  0.00     0.008 A 
ATOM     29  C   LIG     1      15.868  41.665  20.910  0.00  0.00     0.001 A 
ATOM     30  C   LIG     1      15.908  40.641  21.856  0.00  0.00     0.000 A 
ATOM     31  C   LIG     1      14.744  40.262  22.523  0.00  0.00     0.001 A 
ATOM     32  C   LIG     1      13.539  40.907  22.242  0.00  0.00     0.008 A 
ENDBRANCH  26  27
ENDBRANCH  24  25
ENDBRANCH  23  24
ENDBRANCH   2  23
BRANCH   4  33
ATOM     33  O   LIG     1       7.496  47.910  18.954  0.00  0.00    -0.386 OA
ATOM     34  H   LIG     1       7.600  48.665  19.558  0.00  0.00     0.210 HD
ENDBRANCH   4  33
BRANCH   3  35
ATOM     35  O   LIG     1       9.529  47.012  20.888  0.00  0.00    -0.384 OA
ATOM     36  H   LIG     1       8.902  47.664  21.244  0.00  0.00     0.210 HD
ENDBRANCH   3  35
TORSDOF 13
ENDMDL
MODEL 5
REMARK VINA RESULT:      -7.4      1.694      2.567
REMARK  13 active torsions:
REMARK  status: ('A' for Active; 'I' for Inactive)
REMARK    1  A    between atoms: C_2  and  O_12 
REMARK    2  A    between atoms: C_3  and  O_10 
REMARK    3  A    between atoms: C_4  and  O_8 
REMARK    4  A    between atoms: C_5  and  O_6 
REMARK    5  A    between atoms: C_22  and  C_23 
REMARK    6  A    between atoms: O_12  and  C_13 
REMARK    7  A    between atoms: C_13  and  C_14 
REMARK    8  A    between atoms: C_15  and  C_16 
REMARK    9  A    between atoms: C_23  and  O_24 
REMARK   10  A    between atoms: O_24  and  C_25 
REMARK   11  A    between atoms: C_26  and  O_34 
REMARK   12  A    between atoms: C_27  and  O_32 
REMARK   13  A    between atoms: C_28  and  O_30 
ROOT
ATOM      1  O   LIG     1       6.816  44.578  21.472  0.00  0.00    -0.341 OA
ATOM      2  C   LIG     1       6.039  44.398  20.290  0.00  0.00     0.282 C 
ATOM      3  C   LIG     1       5.987  45.695  19.482  0.00  0.00     0.201 C 
ATOM      4  C   LIG     1       7.389  46.228  19.192  0.00  0.00     0.179 C 
ATOM      5  C   LIG     1       8.243  46.255  20.459  0.00  0.00     0.177 C 
ATOM      6  C   LIG     1       8.176  44.911  21.189  0.00  0.00     0.178 C 
ENDROOT
BRANCH   6   7
ATOM      7  C   LIG     1       8.927  44.951  22.516  0.00  0.00     0.197 C 
BRANCH   7   8
ATOM      8  O   LIG     1       9.357  43.638  22.830  0.00  0.00    -0.346 OA
BRANCH   8   9
ATOM      9  C   LIG     1       9.520  43.458  24.233  0.00  0.00     0.281 C 
ATOM     10  O   LIG     1      10.208  42.240  24.541  0.00  0.00    -0.346 OA
ATOM     11  C   LIG     1       9.472  41.065  24.210  0.00  0.00     0.197 C 
ATOM     12  C   LIG     1       8.160  41.018  24.983  0.00  0.00     0.171 C 
ATOM     13  C   LIG     1       7.320  42.264  24.696  0.00  0.00     0.178 C 
ATOM     14  C   LIG     1       8.154  43.528  24.932  0.00  0.00     0.201 C 
BRANCH  12  15
ATOM     15  O   LIG     1       7.424  39.851  24.641  0.00  0.00    -0.387 OA
ATOM     16  H   LIG     1       7.659  39.613  23.728  0.00  0.00     0.210 HD
ENDBRANCH  12  15
BRANCH  13  17
ATOM     17  O   LIG     1       6.876  42.231  23.340  0.00  0.00    -0.386 OA
ATOM     18  H   LIG     1       7.612  42.538  22.784  0.00  0.00     0.210 HD
ENDBRANCH  13  17
BRANCH  14  19
ATOM     19  O   LIG     1       8.381  43.689  26.330  0.00  0.00    -0.384 OA
ATOM     20  H   LIG     1       7.990  42.930  26.795  0.00  0.00     0.210 HD
ENDBRANCH  14  19
ENDBRANCH   8   9
ENDBRANCH   7   8
ENDBRANCH   6   7
BRANCH   5  21
ATOM     21  O   LIG     1       9.597  46.535  20.110  0.00  0.00    -0.386 OA
ATOM     22  H   LIG     1       9.734  47.495  20.187  0.00  0.00     0.210 HD
ENDBRANCH   5  21
BRANCH   2  23
ATOM     23  O   LIG     1       4.704  44.042  20.641  0.00  0.00    -0.345 OA
BRANCH  23  24
ATOM     24  C   LIG     1       4.194  44.888  21.659  0.00  0.00     0.190 C 
BRANCH  24  25
ATOM     25  C   LIG     1       3.743  44.043  22.807  0.00  0.00     0.001 C 
ATOM     26  C   LIG     1       3.386  42.756  22.679  0.00  0.00     0.006 C 
BRANCH  26  27
ATOM     27  C   LIG     1       2.951  41.882  23.782  0.00  0.00    -0.025 A 
ATOM     28  C   LIG     1       3.382  42.148  25.071  0.00  0.00     0.008 A 
ATOM     29  C   LIG     1       2.969  41.321  26.114  0.00  0.00     0.001 A 
ATOM     30  C   LIG     1       2.131  40.236  25.856  0.00  0.00     0.000 A 
ATOM     31  C   LIG     1       1.705  39.980  24.553  0.00  0.00     0.001 A 
ATOM     32  C   LIG     1       2.118  40.808  23.509  0.00  0.00     0.008 A 
ENDBRANCH  26  27
ENDBRANCH  24  25
ENDBRANCH  23  24
ENDBRANCH   2  23
BRANCH   4  33
ATOM     33  O   LIG     1       7.297  47.563  18.693  0.00  0.00    -0.386 OA
ATOM     34  H   LIG     1       6.566  47.584  18.052  0.00  0.00     0.210 HD
ENDBRANCH   4  33
BRANCH   3  35
ATOM     35  O   LIG     1       5.317  45.426  18.250  0.00  0.00    -0.384 OA
ATOM     36  H   LIG     1       5.562  46.121  17.616  0.00  0.00     0.210 HD
ENDBRANCH   3  35
TORSDOF 13
ENDMDL
MODEL 6
REMARK VINA RESULT:      -7.3      1.827      3.202
REMARK  13 active torsions:
REMARK  status: ('A' for Active; 'I' for Inactive)
REMARK    1  A    between atoms: C_2  and  O_12 
REMARK    2  A    between atoms: C_3  and  O_10 
REMARK    3  A    between atoms: C_4  and  O_8 
REMARK    4  A    between atoms: C_5  and  O_6 
REMARK    5  A    between atoms: C_22  and  C_23 
REMARK    6  A    between atoms: O_12  and  C_13 
REMARK    7  A    between atoms: C_13  and  C_14 
REMARK    8  A    between atoms: C_15  and  C_16 
REMARK    9  A    between atoms: C_23  and  O_24 
REMARK   10  A    between atoms: O_24  and  C_25 
REMARK   11  A    between atoms: C_26  and  O_34 
REMARK   12  A    between atoms: C_27  and  O_32 
REMARK   13  A    between atoms: C_28  and  O_30 
ROOT
ATOM      1  O   LIG     1       7.783  46.158  20.972  0.00  0.00    -0.341 OA
ATOM      2  C   LIG     1       6.960  45.791  19.866  0.00  0.00     0.282 C 
ATOM      3  C   LIG     1       7.781  45.758  18.577  0.00  0.00     0.201 C 
ATOM      4  C   LIG     1       9.011  44.863  18.722  0.00  0.00     0.179 C 
ATOM      5  C   LIG     1       9.779  45.181  20.004  0.00  0.00     0.177 C 
ATOM      6  C   LIG     1       8.834  45.221  21.208  0.00  0.00     0.178 C 
ENDROOT
BRANCH   6   7
ATOM      7  C   LIG     1       9.558  45.651  22.481  0.00  0.00     0.197 C 
BRANCH   7   8
ATOM      8  O   LIG     1       9.439  44.616  23.439  0.00  0.00    -0.346 OA
BRANCH   8   9
ATOM      9  C   LIG     1       8.424  44.896  24.397  0.00  0.00     0.281 C 
ATOM     10  O   LIG     1       8.775  44.427  25.704  0.00  0.00    -0.346 OA
ATOM     11  C   LIG     1       8.845  43.007  25.805  0.00  0.00     0.197 C 
ATOM     12  C   LIG     1       7.497  42.378  25.477  0.00  0.00     0.171 C 
ATOM     13  C   LIG     1       7.039  42.784  24.075  0.00  0.00     0.178 C 
ATOM     14  C   LIG     1       7.085  44.309  23.926  0.00  0.00     0.201 C 
BRANCH  12  15
ATOM     15  O   LIG     1       7.574  40.963  25.568  0.00  0.00    -0.387 OA
ATOM     16  H   LIG     1       6.686  40.633  25.786  0.00  0.00     0.210 HD
ENDBRANCH  12  15
BRANCH  13  17
ATOM     17  O   LIG     1       7.899  42.185  23.107  0.00  0.00    -0.386 OA
ATOM     18  H   LIG     1       8.601  41.715  23.589  0.00  0.00     0.210 HD
ENDBRANCH  13  17
BRANCH  14  19
ATOM     19  O   LIG     1       6.048  44.891  24.713  0.00  0.00    -0.384 OA
ATOM     20  H   LIG     1       5.461  44.181  25.022  0.00  0.00     0.210 HD
ENDBRANCH  14  19
ENDBRANCH   8   9
ENDBRANCH   7   8
ENDBRANCH   6   7
BRANCH   5  21
ATOM     21  O   LIG     1      10.774  44.184  20.219  0.00  0.00    -0.386 OA
ATOM     22  H   LIG     1      11.510  44.358  19.606  0.00  0.00     0.210 HD
ENDBRANCH   5  21
BRANCH   2  23
ATOM     23  O   LIG     1       5.918  46.751  19.701  0.00  0.00    -0.345 OA
BRANCH  23  24
ATOM     24  C   LIG     1       4.991  46.698  20.773  0.00  0.00     0.190 C 
BRANCH  24  25
ATOM     25  C   LIG     1       4.557  45.280  20.964  0.00  0.00     0.001 C 
ATOM     26  C   LIG     1       3.665  44.901  21.893  0.00  0.00     0.006 C 
BRANCH  26  27
ATOM     27  C   LIG     1       3.197  43.521  22.108  0.00  0.00    -0.025 A 
ATOM     28  C   LIG     1       3.375  42.929  23.348  0.00  0.00     0.008 A 
ATOM     29  C   LIG     1       2.931  41.623  23.551  0.00  0.00     0.001 A 
ATOM     30  C   LIG     1       2.317  40.925  22.511  0.00  0.00     0.000 A 
ATOM     31  C   LIG     1       2.145  41.533  21.268  0.00  0.00     0.001 A 
ATOM     32  C   LIG     1       2.588  42.840  21.066  0.00  0.00     0.008 A 
ENDBRANCH  26  27
ENDBRANCH  24  25
ENDBRANCH  23  24
ENDBRANCH   2  23
BRANCH   4  33
ATOM     33  O   LIG     1       9.889  45.077  17.616  0.00  0.00    -0.386 OA
ATOM     34  H   LIG     1      10.265  44.215  17.372  0.00  0.00     0.210 HD
ENDBRANCH   4  33
BRANCH   3  35
ATOM     35  O   LIG     1       6.950  45.255  17.531  0.00  0.00    -0.384 OA
ATOM     36  H   LIG     1       6.433  44.513  17.887  0.00  0.00     0.210 HD
ENDBRANCH   3  35
TORSDOF 13
ENDMDL
MODEL 7
REMARK VINA RESULT:      -7.3      1.383      1.939
REMARK  13 active torsions:
REMARK  status: ('A' for Active; 'I' for Inactive)
REMARK    1  A    between atoms: C_2  and  O_12 
REMARK    2  A    between atoms: C_3  and  O_10 
REMARK    3  A    between atoms: C_4  and  O_8 
REMARK    4  A    between atoms: C_5  and  O_6 
REMARK    5  A    between atoms: C_22  and  C_23 
REMARK    6  A    between atoms: O_12  and  C_13 
REMARK    7  A    between atoms: C_13  and  C_14 
REMARK    8  A    between atoms: C_15  and  C_16 
REMARK    9  A    between atoms: C_23  and  O_24 
REMARK   10  A    between atoms: O_24  and  C_25 
REMARK   11  A    between atoms: C_26  and  O_34 
REMARK   12  A    between atoms: C_27  and  O_32 
REMARK   13  A    between atoms: C_28  and  O_30 
ROOT
ATOM      1  O   LIG     1       8.459  44.491  20.971  0.00  0.00    -0.341 OA
ATOM      2  C   LIG     1       7.587  44.870  19.909  0.00  0.00     0.282 C 
ATOM      3  C   LIG     1       8.376  45.526  18.775  0.00  0.00     0.201 C 
ATOM      4  C   LIG     1       9.525  44.634  18.308  0.00  0.00     0.179 C 
ATOM      5  C   LIG     1      10.343  44.119  19.491  0.00  0.00     0.177 C 
ATOM      6  C   LIG     1       9.429  43.524  20.566  0.00  0.00     0.178 C 
ENDROOT
BRANCH   6   7
ATOM      7  C   LIG     1      10.212  43.109  21.808  0.00  0.00     0.197 C 
BRANCH   7   8
ATOM      8  O   LIG     1      11.244  44.054  22.026  0.00  0.00    -0.346 OA
BRANCH   8   9
ATOM      9  C   LIG     1      11.535  44.207  23.411  0.00  0.00     0.281 C 
ATOM     10  O   LIG     1      10.565  43.554  24.239  0.00  0.00    -0.346 OA
ATOM     11  C   LIG     1       9.268  44.142  24.178  0.00  0.00     0.197 C 
ATOM     12  C   LIG     1       9.313  45.592  24.641  0.00  0.00     0.171 C 
ATOM     13  C   LIG     1      10.298  46.399  23.793  0.00  0.00     0.178 C 
ATOM     14  C   LIG     1      11.660  45.699  23.757  0.00  0.00     0.201 C 
BRANCH  12  15
ATOM     15  O   LIG     1       8.020  46.177  24.567  0.00  0.00    -0.387 OA
ATOM     16  H   LIG     1       7.407  45.494  24.246  0.00  0.00     0.210 HD
ENDBRANCH  12  15
BRANCH  13  17
ATOM     17  O   LIG     1       9.788  46.519  22.466  0.00  0.00    -0.386 OA
ATOM     18  H   LIG     1      10.207  45.826  21.927  0.00  0.00     0.210 HD
ENDBRANCH  13  17
BRANCH  14  19
ATOM     19  O   LIG     1      12.279  45.804  25.037  0.00  0.00    -0.384 OA
ATOM     20  H   LIG     1      12.228  46.729  25.329  0.00  0.00     0.210 HD
ENDBRANCH  14  19
ENDBRANCH   8   9
ENDBRANCH   7   8
ENDBRANCH   6   7
BRANCH   5  21
ATOM     21  O   LIG     1      11.251  43.118  19.038  0.00  0.00    -0.386 OA
ATOM     22  H   LIG     1      11.803  42.850  19.793  0.00  0.00     0.210 HD
ENDBRANCH   5  21
BRANCH   2  23
ATOM     23  O   LIG     1       6.630  45.814  20.384  0.00  0.00    -0.345 OA
BRANCH  23  24
ATOM     24  C   LIG     1       5.304  45.348  20.193  0.00  0.00     0.190 C 
BRANCH  24  25
ATOM     25  C   LIG     1       4.971  44.382  21.284  0.00  0.00     0.001 C 
ATOM     26  C   LIG     1       3.713  44.075  21.638  0.00  0.00     0.006 C 
BRANCH  26  27
ATOM     27  C   LIG     1       3.338  43.120  22.695  0.00  0.00    -0.025 A 
ATOM     28  C   LIG     1       2.437  42.107  22.406  0.00  0.00     0.008 A 
ATOM     29  C   LIG     1       2.082  41.203  23.407  0.00  0.00     0.001 A 
ATOM     30  C   LIG     1       2.631  41.324  24.683  0.00  0.00     0.000 A 
ATOM     31  C   LIG     1       3.536  42.348  24.960  0.00  0.00     0.001 A 
ATOM     32  C   LIG     1       3.891  43.252  23.958  0.00  0.00     0.008 A 
ENDBRANCH  26  27
ENDBRANCH  24  25
ENDBRANCH  23  24
ENDBRANCH   2  23
BRANCH   4  33
ATOM     33  O   LIG     1      10.397  45.385  17.462  0.00  0.00    -0.386 OA
ATOM     34  H   LIG     1      11.239  44.902  17.409  0.00  0.00     0.210 HD
ENDBRANCH   4  33
BRANCH   3  35
ATOM     35  O   LIG     1       7.483  45.760  17.686  0.00  0.00    -0.384 OA
ATOM     36  H   LIG     1       7.767  46.571  17.233  0.00  0.00     0.210 HD
ENDBRANCH   3  35
TORSDOF 13
ENDMDL
MODEL 8
REMARK VINA RESULT:      -7.1      1.864      2.899
REMARK  13 active torsions:
REMARK  status: ('A' for Active; 'I' for Inactive)
REMARK    1  A    between atoms: C_2  and  O_12 
REMARK    2  A    between atoms: C_3  and  O_10 
REMARK    3  A    between atoms: C_4  and  O_8 
REMARK    4  A    between atoms: C_5  and  O_6 
REMARK    5  A    between atoms: C_22  and  C_23 
REMARK    6  A    between atoms: O_12  and  C_13 
REMARK    7  A    between atoms: C_13  and  C_14 
REMARK    8  A    between atoms: C_15  and  C_16 
REMARK    9  A    between atoms: C_23  and  O_24 
REMARK   10  A    between atoms: O_24  and  C_25 
REMARK   11  A    between atoms: C_26  and  O_34 
REMARK   12  A    between atoms: C_27  and  O_32 
REMARK   13  A    between atoms: C_28  and  O_30 
ROOT
ATOM      1  O   LIG     1       7.804  46.130  21.031  0.00  0.00    -0.341 OA
ATOM      2  C   LIG     1       6.957  45.841  19.921  0.00  0.00     0.282 C 
ATOM      3  C   LIG     1       7.773  45.772  18.629  0.00  0.00     0.201 C 
ATOM      4  C   LIG     1       8.936  44.790  18.757  0.00  0.00     0.179 C 
ATOM      5  C   LIG     1       9.726  45.031  20.043  0.00  0.00     0.177 C 
ATOM      6  C   LIG     1       8.786  45.116  21.249  0.00  0.00     0.178 C 
ENDROOT
BRANCH   6   7
ATOM      7  C   LIG     1       9.539  45.472  22.528  0.00  0.00     0.197 C 
BRANCH   7   8
ATOM      8  O   LIG     1      10.037  44.278  23.104  0.00  0.00    -0.346 OA
BRANCH   8   9
ATOM      9  C   LIG     1      11.332  44.463  23.666  0.00  0.00     0.281 C 
ATOM     10  O   LIG     1      12.007  43.219  23.881  0.00  0.00    -0.346 OA
ATOM     11  C   LIG     1      11.403  42.401  24.880  0.00  0.00     0.197 C 
ATOM     12  C   LIG     1      11.395  43.117  26.225  0.00  0.00     0.171 C 
ATOM     13  C   LIG     1      10.658  44.453  26.121  0.00  0.00     0.178 C 
ATOM     14  C   LIG     1      11.227  45.280  24.963  0.00  0.00     0.201 C 
BRANCH  12  15
ATOM     15  O   LIG     1      10.781  42.303  27.216  0.00  0.00    -0.387 OA
ATOM     16  H   LIG     1      11.480  41.994  27.817  0.00  0.00     0.210 HD
ENDBRANCH  12  15
BRANCH  13  17
ATOM     17  O   LIG     1       9.270  44.210  25.897  0.00  0.00    -0.386 OA
ATOM     18  H   LIG     1       9.115  44.261  24.939  0.00  0.00     0.210 HD
ENDBRANCH  13  17
BRANCH  14  19
ATOM     19  O   LIG     1      12.535  45.734  25.305  0.00  0.00    -0.384 OA
ATOM     20  H   LIG     1      13.184  45.149  24.881  0.00  0.00     0.210 HD
ENDBRANCH  14  19
ENDBRANCH   8   9
ENDBRANCH   7   8
ENDBRANCH   6   7
BRANCH   5  21
ATOM     21  O   LIG     1      10.648  43.961  20.239  0.00  0.00    -0.386 OA
ATOM     22  H   LIG     1      11.516  44.349  20.446  0.00  0.00     0.210 HD
ENDBRANCH   5  21
BRANCH   2  23
ATOM     23  O   LIG     1       5.986  46.875  19.774  0.00  0.00    -0.345 OA
BRANCH  23  24
ATOM     24  C   LIG     1       5.009  46.816  20.800  0.00  0.00     0.190 C 
BRANCH  24  25
ATOM     25  C   LIG     1       4.521  45.408  20.921  0.00  0.00     0.001 C 
ATOM     26  C   LIG     1       3.790  44.967  21.956  0.00  0.00     0.006 C 
BRANCH  26  27
ATOM     27  C   LIG     1       3.277  43.595  22.110  0.00  0.00    -0.025 A 
ATOM     28  C   LIG     1       2.679  42.968  21.028  0.00  0.00     0.008 A 
ATOM     29  C   LIG     1       2.193  41.669  21.175  0.00  0.00     0.001 A 
ATOM     30  C   LIG     1       2.310  41.014  22.401  0.00  0.00     0.000 A 
ATOM     31  C   LIG     1       2.913  41.658  23.481  0.00  0.00     0.001 A 
ATOM     32  C   LIG     1       3.400  42.958  23.334  0.00  0.00     0.008 A 
ENDBRANCH  26  27
ENDBRANCH  24  25
ENDBRANCH  23  24
ENDBRANCH   2  23
BRANCH   4  33
ATOM     33  O   LIG     1       9.828  44.961  17.654  0.00  0.00    -0.386 OA
ATOM     34  H   LIG     1      10.413  44.185  17.629  0.00  0.00     0.210 HD
ENDBRANCH   4  33
BRANCH   3  35
ATOM     35  O   LIG     1       6.908  45.349  17.576  0.00  0.00    -0.384 OA
ATOM     36  H   LIG     1       7.451  45.187  16.786  0.00  0.00     0.210 HD
ENDBRANCH   3  35
TORSDOF 13
ENDMDL
MODEL 9
REMARK VINA RESULT:      -7.1      3.706      8.553
REMARK  13 active torsions:
REMARK  status: ('A' for Active; 'I' for Inactive)
REMARK    1  A    between atoms: C_2  and  O_12 
REMARK    2  A    between atoms: C_3  and  O_10 
REMARK    3  A    between atoms: C_4  and  O_8 
REMARK    4  A    between atoms: C_5  and  O_6 
REMARK    5  A    between atoms: C_22  and  C_23 
REMARK    6  A    between atoms: O_12  and  C_13 
REMARK    7  A    between atoms: C_13  and  C_14 
REMARK    8  A    between atoms: C_15  and  C_16 
REMARK    9  A    between atoms: C_23  and  O_24 
REMARK   10  A    between atoms: O_24  and  C_25 
REMARK   11  A    between atoms: C_26  and  O_34 
REMARK   12  A    between atoms: C_27  and  O_32 
REMARK   13  A    between atoms: C_28  and  O_30 
ROOT
ATOM      1  O   LIG     1      10.006  43.535  21.572  0.00  0.00    -0.341 OA
ATOM      2  C   LIG     1      11.222  43.270  20.877  0.00  0.00     0.282 C 
ATOM      3  C   LIG     1      11.107  43.702  19.414  0.00  0.00     0.201 C 
ATOM      4  C   LIG     1      10.664  45.159  19.297  0.00  0.00     0.179 C 
ATOM      5  C   LIG     1       9.451  45.442  20.182  0.00  0.00     0.177 C 
ATOM      6  C   LIG     1       9.684  44.927  21.604  0.00  0.00     0.178 C 
ENDROOT
BRANCH   6   7
ATOM      7  C   LIG     1       8.443  45.093  22.476  0.00  0.00     0.197 C 
BRANCH   7   8
ATOM      8  O   LIG     1       7.450  45.765  21.723  0.00  0.00    -0.346 OA
BRANCH   8   9
ATOM      9  C   LIG     1       6.193  45.100  21.794  0.00  0.00     0.281 C 
ATOM     10  O   LIG     1       6.218  43.833  21.127  0.00  0.00    -0.346 OA
ATOM     11  C   LIG     1       6.382  43.930  19.715  0.00  0.00     0.197 C 
ATOM     12  C   LIG     1       5.233  44.714  19.093  0.00  0.00     0.171 C 
ATOM     13  C   LIG     1       5.138  46.111  19.710  0.00  0.00     0.178 C 
ATOM     14  C   LIG     1       5.088  46.010  21.238  0.00  0.00     0.201 C 
BRANCH  12  15
ATOM     15  O   LIG     1       5.408  44.819  17.687  0.00  0.00    -0.387 OA
ATOM     16  H   LIG     1       5.880  44.023  17.390  0.00  0.00     0.210 HD
ENDBRANCH  12  15
BRANCH  13  17
ATOM     17  O   LIG     1       6.276  46.877  19.319  0.00  0.00    -0.386 OA
ATOM     18  H   LIG     1       6.220  47.015  18.358  0.00  0.00     0.210 HD
ENDBRANCH  13  17
BRANCH  14  19
ATOM     19  O   LIG     1       3.830  45.469  21.634  0.00  0.00    -0.384 OA
ATOM     20  H   LIG     1       3.523  44.862  20.940  0.00  0.00     0.210 HD
ENDBRANCH  14  19
ENDBRANCH   8   9
ENDBRANCH   7   8
ENDBRANCH   6   7
BRANCH   5  21
ATOM     21  O   LIG     1       9.213  46.847  20.222  0.00  0.00    -0.386 OA
ATOM     22  H   LIG     1       8.300  46.988  20.527  0.00  0.00     0.210 HD
ENDBRANCH   5  21
BRANCH   2  23
ATOM     23  O   LIG     1      11.498  41.871  20.904  0.00  0.00    -0.345 OA
BRANCH  23  24
ATOM     24  C   LIG     1      11.901  41.449  22.196  0.00  0.00     0.190 C 
BRANCH  24  25
ATOM     25  C   LIG     1      13.361  41.723  22.359  0.00  0.00     0.001 C 
ATOM     26  C   LIG     1      14.264  41.509  21.390  0.00  0.00     0.006 C 
BRANCH  26  27
ATOM     27  C   LIG     1      15.708  41.778  21.500  0.00  0.00    -0.025 A 
ATOM     28  C   LIG     1      16.158  43.088  21.491  0.00  0.00     0.008 A 
ATOM     29  C   LIG     1      17.525  43.342  21.596  0.00  0.00     0.001 A 
ATOM     30  C   LIG     1      18.425  42.282  21.706  0.00  0.00     0.000 A 
ATOM     31  C   LIG     1      17.958  40.968  21.713  0.00  0.00     0.001 A 
ATOM     32  C   LIG     1      16.590  40.714  21.609  0.00  0.00     0.008 A 
ENDBRANCH  26  27
ENDBRANCH  24  25
ENDBRANCH  23  24
ENDBRANCH   2  23
BRANCH   4  33
ATOM     33  O   LIG     1      10.298  45.437  17.944  0.00  0.00    -0.386 OA
ATOM     34  H   LIG     1       9.935  44.618  17.566  0.00  0.00     0.210 HD
ENDBRANCH   4  33
BRANCH   3  35
ATOM     35  O   LIG     1      12.386  43.544  18.801  0.00  0.00    -0.384 OA
ATOM     36  H   LIG     1      12.288  43.721  17.850  0.00  0.00     0.210 HD
ENDBRANCH   3  35
TORSDOF 13
ENDMDL
