MODEL 1
REMARK VINA RESULT:      -7.8      0.000      0.000
REMARK  13 active torsions:
REMARK  status: ('A' for Active; 'I' for Inactive)
REMARK    1  A    between atoms: C_2  and  O_12 
REMARK    2  A    between atoms: C_3  and  O_10 
REMARK    3  A    between atoms: C_4  and  O_8 
REMARK    4  A    between atoms: C_5  and  O_6 
REMARK    5  A    between atoms: C_22  and  C_23 
REMARK    6  A    between atoms: O_12  and  C_13 
REMARK    7  A    between atoms: C_13  and  C_14 
REMARK    8  A    between atoms: C_15  and  C_16 
REMARK    9  A    between atoms: C_23  and  O_24 
REMARK   10  A    between atoms: O_24  and  C_25 
REMARK   11  A    between atoms: C_26  and  O_34 
REMARK   12  A    between atoms: C_27  and  O_32 
REMARK   13  A    between atoms: C_28  and  O_30 
ROOT
ATOM      1  O   LIG     1       7.039  44.142  21.136  0.00  0.00    -0.341 OA
ATOM      2  C   LIG     1       6.115  44.305  20.062  0.00  0.00     0.282 C 
ATOM      3  C   LIG     1       6.079  45.763  19.603  0.00  0.00     0.201 C 
ATOM      4  C   LIG     1       7.479  46.274  19.263  0.00  0.00     0.179 C 
ATOM      5  C   LIG     1       8.476  45.938  20.371  0.00  0.00     0.177 C 
ATOM      6  C   LIG     1       8.379  44.460  20.759  0.00  0.00     0.178 C 
ENDROOT
BRANCH   6   7
ATOM      7  C   LIG     1       9.283  44.127  21.943  0.00  0.00     0.197 C 
BRANCH   7   8
ATOM      8  O   LIG     1      10.618  44.043  21.481  0.00  0.00    -0.346 OA
BRANCH   8   9
ATOM      9  C   LIG     1      11.298  42.920  22.030  0.00  0.00     0.281 C 
ATOM     10  O   LIG     1      12.523  43.294  22.672  0.00  0.00    -0.346 OA
ATOM     11  C   LIG     1      13.515  43.786  21.774  0.00  0.00     0.197 C 
ATOM     12  C   LIG     1      13.882  42.724  20.745  0.00  0.00     0.171 C 
ATOM     13  C   LIG     1      12.644  42.275  19.968  0.00  0.00     0.178 C 
ATOM     14  C   LIG     1      11.531  41.864  20.938  0.00  0.00     0.201 C 
BRANCH  12  15
ATOM     15  O   LIG     1      14.862  43.223  19.846  0.00  0.00    -0.387 OA
ATOM     16  H   LIG     1      14.999  44.163  20.052  0.00  0.00     0.210 HD
ENDBRANCH  12  15
BRANCH  13  17
ATOM     17  O   LIG     1      12.188  43.349  19.147  0.00  0.00    -0.386 OA
ATOM     18  H   LIG     1      11.561  42.979  18.501  0.00  0.00     0.210 HD
ENDBRANCH  13  17
BRANCH  14  19
ATOM     19  O   LIG     1      11.890  40.641  21.577  0.00  0.00    -0.384 OA
ATOM     20  H   LIG     1      12.844  40.658  21.761  0.00  0.00     0.210 HD
ENDBRANCH  14  19
ENDBRANCH   8   9
ENDBRANCH   7   8
ENDBRANCH   6   7
BRANCH   5  21
ATOM     21  O   LIG     1       9.798  46.221  19.918  0.00  0.00    -0.386 OA
ATOM     22  H   LIG     1       9.880  47.185  19.818  0.00  0.00     0.210 HD
ENDBRANCH   5  21
BRANCH   2  23
ATOM     23  O   LIG     1       4.804  43.947  20.496  0.00  0.00    -0.345 OA
BRANCH  23  24
ATOM     24  C   LIG     1       4.371  44.771  21.566  0.00  0.00     0.190 C 
BRANCH  24  25
ATOM     25  C   LIG     1       3.953  43.900  22.707  0.00  0.00     0.001 C 
ATOM     26  C   LIG     1       3.271  42.755  22.548  0.00  0.00     0.006 C 
BRANCH  26  27
ATOM     27  C   LIG     1       2.852  41.858  23.639  0.00  0.00    -0.025 A 
ATOM     28  C   LIG     1       2.025  40.782  23.354  0.00  0.00     0.008 A 
ATOM     29  C   LIG     1       1.629  39.934  24.387  0.00  0.00     0.001 A 
ATOM     30  C   LIG     1       2.062  40.171  25.691  0.00  0.00     0.000 A 
ATOM     31  C   LIG     1       2.893  41.258  25.963  0.00  0.00     0.001 A 
ATOM     32  C   LIG     1       3.290  42.107  24.929  0.00  0.00     0.008 A 
ENDBRANCH  26  27
ENDBRANCH  24  25
ENDBRANCH  23  24
ENDBRANCH   2  23
BRANCH   4  33
ATOM     33  O   LIG     1       7.444  47.694  19.116  0.00  0.00    -0.386 OA
ATOM     34  H   LIG     1       7.703  47.899  18.201  0.00  0.00     0.210 HD
ENDBRANCH   4  33
BRANCH   3  35
ATOM     35  O   LIG     1       5.249  45.847  18.446  0.00  0.00    -0.384 OA
ATOM     36  H   LIG     1       4.638  46.593  18.567  0.00  0.00     0.210 HD
ENDBRANCH   3  35
TORSDOF 13
ENDMDL
MODEL 2
REMARK VINA RESULT:      -7.8      1.964      3.142
REMARK  13 active torsions:
REMARK  status: ('A' for Active; 'I' for Inactive)
REMARK    1  A    between atoms: C_2  and  O_12 
REMARK    2  A    between atoms: C_3  and  O_10 
REMARK    3  A    between atoms: C_4  and  O_8 
REMARK    4  A    between atoms: C_5  and  O_6 
REMARK    5  A    between atoms: C_22  and  C_23 
REMARK    6  A    between atoms: O_12  and  C_13 
REMARK    7  A    between atoms: C_13  and  C_14 
REMARK    8  A    between atoms: C_15  and  C_16 
REMARK    9  A    between atoms: C_23  and  O_24 
REMARK   10  A    between atoms: O_24  and  C_25 
REMARK   11  A    between atoms: C_26  and  O_34 
REMARK   12  A    between atoms: C_27  and  O_32 
REMARK   13  A    between atoms: C_28  and  O_30 
ROOT
ATOM      1  O   LIG     1       7.394  43.367  20.003  0.00  0.00    -0.341 OA
ATOM      2  C   LIG     1       6.290  43.832  19.231  0.00  0.00     0.282 C 
ATOM      3  C   LIG     1       6.217  45.359  19.265  0.00  0.00     0.201 C 
ATOM      4  C   LIG     1       7.543  45.989  18.840  0.00  0.00     0.179 C 
ATOM      5  C   LIG     1       8.720  45.351  19.577  0.00  0.00     0.177 C 
ATOM      6  C   LIG     1       8.649  43.824  19.496  0.00  0.00     0.178 C 
ENDROOT
BRANCH   6   7
ATOM      7  C   LIG     1       9.749  43.163  20.322  0.00  0.00     0.197 C 
BRANCH   7   8
ATOM      8  O   LIG     1      10.135  44.053  21.353  0.00  0.00    -0.346 OA
BRANCH   8   9
ATOM      9  C   LIG     1      10.114  43.424  22.630  0.00  0.00     0.281 C 
ATOM     10  O   LIG     1       8.788  43.053  23.024  0.00  0.00    -0.346 OA
ATOM     11  C   LIG     1       7.928  44.165  23.266  0.00  0.00     0.197 C 
ATOM     12  C   LIG     1       8.477  45.033  24.391  0.00  0.00     0.171 C 
ATOM     13  C   LIG     1       9.888  45.521  24.055  0.00  0.00     0.178 C 
ATOM     14  C   LIG     1      10.779  44.335  23.673  0.00  0.00     0.201 C 
BRANCH  12  15
ATOM     15  O   LIG     1       7.624  46.145  24.620  0.00  0.00    -0.387 OA
ATOM     16  H   LIG     1       8.146  46.952  24.470  0.00  0.00     0.210 HD
ENDBRANCH  12  15
BRANCH  13  17
ATOM     17  O   LIG     1       9.822  46.439  22.966  0.00  0.00    -0.386 OA
ATOM     18  H   LIG     1       9.664  47.324  23.338  0.00  0.00     0.210 HD
ENDBRANCH  13  17
BRANCH  14  19
ATOM     19  O   LIG     1      11.048  43.552  24.834  0.00  0.00    -0.384 OA
ATOM     20  H   LIG     1      10.211  43.171  25.149  0.00  0.00     0.210 HD
ENDBRANCH  14  19
ENDBRANCH   8   9
ENDBRANCH   7   8
ENDBRANCH   6   7
BRANCH   5  21
ATOM     21  O   LIG     1       9.941  45.798  18.992  0.00  0.00    -0.386 OA
ATOM     22  H   LIG     1       9.885  46.763  18.881  0.00  0.00     0.210 HD
ENDBRANCH   5  21
BRANCH   2  23
ATOM     23  O   LIG     1       5.074  43.321  19.773  0.00  0.00    -0.345 OA
BRANCH  23  24
ATOM     24  C   LIG     1       4.785  43.902  21.034  0.00  0.00     0.190 C 
BRANCH  24  25
ATOM     25  C   LIG     1       4.352  42.823  21.974  0.00  0.00     0.001 C 
ATOM     26  C   LIG     1       3.287  42.933  22.783  0.00  0.00     0.006 C 
BRANCH  26  27
ATOM     27  C   LIG     1       2.815  41.893  23.713  0.00  0.00    -0.025 A 
ATOM     28  C   LIG     1       2.012  40.869  23.236  0.00  0.00     0.008 A 
ATOM     29  C   LIG     1       1.566  39.885  24.116  0.00  0.00     0.001 A 
ATOM     30  C   LIG     1       1.927  39.936  25.463  0.00  0.00     0.000 A 
ATOM     31  C   LIG     1       2.735  40.973  25.929  0.00  0.00     0.001 A 
ATOM     32  C   LIG     1       3.182  41.958  25.047  0.00  0.00     0.008 A 
ENDBRANCH  26  27
ENDBRANCH  24  25
ENDBRANCH  23  24
ENDBRANCH   2  23
BRANCH   4  33
ATOM     33  O   LIG     1       7.530  47.383  19.152  0.00  0.00    -0.386 OA
ATOM     34  H   LIG     1       7.806  47.863  18.353  0.00  0.00     0.210 HD
ENDBRANCH   4  33
BRANCH   3  35
ATOM     35  O   LIG     1       5.186  45.777  18.371  0.00  0.00    -0.384 OA
ATOM     36  H   LIG     1       4.840  44.989  17.920  0.00  0.00     0.210 HD
ENDBRANCH   3  35
TORSDOF 13
ENDMDL
MODEL 3
REMARK VINA RESULT:      -7.7      2.268      2.946
REMARK  13 active torsions:
REMARK  status: ('A' for Active; 'I' for Inactive)
REMARK    1  A    between atoms: C_2  and  O_12 
REMARK    2  A    between atoms: C_3  and  O_10 
REMARK    3  A    between atoms: C_4  and  O_8 
REMARK    4  A    between atoms: C_5  and  O_6 
REMARK    5  A    between atoms: C_22  and  C_23 
REMARK    6  A    between atoms: O_12  and  C_13 
REMARK    7  A    between atoms: C_13  and  C_14 
REMARK    8  A    between atoms: C_15  and  C_16 
REMARK    9  A    between atoms: C_23  and  O_24 
REMARK   10  A    between atoms: O_24  and  C_25 
REMARK   11  A    between atoms: C_26  and  O_34 
REMARK   12  A    between atoms: C_27  and  O_32 
REMARK   13  A    between atoms: C_28  and  O_30 
ROOT
ATOM      1  O   LIG     1       6.451  43.510  20.841  0.00  0.00    -0.341 OA
ATOM      2  C   LIG     1       5.493  43.695  19.801  0.00  0.00     0.282 C 
ATOM      3  C   LIG     1       5.862  44.906  18.943  0.00  0.00     0.201 C 
ATOM      4  C   LIG     1       7.293  44.802  18.418  0.00  0.00     0.179 C 
ATOM      5  C   LIG     1       8.269  44.445  19.538  0.00  0.00     0.177 C 
ATOM      6  C   LIG     1       7.761  43.243  20.339  0.00  0.00     0.178 C 
ENDROOT
BRANCH   6   7
ATOM      7  C   LIG     1       8.659  42.940  21.535  0.00  0.00     0.197 C 
BRANCH   7   8
ATOM      8  O   LIG     1       9.304  44.138  21.929  0.00  0.00    -0.346 OA
BRANCH   8   9
ATOM      9  C   LIG     1       8.748  44.666  23.129  0.00  0.00     0.281 C 
ATOM     10  O   LIG     1       9.043  46.058  23.290  0.00  0.00    -0.346 OA
ATOM     11  C   LIG     1      10.426  46.332  23.500  0.00  0.00     0.197 C 
ATOM     12  C   LIG     1      10.924  45.644  24.765  0.00  0.00     0.171 C 
ATOM     13  C   LIG     1      10.692  44.134  24.684  0.00  0.00     0.178 C 
ATOM     14  C   LIG     1       9.229  43.843  24.334  0.00  0.00     0.201 C 
BRANCH  12  15
ATOM     15  O   LIG     1      12.305  45.910  24.963  0.00  0.00    -0.387 OA
ATOM     16  H   LIG     1      12.412  46.874  25.030  0.00  0.00     0.210 HD
ENDBRANCH  12  15
BRANCH  13  17
ATOM     17  O   LIG     1      11.542  43.580  23.681  0.00  0.00    -0.386 OA
ATOM     18  H   LIG     1      12.418  43.443  24.083  0.00  0.00     0.210 HD
ENDBRANCH  13  17
BRANCH  14  19
ATOM     19  O   LIG     1       8.403  44.170  25.449  0.00  0.00    -0.384 OA
ATOM     20  H   LIG     1       8.503  45.118  25.639  0.00  0.00     0.210 HD
ENDBRANCH  14  19
ENDBRANCH   8   9
ENDBRANCH   7   8
ENDBRANCH   6   7
BRANCH   5  21
ATOM     21  O   LIG     1       9.541  44.133  18.975  0.00  0.00    -0.386 OA
ATOM     22  H   LIG     1       9.392  43.600  18.175  0.00  0.00     0.210 HD
ENDBRANCH   5  21
BRANCH   2  23
ATOM     23  O   LIG     1       4.206  43.931  20.366  0.00  0.00    -0.345 OA
BRANCH  23  24
ATOM     24  C   LIG     1       4.295  44.717  21.544  0.00  0.00     0.190 C 
BRANCH  24  25
ATOM     25  C   LIG     1       3.958  43.860  22.722  0.00  0.00     0.001 C 
ATOM     26  C   LIG     1       3.175  42.773  22.643  0.00  0.00     0.006 C 
BRANCH  26  27
ATOM     27  C   LIG     1       2.828  41.892  23.772  0.00  0.00    -0.025 A 
ATOM     28  C   LIG     1       2.034  40.779  23.546  0.00  0.00     0.008 A 
ATOM     29  C   LIG     1       1.707  39.946  24.614  0.00  0.00     0.001 A 
ATOM     30  C   LIG     1       2.176  40.235  25.895  0.00  0.00     0.000 A 
ATOM     31  C   LIG     1       2.975  41.359  26.108  0.00  0.00     0.001 A 
ATOM     32  C   LIG     1       3.303  42.193  25.038  0.00  0.00     0.008 A 
ENDBRANCH  26  27
ENDBRANCH  24  25
ENDBRANCH  23  24
ENDBRANCH   2  23
BRANCH   4  33
ATOM     33  O   LIG     1       7.691  46.060  17.869  0.00  0.00    -0.386 OA
ATOM     34  H   LIG     1       7.547  46.017  16.909  0.00  0.00     0.210 HD
ENDBRANCH   4  33
BRANCH   3  35
ATOM     35  O   LIG     1       4.956  44.965  17.841  0.00  0.00    -0.384 OA
ATOM     36  H   LIG     1       4.161  44.457  18.076  0.00  0.00     0.210 HD
ENDBRANCH   3  35
TORSDOF 13
ENDMDL
MODEL 4
REMARK VINA RESULT:      -7.6      2.023      8.874
REMARK  13 active torsions:
REMARK  status: ('A' for Active; 'I' for Inactive)
REMARK    1  A    between atoms: C_2  and  O_12 
REMARK    2  A    between atoms: C_3  and  O_10 
REMARK    3  A    between atoms: C_4  and  O_8 
REMARK    4  A    between atoms: C_5  and  O_6 
REMARK    5  A    between atoms: C_22  and  C_23 
REMARK    6  A    between atoms: O_12  and  C_13 
REMARK    7  A    between atoms: C_13  and  C_14 
REMARK    8  A    between atoms: C_15  and  C_16 
REMARK    9  A    between atoms: C_23  and  O_24 
REMARK   10  A    between atoms: O_24  and  C_25 
REMARK   11  A    between atoms: C_26  and  O_34 
REMARK   12  A    between atoms: C_27  and  O_32 
REMARK   13  A    between atoms: C_28  and  O_30 
ROOT
ATOM      1  O   LIG     1       7.928  43.645  19.959  0.00  0.00    -0.341 OA
ATOM      2  C   LIG     1       8.707  44.595  20.684  0.00  0.00     0.282 C 
ATOM      3  C   LIG     1       8.761  45.926  19.934  0.00  0.00     0.201 C 
ATOM      4  C   LIG     1       7.359  46.437  19.605  0.00  0.00     0.179 C 
ATOM      5  C   LIG     1       6.503  45.340  18.973  0.00  0.00     0.177 C 
ATOM      6  C   LIG     1       6.569  44.055  19.802  0.00  0.00     0.178 C 
ENDROOT
BRANCH   6   7
ATOM      7  C   LIG     1       5.817  42.910  19.130  0.00  0.00     0.197 C 
BRANCH   7   8
ATOM      8  O   LIG     1       4.593  42.712  19.814  0.00  0.00    -0.346 OA
BRANCH   8   9
ATOM      9  C   LIG     1       4.703  43.032  21.197  0.00  0.00     0.281 C 
ATOM     10  O   LIG     1       4.926  41.869  22.001  0.00  0.00    -0.346 OA
ATOM     11  C   LIG     1       3.821  40.969  22.029  0.00  0.00     0.197 C 
ATOM     12  C   LIG     1       2.586  41.651  22.604  0.00  0.00     0.171 C 
ATOM     13  C   LIG     1       2.231  42.897  21.790  0.00  0.00     0.178 C 
ATOM     14  C   LIG     1       3.457  43.806  21.655  0.00  0.00     0.201 C 
BRANCH  12  15
ATOM     15  O   LIG     1       1.485  40.754  22.618  0.00  0.00    -0.387 OA
ATOM     16  H   LIG     1       1.196  40.659  23.542  0.00  0.00     0.210 HD
ENDBRANCH  12  15
BRANCH  13  17
ATOM     17  O   LIG     1       1.785  42.501  20.494  0.00  0.00    -0.386 OA
ATOM     18  H   LIG     1       1.773  41.529  20.472  0.00  0.00     0.210 HD
ENDBRANCH  13  17
BRANCH  14  19
ATOM     19  O   LIG     1       3.746  44.399  22.918  0.00  0.00    -0.384 OA
ATOM     20  H   LIG     1       3.051  44.142  23.546  0.00  0.00     0.210 HD
ENDBRANCH  14  19
ENDBRANCH   8   9
ENDBRANCH   7   8
ENDBRANCH   6   7
BRANCH   5  21
ATOM     21  O   LIG     1       5.151  45.782  18.895  0.00  0.00    -0.386 OA
ATOM     22  H   LIG     1       4.774  45.447  18.063  0.00  0.00     0.210 HD
ENDBRANCH   5  21
BRANCH   2  23
ATOM     23  O   LIG     1      10.042  44.115  20.827  0.00  0.00    -0.345 OA
BRANCH  23  24
ATOM     24  C   LIG     1      10.464  43.408  19.672  0.00  0.00     0.190 C 
BRANCH  24  25
ATOM     25  C   LIG     1      11.908  43.051  19.827  0.00  0.00     0.001 C 
ATOM     26  C   LIG     1      12.584  43.197  20.977  0.00  0.00     0.006 C 
BRANCH  26  27
ATOM     27  C   LIG     1      14.000  42.846  21.179  0.00  0.00    -0.025 A 
ATOM     28  C   LIG     1      14.364  41.511  21.261  0.00  0.00     0.008 A 
ATOM     29  C   LIG     1      15.705  41.180  21.453  0.00  0.00     0.001 A 
ATOM     30  C   LIG     1      16.665  42.186  21.561  0.00  0.00     0.000 A 
ATOM     31  C   LIG     1      16.284  43.525  21.477  0.00  0.00     0.001 A 
ATOM     32  C   LIG     1      14.942  43.857  21.285  0.00  0.00     0.008 A 
ENDBRANCH  26  27
ENDBRANCH  24  25
ENDBRANCH  23  24
ENDBRANCH   2  23
BRANCH   4  33
ATOM     33  O   LIG     1       7.452  47.516  18.673  0.00  0.00    -0.386 OA
ATOM     34  H   LIG     1       8.386  47.594  18.411  0.00  0.00     0.210 HD
ENDBRANCH   4  33
BRANCH   3  35
ATOM     35  O   LIG     1       9.431  46.877  20.761  0.00  0.00    -0.384 OA
ATOM     36  H   LIG     1       9.063  46.810  21.658  0.00  0.00     0.210 HD
ENDBRANCH   3  35
TORSDOF 13
ENDMDL
MODEL 5
REMARK VINA RESULT:      -7.5      1.946      2.954
REMARK  13 active torsions:
REMARK  status: ('A' for Active; 'I' for Inactive)
REMARK    1  A    between atoms: C_2  and  O_12 
REMARK    2  A    between atoms: C_3  and  O_10 
REMARK    3  A    between atoms: C_4  and  O_8 
REMARK    4  A    between atoms: C_5  and  O_6 
REMARK    5  A    between atoms: C_22  and  C_23 
REMARK    6  A    between atoms: O_12  and  C_13 
REMARK    7  A    between atoms: C_13  and  C_14 
REMARK    8  A    between atoms: C_15  and  C_16 
REMARK    9  A    between atoms: C_23  and  O_24 
REMARK   10  A    between atoms: O_24  and  C_25 
REMARK   11  A    between atoms: C_26  and  O_34 
REMARK   12  A    between atoms: C_27  and  O_32 
REMARK   13  A    between atoms: C_28  and  O_30 
ROOT
ATOM      1  O   LIG     1       6.881  45.215  21.238  0.00  0.00    -0.341 OA
ATOM      2  C   LIG     1       6.077  44.427  20.363  0.00  0.00     0.282 C 
ATOM      3  C   LIG     1       6.159  44.963  18.933  0.00  0.00     0.201 C 
ATOM      4  C   LIG     1       7.608  45.077  18.464  0.00  0.00     0.179 C 
ATOM      5  C   LIG     1       8.473  45.790  19.503  0.00  0.00     0.177 C 
ATOM      6  C   LIG     1       8.266  45.180  20.892  0.00  0.00     0.178 C 
ENDROOT
BRANCH   6   7
ATOM      7  C   LIG     1       9.030  45.949  21.966  0.00  0.00     0.197 C 
BRANCH   7   8
ATOM      8  O   LIG     1       9.225  45.095  23.078  0.00  0.00    -0.346 OA
BRANCH   8   9
ATOM      9  C   LIG     1      10.303  44.189  22.866  0.00  0.00     0.281 C 
ATOM     10  O   LIG     1      10.259  43.080  23.770  0.00  0.00    -0.346 OA
ATOM     11  C   LIG     1      10.483  43.439  25.132  0.00  0.00     0.197 C 
ATOM     12  C   LIG     1      11.860  44.068  25.301  0.00  0.00     0.171 C 
ATOM     13  C   LIG     1      12.005  45.297  24.401  0.00  0.00     0.178 C 
ATOM     14  C   LIG     1      11.641  44.939  22.956  0.00  0.00     0.201 C 
BRANCH  12  15
ATOM     15  O   LIG     1      12.074  44.435  26.656  0.00  0.00    -0.387 OA
ATOM     16  H   LIG     1      12.495  43.680  27.102  0.00  0.00     0.210 HD
ENDBRANCH  12  15
BRANCH  13  17
ATOM     17  O   LIG     1      11.139  46.329  24.870  0.00  0.00    -0.386 OA
ATOM     18  H   LIG     1      10.261  45.934  25.008  0.00  0.00     0.210 HD
ENDBRANCH  13  17
BRANCH  14  19
ATOM     19  O   LIG     1      12.655  44.099  22.408  0.00  0.00    -0.384 OA
ATOM     20  H   LIG     1      12.231  43.307  22.038  0.00  0.00     0.210 HD
ENDBRANCH  14  19
ENDBRANCH   8   9
ENDBRANCH   7   8
ENDBRANCH   6   7
BRANCH   5  21
ATOM     21  O   LIG     1       9.845  45.672  19.136  0.00  0.00    -0.386 OA
ATOM     22  H   LIG     1      10.376  46.136  19.807  0.00  0.00     0.210 HD
ENDBRANCH   5  21
BRANCH   2  23
ATOM     23  O   LIG     1       4.714  44.484  20.778  0.00  0.00    -0.345 OA
BRANCH  23  24
ATOM     24  C   LIG     1       4.583  45.127  22.036  0.00  0.00     0.190 C 
BRANCH  24  25
ATOM     25  C   LIG     1       4.104  44.128  23.040  0.00  0.00     0.001 C 
ATOM     26  C   LIG     1       3.397  43.035  22.712  0.00  0.00     0.006 C 
BRANCH  26  27
ATOM     27  C   LIG     1       2.917  42.017  23.663  0.00  0.00    -0.025 A 
ATOM     28  C   LIG     1       3.305  42.093  24.992  0.00  0.00     0.008 A 
ATOM     29  C   LIG     1       2.850  41.129  25.891  0.00  0.00     0.001 A 
ATOM     30  C   LIG     1       2.014  40.103  25.452  0.00  0.00     0.000 A 
ATOM     31  C   LIG     1       1.633  40.039  24.112  0.00  0.00     0.001 A 
ATOM     32  C   LIG     1       2.088  41.003  23.212  0.00  0.00     0.008 A 
ENDBRANCH  26  27
ENDBRANCH  24  25
ENDBRANCH  23  24
ENDBRANCH   2  23
BRANCH   4  33
ATOM     33  O   LIG     1       7.658  45.836  17.254  0.00  0.00    -0.386 OA
ATOM     34  H   LIG     1       8.379  46.481  17.344  0.00  0.00     0.210 HD
ENDBRANCH   4  33
BRANCH   3  35
ATOM     35  O   LIG     1       5.452  44.065  18.079  0.00  0.00    -0.384 OA
ATOM     36  H   LIG     1       4.502  44.244  18.172  0.00  0.00     0.210 HD
ENDBRANCH   3  35
TORSDOF 13
ENDMDL
MODEL 6
REMARK VINA RESULT:      -7.4      2.359      8.843
REMARK  13 active torsions:
REMARK  status: ('A' for Active; 'I' for Inactive)
REMARK    1  A    between atoms: C_2  and  O_12 
REMARK    2  A    between atoms: C_3  and  O_10 
REMARK    3  A    between atoms: C_4  and  O_8 
REMARK    4  A    between atoms: C_5  and  O_6 
REMARK    5  A    between atoms: C_22  and  C_23 
REMARK    6  A    between atoms: O_12  and  C_13 
REMARK    7  A    between atoms: C_13  and  C_14 
REMARK    8  A    between atoms: C_15  and  C_16 
REMARK    9  A    between atoms: C_23  and  O_24 
REMARK   10  A    between atoms: O_24  and  C_25 
REMARK   11  A    between atoms: C_26  and  O_34 
REMARK   12  A    between atoms: C_27  and  O_32 
REMARK   13  A    between atoms: C_28  and  O_30 
ROOT
ATOM      1  O   LIG     1       9.545  43.538  20.700  0.00  0.00    -0.341 OA
ATOM      2  C   LIG     1      10.364  44.124  19.691  0.00  0.00     0.282 C 
ATOM      3  C   LIG     1       9.499  44.740  18.590  0.00  0.00     0.201 C 
ATOM      4  C   LIG     1       8.478  45.719  19.167  0.00  0.00     0.179 C 
ATOM      5  C   LIG     1       7.731  45.107  20.351  0.00  0.00     0.177 C 
ATOM      6  C   LIG     1       8.711  44.495  21.355  0.00  0.00     0.178 C 
ENDROOT
BRANCH   6   7
ATOM      7  C   LIG     1       7.985  43.776  22.487  0.00  0.00     0.197 C 
BRANCH   7   8
ATOM      8  O   LIG     1       6.689  43.423  22.039  0.00  0.00    -0.346 OA
BRANCH   8   9
ATOM      9  C   LIG     1       5.810  43.154  23.126  0.00  0.00     0.281 C 
ATOM     10  O   LIG     1       5.120  41.910  22.964  0.00  0.00    -0.346 OA
ATOM     11  C   LIG     1       4.200  41.900  21.875  0.00  0.00     0.197 C 
ATOM     12  C   LIG     1       3.123  42.959  22.072  0.00  0.00     0.171 C 
ATOM     13  C   LIG     1       3.751  44.346  22.219  0.00  0.00     0.178 C 
ATOM     14  C   LIG     1       4.830  44.324  23.307  0.00  0.00     0.201 C 
BRANCH  12  15
ATOM     15  O   LIG     1       2.216  42.953  20.979  0.00  0.00    -0.387 OA
ATOM     16  H   LIG     1       2.317  43.799  20.509  0.00  0.00     0.210 HD
ENDBRANCH  12  15
BRANCH  13  17
ATOM     17  O   LIG     1       4.334  44.733  20.976  0.00  0.00    -0.386 OA
ATOM     18  H   LIG     1       5.300  44.698  21.082  0.00  0.00     0.210 HD
ENDBRANCH  13  17
BRANCH  14  19
ATOM     19  O   LIG     1       4.210  44.187  24.584  0.00  0.00    -0.384 OA
ATOM     20  H   LIG     1       4.063  45.074  24.951  0.00  0.00     0.210 HD
ENDBRANCH  14  19
ENDBRANCH   8   9
ENDBRANCH   7   8
ENDBRANCH   6   7
BRANCH   5  21
ATOM     21  O   LIG     1       6.963  46.119  20.998  0.00  0.00    -0.386 OA
ATOM     22  H   LIG     1       7.553  46.869  21.185  0.00  0.00     0.210 HD
ENDBRANCH   5  21
BRANCH   2  23
ATOM     23  O   LIG     1      11.187  43.123  19.096  0.00  0.00    -0.345 OA
BRANCH  23  24
ATOM     24  C   LIG     1      12.561  43.470  19.175  0.00  0.00     0.190 C 
BRANCH  24  25
ATOM     25  C   LIG     1      13.281  42.412  19.947  0.00  0.00     0.001 C 
ATOM     26  C   LIG     1      14.497  42.591  20.486  0.00  0.00     0.006 C 
BRANCH  26  27
ATOM     27  C   LIG     1      15.238  41.585  21.265  0.00  0.00    -0.025 A 
ATOM     28  C   LIG     1      16.603  41.445  21.071  0.00  0.00     0.008 A 
ATOM     29  C   LIG     1      17.303  40.492  21.810  0.00  0.00     0.001 A 
ATOM     30  C   LIG     1      16.631  39.690  22.731  0.00  0.00     0.000 A 
ATOM     31  C   LIG     1      15.257  39.841  22.915  0.00  0.00     0.001 A 
ATOM     32  C   LIG     1      14.556  40.795  22.177  0.00  0.00     0.008 A 
ENDBRANCH  26  27
ENDBRANCH  24  25
ENDBRANCH  23  24
ENDBRANCH   2  23
BRANCH   4  33
ATOM     33  O   LIG     1       7.517  46.051  18.162  0.00  0.00    -0.386 OA
ATOM     34  H   LIG     1       7.982  46.551  17.470  0.00  0.00     0.210 HD
ENDBRANCH   4  33
BRANCH   3  35
ATOM     35  O   LIG     1      10.356  45.429  17.680  0.00  0.00    -0.384 OA
ATOM     36  H   LIG     1       9.834  45.669  16.897  0.00  0.00     0.210 HD
ENDBRANCH   3  35
TORSDOF 13
ENDMDL
MODEL 7
REMARK VINA RESULT:      -7.3      2.143      3.723
REMARK  13 active torsions:
REMARK  status: ('A' for Active; 'I' for Inactive)
REMARK    1  A    between atoms: C_2  and  O_12 
REMARK    2  A    between atoms: C_3  and  O_10 
REMARK    3  A    between atoms: C_4  and  O_8 
REMARK    4  A    between atoms: C_5  and  O_6 
REMARK    5  A    between atoms: C_22  and  C_23 
REMARK    6  A    between atoms: O_12  and  C_13 
REMARK    7  A    between atoms: C_13  and  C_14 
REMARK    8  A    between atoms: C_15  and  C_16 
REMARK    9  A    between atoms: C_23  and  O_24 
REMARK   10  A    between atoms: O_24  and  C_25 
REMARK   11  A    between atoms: C_26  and  O_34 
REMARK   12  A    between atoms: C_27  and  O_32 
REMARK   13  A    between atoms: C_28  and  O_30 
ROOT
ATOM      1  O   LIG     1       8.807  44.348  20.897  0.00  0.00    -0.341 OA
ATOM      2  C   LIG     1       7.902  44.682  19.847  0.00  0.00     0.282 C 
ATOM      3  C   LIG     1       8.643  45.364  18.697  0.00  0.00     0.201 C 
ATOM      4  C   LIG     1       9.822  44.519  18.216  0.00  0.00     0.179 C 
ATOM      5  C   LIG     1      10.681  44.047  19.388  0.00  0.00     0.177 C 
ATOM      6  C   LIG     1       9.811  43.421  20.481  0.00  0.00     0.178 C 
ENDROOT
BRANCH   6   7
ATOM      7  C   LIG     1      10.632  43.048  21.712  0.00  0.00     0.197 C 
BRANCH   7   8
ATOM      8  O   LIG     1      11.527  44.108  21.995  0.00  0.00    -0.346 OA
BRANCH   8   9
ATOM      9  C   LIG     1      11.813  44.200  23.387  0.00  0.00     0.281 C 
ATOM     10  O   LIG     1      10.839  43.515  24.182  0.00  0.00    -0.346 OA
ATOM     11  C   LIG     1       9.544  44.109  24.142  0.00  0.00     0.197 C 
ATOM     12  C   LIG     1       9.592  45.538  24.668  0.00  0.00     0.171 C 
ATOM     13  C   LIG     1      10.582  46.377  23.859  0.00  0.00     0.178 C 
ATOM     14  C   LIG     1      11.942  45.675  23.798  0.00  0.00     0.201 C 
BRANCH  12  15
ATOM     15  O   LIG     1       8.301  46.130  24.616  0.00  0.00    -0.387 OA
ATOM     16  H   LIG     1       8.422  47.093  24.560  0.00  0.00     0.210 HD
ENDBRANCH  12  15
BRANCH  13  17
ATOM     17  O   LIG     1      10.077  46.557  22.537  0.00  0.00    -0.386 OA
ATOM     18  H   LIG     1      10.182  47.497  22.309  0.00  0.00     0.210 HD
ENDBRANCH  13  17
BRANCH  14  19
ATOM     19  O   LIG     1      12.557  45.722  25.083  0.00  0.00    -0.384 OA
ATOM     20  H   LIG     1      12.525  46.638  25.406  0.00  0.00     0.210 HD
ENDBRANCH  14  19
ENDBRANCH   8   9
ENDBRANCH   7   8
ENDBRANCH   6   7
BRANCH   5  21
ATOM     21  O   LIG     1      11.623  43.083  18.926  0.00  0.00    -0.386 OA
ATOM     22  H   LIG     1      11.482  42.261  19.427  0.00  0.00     0.210 HD
ENDBRANCH   5  21
BRANCH   2  23
ATOM     23  O   LIG     1       6.913  45.587  20.333  0.00  0.00    -0.345 OA
BRANCH  23  24
ATOM     24  C   LIG     1       6.694  45.416  21.724  0.00  0.00     0.190 C 
BRANCH  24  25
ATOM     25  C   LIG     1       5.720  44.300  21.925  0.00  0.00     0.001 C 
ATOM     26  C   LIG     1       4.817  44.279  22.917  0.00  0.00     0.006 C 
BRANCH  26  27
ATOM     27  C   LIG     1       3.830  43.209  23.145  0.00  0.00    -0.025 A 
ATOM     28  C   LIG     1       3.734  42.629  24.400  0.00  0.00     0.008 A 
ATOM     29  C   LIG     1       2.800  41.617  24.615  0.00  0.00     0.001 A 
ATOM     30  C   LIG     1       1.974  41.196  23.572  0.00  0.00     0.000 A 
ATOM     31  C   LIG     1       2.082  41.789  22.315  0.00  0.00     0.001 A 
ATOM     32  C   LIG     1       3.017  42.802  22.099  0.00  0.00     0.008 A 
ENDBRANCH  26  27
ENDBRANCH  24  25
ENDBRANCH  23  24
ENDBRANCH   2  23
BRANCH   4  33
ATOM     33  O   LIG     1      10.647  45.302  17.351  0.00  0.00    -0.386 OA
ATOM     34  H   LIG     1      11.364  45.674  17.892  0.00  0.00     0.210 HD
ENDBRANCH   4  33
BRANCH   3  35
ATOM     35  O   LIG     1       7.724  45.552  17.622  0.00  0.00    -0.384 OA
ATOM     36  H   LIG     1       7.812  46.467  17.307  0.00  0.00     0.210 HD
ENDBRANCH   3  35
TORSDOF 13
ENDMDL
MODEL 8
REMARK VINA RESULT:      -7.3      2.447      4.086
REMARK  13 active torsions:
REMARK  status: ('A' for Active; 'I' for Inactive)
REMARK    1  A    between atoms: C_2  and  O_12 
REMARK    2  A    between atoms: C_3  and  O_10 
REMARK    3  A    between atoms: C_4  and  O_8 
REMARK    4  A    between atoms: C_5  and  O_6 
REMARK    5  A    between atoms: C_22  and  C_23 
REMARK    6  A    between atoms: O_12  and  C_13 
REMARK    7  A    between atoms: C_13  and  C_14 
REMARK    8  A    between atoms: C_15  and  C_16 
REMARK    9  A    between atoms: C_23  and  O_24 
REMARK   10  A    between atoms: O_24  and  C_25 
REMARK   11  A    between atoms: C_26  and  O_34 
REMARK   12  A    between atoms: C_27  and  O_32 
REMARK   13  A    between atoms: C_28  and  O_30 
ROOT
ATOM      1  O   LIG     1       6.684  44.251  20.398  0.00  0.00    -0.341 OA
ATOM      2  C   LIG     1       6.546  45.399  19.564  0.00  0.00     0.282 C 
ATOM      3  C   LIG     1       7.472  46.519  20.038  0.00  0.00     0.201 C 
ATOM      4  C   LIG     1       8.918  46.038  20.149  0.00  0.00     0.179 C 
ATOM      5  C   LIG     1       9.005  44.719  20.915  0.00  0.00     0.177 C 
ATOM      6  C   LIG     1       8.002  43.702  20.364  0.00  0.00     0.178 C 
ENDROOT
BRANCH   6   7
ATOM      7  C   LIG     1       7.988  42.418  21.187  0.00  0.00     0.197 C 
BRANCH   7   8
ATOM      8  O   LIG     1       8.113  42.759  22.556  0.00  0.00    -0.346 OA
BRANCH   8   9
ATOM      9  C   LIG     1       8.828  41.766  23.285  0.00  0.00     0.281 C 
ATOM     10  O   LIG     1       7.999  40.650  23.626  0.00  0.00    -0.346 OA
ATOM     11  C   LIG     1       6.966  40.963  24.557  0.00  0.00     0.197 C 
ATOM     12  C   LIG     1       7.559  41.467  25.866  0.00  0.00     0.171 C 
ATOM     13  C   LIG     1       8.439  42.694  25.623  0.00  0.00     0.178 C 
ATOM     14  C   LIG     1       9.471  42.394  24.531  0.00  0.00     0.201 C 
BRANCH  12  15
ATOM     15  O   LIG     1       6.525  41.790  26.786  0.00  0.00    -0.387 OA
ATOM     16  H   LIG     1       6.753  41.383  27.640  0.00  0.00     0.210 HD
ENDBRANCH  12  15
BRANCH  13  17
ATOM     17  O   LIG     1       7.620  43.790  25.218  0.00  0.00    -0.386 OA
ATOM     18  H   LIG     1       7.450  44.335  26.006  0.00  0.00     0.210 HD
ENDBRANCH  13  17
BRANCH  14  19
ATOM     19  O   LIG     1      10.440  41.479  25.035  0.00  0.00    -0.384 OA
ATOM     20  H   LIG     1      11.268  41.962  25.192  0.00  0.00     0.210 HD
ENDBRANCH  14  19
ENDBRANCH   8   9
ENDBRANCH   7   8
ENDBRANCH   6   7
BRANCH   5  21
ATOM     21  O   LIG     1      10.324  44.191  20.798  0.00  0.00    -0.386 OA
ATOM     22  H   LIG     1      10.435  43.861  19.890  0.00  0.00     0.210 HD
ENDBRANCH   5  21
BRANCH   2  23
ATOM     23  O   LIG     1       5.205  45.880  19.623  0.00  0.00    -0.345 OA
BRANCH  23  24
ATOM     24  C   LIG     1       4.819  46.171  20.956  0.00  0.00     0.190 C 
BRANCH  24  25
ATOM     25  C   LIG     1       4.128  44.976  21.529  0.00  0.00     0.001 C 
ATOM     26  C   LIG     1       4.345  44.525  22.775  0.00  0.00     0.006 C 
BRANCH  26  27
ATOM     27  C   LIG     1       3.678  43.363  23.386  0.00  0.00    -0.025 A 
ATOM     28  C   LIG     1       2.823  42.589  22.618  0.00  0.00     0.008 A 
ATOM     29  C   LIG     1       2.192  41.489  23.197  0.00  0.00     0.001 A 
ATOM     30  C   LIG     1       2.423  41.176  24.537  0.00  0.00     0.000 A 
ATOM     31  C   LIG     1       3.287  41.964  25.297  0.00  0.00     0.001 A 
ATOM     32  C   LIG     1       3.918  43.065  24.718  0.00  0.00     0.008 A 
ENDBRANCH  26  27
ENDBRANCH  24  25
ENDBRANCH  23  24
ENDBRANCH   2  23
BRANCH   4  33
ATOM     33  O   LIG     1       9.691  47.010  20.854  0.00  0.00    -0.386 OA
ATOM     34  H   LIG     1       9.422  46.974  21.788  0.00  0.00     0.210 HD
ENDBRANCH   4  33
BRANCH   3  35
ATOM     35  O   LIG     1       7.399  47.588  19.095  0.00  0.00    -0.384 OA
ATOM     36  H   LIG     1       8.226  47.598  18.585  0.00  0.00     0.210 HD
ENDBRANCH   3  35
TORSDOF 13
ENDMDL
MODEL 9
REMARK VINA RESULT:      -7.3      2.110      3.175
REMARK  13 active torsions:
REMARK  status: ('A' for Active; 'I' for Inactive)
REMARK    1  A    between atoms: C_2  and  O_12 
REMARK    2  A    between atoms: C_3  and  O_10 
REMARK    3  A    between atoms: C_4  and  O_8 
REMARK    4  A    between atoms: C_5  and  O_6 
REMARK    5  A    between atoms: C_22  and  C_23 
REMARK    6  A    between atoms: O_12  and  C_13 
REMARK    7  A    between atoms: C_13  and  C_14 
REMARK    8  A    between atoms: C_15  and  C_16 
REMARK    9  A    between atoms: C_23  and  O_24 
REMARK   10  A    between atoms: O_24  and  C_25 
REMARK   11  A    between atoms: C_26  and  O_34 
REMARK   12  A    between atoms: C_27  and  O_32 
REMARK   13  A    between atoms: C_28  and  O_30 
ROOT
ATOM      1  O   LIG     1       8.144  44.365  20.965  0.00  0.00    -0.341 OA
ATOM      2  C   LIG     1       7.403  44.827  19.838  0.00  0.00     0.282 C 
ATOM      3  C   LIG     1       8.328  45.521  18.837  0.00  0.00     0.201 C 
ATOM      4  C   LIG     1       9.500  44.622  18.446  0.00  0.00     0.179 C 
ATOM      5  C   LIG     1      10.170  44.019  19.680  0.00  0.00     0.177 C 
ATOM      6  C   LIG     1       9.130  43.393  20.612  0.00  0.00     0.178 C 
ENDROOT
BRANCH   6   7
ATOM      7  C   LIG     1       9.762  42.887  21.906  0.00  0.00     0.197 C 
BRANCH   7   8
ATOM      8  O   LIG     1      10.777  43.794  22.296  0.00  0.00    -0.346 OA
BRANCH   8   9
ATOM      9  C   LIG     1      10.349  44.639  23.359  0.00  0.00     0.281 C 
ATOM     10  O   LIG     1      11.277  45.701  23.607  0.00  0.00    -0.346 OA
ATOM     11  C   LIG     1      12.534  45.258  24.115  0.00  0.00     0.197 C 
ATOM     12  C   LIG     1      12.351  44.535  25.443  0.00  0.00     0.171 C 
ATOM     13  C   LIG     1      11.400  43.348  25.285  0.00  0.00     0.178 C 
ATOM     14  C   LIG     1      10.095  43.803  24.623  0.00  0.00     0.201 C 
BRANCH  12  15
ATOM     15  O   LIG     1      13.605  44.085  25.939  0.00  0.00    -0.387 OA
ATOM     16  H   LIG     1      14.149  43.830  25.175  0.00  0.00     0.210 HD
ENDBRANCH  12  15
BRANCH  13  17
ATOM     17  O   LIG     1      12.022  42.350  24.477  0.00  0.00    -0.386 OA
ATOM     18  H   LIG     1      11.770  42.521  23.554  0.00  0.00     0.210 HD
ENDBRANCH  13  17
BRANCH  14  19
ATOM     19  O   LIG     1       9.354  44.604  25.540  0.00  0.00    -0.384 OA
ATOM     20  H   LIG     1       8.928  45.324  25.046  0.00  0.00     0.210 HD
ENDBRANCH  14  19
ENDBRANCH   8   9
ENDBRANCH   7   8
ENDBRANCH   6   7
BRANCH   5  21
ATOM     21  O   LIG     1      11.099  43.018  19.270  0.00  0.00    -0.386 OA
ATOM     22  H   LIG     1      11.295  42.458  20.042  0.00  0.00     0.210 HD
ENDBRANCH   5  21
BRANCH   2  23
ATOM     23  O   LIG     1       6.422  45.772  20.261  0.00  0.00    -0.345 OA
BRANCH  23  24
ATOM     24  C   LIG     1       5.108  45.303  20.006  0.00  0.00     0.190 C 
BRANCH  24  25
ATOM     25  C   LIG     1       4.777  44.235  20.998  0.00  0.00     0.001 C 
ATOM     26  C   LIG     1       3.661  44.241  21.743  0.00  0.00     0.006 C 
BRANCH  26  27
ATOM     27  C   LIG     1       3.287  43.205  22.720  0.00  0.00    -0.025 A 
ATOM     28  C   LIG     1       2.364  42.234  22.362  0.00  0.00     0.008 A 
ATOM     29  C   LIG     1       2.011  41.254  23.288  0.00  0.00     0.001 A 
ATOM     30  C   LIG     1       2.582  41.256  24.561  0.00  0.00     0.000 A 
ATOM     31  C   LIG     1       3.508  42.239  24.907  0.00  0.00     0.001 A 
ATOM     32  C   LIG     1       3.863  43.220  23.981  0.00  0.00     0.008 A 
ENDBRANCH  26  27
ENDBRANCH  24  25
ENDBRANCH  23  24
ENDBRANCH   2  23
BRANCH   4  33
ATOM     33  O   LIG     1      10.478  45.393  17.745  0.00  0.00    -0.386 OA
ATOM     34  H   LIG     1      11.256  44.826  17.614  0.00  0.00     0.210 HD
ENDBRANCH   4  33
BRANCH   3  35
ATOM     35  O   LIG     1       7.566  45.841  17.673  0.00  0.00    -0.384 OA
ATOM     36  H   LIG     1       6.776  46.330  17.955  0.00  0.00     0.210 HD
ENDBRANCH   3  35
TORSDOF 13
ENDMDL
