MODEL 1
REMARK VINA RESULT:    -7.636      0.000      0.000
REMARK INTER + INTRA:         -13.401
REMARK INTER:                 -12.301
REMARK INTRA:                  -1.100
REMARK UNBOUND:                -1.301
REMARK  13 active torsions:
REMARK  status: ('A' for Active; 'I' for Inactive)
REMARK    1  A    between atoms: C_2  and  O_12 
REMARK    2  A    between atoms: C_3  and  O_10 
REMARK    3  A    between atoms: C_4  and  O_8 
REMARK    4  A    between atoms: C_5  and  O_6 
REMARK    5  A    between atoms: C_22  and  C_23 
REMARK    6  A    between atoms: O_12  and  C_13 
REMARK    7  A    between atoms: C_13  and  C_14 
REMARK    8  A    between atoms: C_15  and  C_16 
REMARK    9  A    between atoms: C_23  and  O_24 
REMARK   10  A    between atoms: O_24  and  C_25 
REMARK   11  A    between atoms: C_26  and  O_34 
REMARK   12  A    between atoms: C_27  and  O_32 
REMARK   13  A    between atoms: C_28  and  O_30 
ROOT
ATOM      1  O   LIG     1       7.081  44.200  21.253  0.00  0.00    -0.341 OA
ATOM      2  C   LIG     1       6.117  44.359  20.215  0.00  0.00     0.282 C 
ATOM      3  C   LIG     1       6.099  45.804  19.717  0.00  0.00     0.201 C 
ATOM      4  C   LIG     1       7.495  46.269  19.305  0.00  0.00     0.179 C 
ATOM      5  C   LIG     1       8.529  45.937  20.379  0.00  0.00     0.177 C 
ATOM      6  C   LIG     1       8.412  44.473  20.812  0.00  0.00     0.178 C 
ENDROOT
BRANCH   6   7
ATOM      7  C   LIG     1       9.356  44.148  21.966  0.00  0.00     0.197 C 
BRANCH   7   8
ATOM      8  O   LIG     1      10.677  44.075  21.461  0.00  0.00    -0.346 OA
BRANCH   8   9
ATOM      9  C   LIG     1      11.374  42.941  21.967  0.00  0.00     0.281 C 
ATOM     10  O   LIG     1      12.572  43.312  22.658  0.00  0.00    -0.346 OA
ATOM     11  C   LIG     1      13.571  43.877  21.812  0.00  0.00     0.197 C 
ATOM     12  C   LIG     1      13.991  42.881  20.739  0.00  0.00     0.171 C 
ATOM     13  C   LIG     1      12.784  42.443  19.908  0.00  0.00     0.178 C 
ATOM     14  C   LIG     1      11.661  41.952  20.827  0.00  0.00     0.201 C 
BRANCH  12  15
ATOM     15  O   LIG     1      14.979  43.452  19.892  0.00  0.00    -0.387 OA
ATOM     16  H   LIG     1      15.488  42.722  19.500  0.00  0.00     0.210 HD
ENDBRANCH  12  15
BRANCH  13  17
ATOM     17  O   LIG     1      12.320  43.547  19.133  0.00  0.00    -0.386 OA
ATOM     18  H   LIG     1      12.100  44.266  19.751  0.00  0.00     0.210 HD
ENDBRANCH  13  17
BRANCH  14  19
ATOM     19  O   LIG     1      12.037  40.706  21.409  0.00  0.00    -0.384 OA
ATOM     20  H   LIG     1      12.769  40.864  22.029  0.00  0.00     0.210 HD
ENDBRANCH  14  19
ENDBRANCH   8   9
ENDBRANCH   7   8
ENDBRANCH   6   7
BRANCH   5  21
ATOM     21  O   LIG     1       9.837  46.174  19.864  0.00  0.00    -0.386 OA
ATOM     22  H   LIG     1      10.393  45.410  20.097  0.00  0.00     0.210 HD
ENDBRANCH   5  21
BRANCH   2  23
ATOM     23  O   LIG     1       4.817  44.047  20.712  0.00  0.00    -0.345 OA
BRANCH  23  24
ATOM     24  C   LIG     1       4.506  44.817  21.862  0.00  0.00     0.190 C 
BRANCH  24  25
ATOM     25  C   LIG     1       4.061  43.896  22.953  0.00  0.00     0.001 C 
ATOM     26  C   LIG     1       3.302  42.811  22.737  0.00  0.00     0.006 C 
BRANCH  26  27
ATOM     27  C   LIG     1       2.852  41.869  23.776  0.00  0.00    -0.025 A 
ATOM     28  C   LIG     1       2.023  40.815  23.425  0.00  0.00     0.008 A 
ATOM     29  C   LIG     1       1.598  39.923  24.409  0.00  0.00     0.001 A 
ATOM     30  C   LIG     1       2.006  40.097  25.731  0.00  0.00     0.000 A 
ATOM     31  C   LIG     1       2.840  41.162  26.070  0.00  0.00     0.001 A 
ATOM     32  C   LIG     1       3.265  42.054  25.086  0.00  0.00     0.008 A 
ENDBRANCH  26  27
ENDBRANCH  24  25
ENDBRANCH  23  24
ENDBRANCH   2  23
BRANCH   4  33
ATOM     33  O   LIG     1       7.489  47.686  19.120  0.00  0.00    -0.386 OA
ATOM     34  H   LIG     1       7.836  48.087  19.935  0.00  0.00     0.210 HD
ENDBRANCH   4  33
BRANCH   3  35
ATOM     35  O   LIG     1       5.222  45.879  18.593  0.00  0.00    -0.384 OA
ATOM     36  H   LIG     1       5.408  45.121  18.015  0.00  0.00     0.210 HD
ENDBRANCH   3  35
TORSDOF 13
ENDMDL
MODEL 2
REMARK VINA RESULT:    -7.608      2.396      3.222
REMARK INTER + INTRA:         -13.357
REMARK INTER:                 -12.051
REMARK INTRA:                  -1.305
REMARK UNBOUND:                -1.301
REMARK  13 active torsions:
REMARK  status: ('A' for Active; 'I' for Inactive)
REMARK    1  A    between atoms: C_2  and  O_12 
REMARK    2  A    between atoms: C_3  and  O_10 
REMARK    3  A    between atoms: C_4  and  O_8 
REMARK    4  A    between atoms: C_5  and  O_6 
REMARK    5  A    between atoms: C_22  and  C_23 
REMARK    6  A    between atoms: O_12  and  C_13 
REMARK    7  A    between atoms: C_13  and  C_14 
REMARK    8  A    between atoms: C_15  and  C_16 
REMARK    9  A    between atoms: C_23  and  O_24 
REMARK   10  A    between atoms: O_24  and  C_25 
REMARK   11  A    between atoms: C_26  and  O_34 
REMARK   12  A    between atoms: C_27  and  O_32 
REMARK   13  A    between atoms: C_28  and  O_30 
ROOT
ATOM      1  O   LIG     1       6.456  43.578  20.856  0.00  0.00    -0.341 OA
ATOM      2  C   LIG     1       5.478  43.746  19.833  0.00  0.00     0.282 C 
ATOM      3  C   LIG     1       5.828  44.944  18.949  0.00  0.00     0.201 C 
ATOM      4  C   LIG     1       7.249  44.831  18.397  0.00  0.00     0.179 C 
ATOM      5  C   LIG     1       8.248  44.492  19.503  0.00  0.00     0.177 C 
ATOM      6  C   LIG     1       7.756  43.303  20.333  0.00  0.00     0.178 C 
ENDROOT
BRANCH   6   7
ATOM      7  C   LIG     1       8.679  43.019  21.514  0.00  0.00     0.197 C 
BRANCH   7   8
ATOM      8  O   LIG     1       9.338  44.220  21.871  0.00  0.00    -0.346 OA
BRANCH   8   9
ATOM      9  C   LIG     1       8.777  44.803  23.042  0.00  0.00     0.281 C 
ATOM     10  O   LIG     1       9.152  46.177  23.192  0.00  0.00    -0.346 OA
ATOM     11  C   LIG     1      10.542  46.369  23.444  0.00  0.00     0.197 C 
ATOM     12  C   LIG     1      10.954  45.674  24.736  0.00  0.00     0.171 C 
ATOM     13  C   LIG     1      10.632  44.180  24.671  0.00  0.00     0.178 C 
ATOM     14  C   LIG     1       9.166  43.973  24.276  0.00  0.00     0.201 C 
BRANCH  12  15
ATOM     15  O   LIG     1      12.342  45.858  24.977  0.00  0.00    -0.387 OA
ATOM     16  H   LIG     1      12.588  45.292  25.729  0.00  0.00     0.210 HD
ENDBRANCH  12  15
BRANCH  13  17
ATOM     17  O   LIG     1      11.478  43.556  23.707  0.00  0.00    -0.386 OA
ATOM     18  H   LIG     1      10.974  43.483  22.878  0.00  0.00     0.210 HD
ENDBRANCH  13  17
BRANCH  14  19
ATOM     19  O   LIG     1       8.325  44.370  25.357  0.00  0.00    -0.384 OA
ATOM     20  H   LIG     1       7.548  43.787  25.373  0.00  0.00     0.210 HD
ENDBRANCH  14  19
ENDBRANCH   8   9
ENDBRANCH   7   8
ENDBRANCH   6   7
BRANCH   5  21
ATOM     21  O   LIG     1       9.508  44.171  18.919  0.00  0.00    -0.386 OA
ATOM     22  H   LIG     1       9.401  44.181  17.952  0.00  0.00     0.210 HD
ENDBRANCH   5  21
BRANCH   2  23
ATOM     23  O   LIG     1       4.202  43.991  20.421  0.00  0.00    -0.345 OA
BRANCH  23  24
ATOM     24  C   LIG     1       4.245  45.098  21.308  0.00  0.00     0.190 C 
BRANCH  24  25
ATOM     25  C   LIG     1       4.111  44.598  22.710  0.00  0.00     0.001 C 
ATOM     26  C   LIG     1       3.768  43.337  23.013  0.00  0.00     0.006 C 
BRANCH  26  27
ATOM     27  C   LIG     1       3.637  42.796  24.377  0.00  0.00    -0.025 A 
ATOM     28  C   LIG     1       4.279  43.436  25.425  0.00  0.00     0.008 A 
ATOM     29  C   LIG     1       4.155  42.924  26.716  0.00  0.00     0.001 A 
ATOM     30  C   LIG     1       3.392  41.779  26.943  0.00  0.00     0.000 A 
ATOM     31  C   LIG     1       2.751  41.145  25.878  0.00  0.00     0.001 A 
ATOM     32  C   LIG     1       2.875  41.658  24.587  0.00  0.00     0.008 A 
ENDBRANCH  26  27
ENDBRANCH  24  25
ENDBRANCH  23  24
ENDBRANCH   2  23
BRANCH   4  33
ATOM     33  O   LIG     1       7.636  46.080  17.821  0.00  0.00    -0.386 OA
ATOM     34  H   LIG     1       7.361  46.068  16.888  0.00  0.00     0.210 HD
ENDBRANCH   4  33
BRANCH   3  35
ATOM     35  O   LIG     1       4.900  44.986  17.865  0.00  0.00    -0.384 OA
ATOM     36  H   LIG     1       4.452  45.848  17.887  0.00  0.00     0.210 HD
ENDBRANCH   3  35
TORSDOF 13
ENDMDL
MODEL 3
REMARK VINA RESULT:    -7.578      2.169      8.714
REMARK INTER + INTRA:         -13.310
REMARK INTER:                 -12.222
REMARK INTRA:                  -1.087
REMARK UNBOUND:                -1.301
REMARK  13 active torsions:
REMARK  status: ('A' for Active; 'I' for Inactive)
REMARK    1  A    between atoms: C_2  and  O_12 
REMARK    2  A    between atoms: C_3  and  O_10 
REMARK    3  A    between atoms: C_4  and  O_8 
REMARK    4  A    between atoms: C_5  and  O_6 
REMARK    5  A    between atoms: C_22  and  C_23 
REMARK    6  A    between atoms: O_12  and  C_13 
REMARK    7  A    between atoms: C_13  and  C_14 
REMARK    8  A    between atoms: C_15  and  C_16 
REMARK    9  A    between atoms: C_23  and  O_24 
REMARK   10  A    between atoms: O_24  and  C_25 
REMARK   11  A    between atoms: C_26  and  O_34 
REMARK   12  A    between atoms: C_27  and  O_32 
REMARK   13  A    between atoms: C_28  and  O_30 
ROOT
ATOM      1  O   LIG     1       8.108  43.866  19.768  0.00  0.00    -0.341 OA
ATOM      2  C   LIG     1       8.884  44.742  20.583  0.00  0.00     0.282 C 
ATOM      3  C   LIG     1       8.886  46.155  19.999  0.00  0.00     0.201 C 
ATOM      4  C   LIG     1       7.464  46.665  19.769  0.00  0.00     0.179 C 
ATOM      5  C   LIG     1       6.618  45.629  19.030  0.00  0.00     0.177 C 
ATOM      6  C   LIG     1       6.736  44.256  19.695  0.00  0.00     0.178 C 
ENDROOT
BRANCH   6   7
ATOM      7  C   LIG     1       5.993  43.181  18.908  0.00  0.00     0.197 C 
BRANCH   7   8
ATOM      8  O   LIG     1       4.743  42.949  19.532  0.00  0.00    -0.346 OA
BRANCH   8   9
ATOM      9  C   LIG     1       4.790  43.224  20.928  0.00  0.00     0.281 C 
ATOM     10  O   LIG     1       5.086  42.052  21.695  0.00  0.00    -0.346 OA
ATOM     11  C   LIG     1       4.058  41.065  21.658  0.00  0.00     0.197 C 
ATOM     12  C   LIG     1       2.758  41.623  22.221  0.00  0.00     0.171 C 
ATOM     13  C   LIG     1       2.323  42.866  21.443  0.00  0.00     0.178 C 
ATOM     14  C   LIG     1       3.473  43.876  21.377  0.00  0.00     0.201 C 
BRANCH  12  15
ATOM     15  O   LIG     1       1.733  40.639  22.170  0.00  0.00    -0.387 OA
ATOM     16  H   LIG     1       2.006  39.901  22.742  0.00  0.00     0.210 HD
ENDBRANCH  12  15
BRANCH  13  17
ATOM     17  O   LIG     1       1.944  42.486  20.121  0.00  0.00    -0.386 OA
ATOM     18  H   LIG     1       1.215  43.068  19.847  0.00  0.00     0.210 HD
ENDBRANCH  13  17
BRANCH  14  19
ATOM     19  O   LIG     1       3.680  44.441  22.669  0.00  0.00    -0.384 OA
ATOM     20  H   LIG     1       4.015  45.346  22.559  0.00  0.00     0.210 HD
ENDBRANCH  14  19
ENDBRANCH   8   9
ENDBRANCH   7   8
ENDBRANCH   6   7
BRANCH   5  21
ATOM     21  O   LIG     1       5.253  46.042  19.039  0.00  0.00    -0.386 OA
ATOM     22  H   LIG     1       5.214  46.941  19.409  0.00  0.00     0.210 HD
ENDBRANCH   5  21
BRANCH   2  23
ATOM     23  O   LIG     1      10.233  44.284  20.635  0.00  0.00    -0.345 OA
BRANCH  23  24
ATOM     24  C   LIG     1      10.501  43.346  19.604  0.00  0.00     0.190 C 
BRANCH  24  25
ATOM     25  C   LIG     1      11.616  42.453  20.043  0.00  0.00     0.001 C 
ATOM     26  C   LIG     1      12.703  42.896  20.693  0.00  0.00     0.006 C 
BRANCH  26  27
ATOM     27  C   LIG     1      13.819  42.053  21.157  0.00  0.00    -0.025 A 
ATOM     28  C   LIG     1      15.088  42.262  20.642  0.00  0.00     0.008 A 
ATOM     29  C   LIG     1      16.143  41.463  21.082  0.00  0.00     0.001 A 
ATOM     30  C   LIG     1      15.916  40.465  22.029  0.00  0.00     0.000 A 
ATOM     31  C   LIG     1      14.633  40.266  22.538  0.00  0.00     0.001 A 
ATOM     32  C   LIG     1      13.577  41.065  22.098  0.00  0.00     0.008 A 
ENDBRANCH  26  27
ENDBRANCH  24  25
ENDBRANCH  23  24
ENDBRANCH   2  23
BRANCH   4  33
ATOM     33  O   LIG     1       7.507  47.850  18.973  0.00  0.00    -0.386 OA
ATOM     34  H   LIG     1       7.569  48.607  19.580  0.00  0.00     0.210 HD
ENDBRANCH   4  33
BRANCH   3  35
ATOM     35  O   LIG     1       9.557  47.017  20.918  0.00  0.00    -0.384 OA
ATOM     36  H   LIG     1       8.936  47.235  21.634  0.00  0.00     0.210 HD
ENDBRANCH   3  35
TORSDOF 13
ENDMDL
MODEL 4
REMARK VINA RESULT:    -7.539      1.954      3.089
REMARK INTER + INTRA:         -13.248
REMARK INTER:                 -11.918
REMARK INTRA:                  -1.329
REMARK UNBOUND:                -1.301
REMARK  13 active torsions:
REMARK  status: ('A' for Active; 'I' for Inactive)
REMARK    1  A    between atoms: C_2  and  O_12 
REMARK    2  A    between atoms: C_3  and  O_10 
REMARK    3  A    between atoms: C_4  and  O_8 
REMARK    4  A    between atoms: C_5  and  O_6 
REMARK    5  A    between atoms: C_22  and  C_23 
REMARK    6  A    between atoms: O_12  and  C_13 
REMARK    7  A    between atoms: C_13  and  C_14 
REMARK    8  A    between atoms: C_15  and  C_16 
REMARK    9  A    between atoms: C_23  and  O_24 
REMARK   10  A    between atoms: O_24  and  C_25 
REMARK   11  A    between atoms: C_26  and  O_34 
REMARK   12  A    between atoms: C_27  and  O_32 
REMARK   13  A    between atoms: C_28  and  O_30 
ROOT
ATOM      1  O   LIG     1       7.364  43.394  20.062  0.00  0.00    -0.341 OA
ATOM      2  C   LIG     1       6.242  43.863  19.318  0.00  0.00     0.282 C 
ATOM      3  C   LIG     1       6.210  45.392  19.305  0.00  0.00     0.201 C 
ATOM      4  C   LIG     1       7.534  45.973  18.810  0.00  0.00     0.179 C 
ATOM      5  C   LIG     1       8.722  45.327  19.522  0.00  0.00     0.177 C 
ATOM      6  C   LIG     1       8.609  43.801  19.493  0.00  0.00     0.178 C 
ENDROOT
BRANCH   6   7
ATOM      7  C   LIG     1       9.722  43.137  20.298  0.00  0.00     0.197 C 
BRANCH   7   8
ATOM      8  O   LIG     1      10.178  44.052  21.278  0.00  0.00    -0.346 OA
BRANCH   8   9
ATOM      9  C   LIG     1      10.257  43.450  22.566  0.00  0.00     0.281 C 
ATOM     10  O   LIG     1       8.969  43.064  23.058  0.00  0.00    -0.346 OA
ATOM     11  C   LIG     1       8.106  44.165  23.336  0.00  0.00     0.197 C 
ATOM     12  C   LIG     1       8.714  45.068  24.402  0.00  0.00     0.171 C 
ATOM     13  C   LIG     1      10.089  45.573  23.960  0.00  0.00     0.178 C 
ATOM     14  C   LIG     1      10.975  44.396  23.541  0.00  0.00     0.201 C 
BRANCH  12  15
ATOM     15  O   LIG     1       7.857  46.169  24.667  0.00  0.00    -0.387 OA
ATOM     16  H   LIG     1       7.286  45.924  25.415  0.00  0.00     0.210 HD
ENDBRANCH  12  15
BRANCH  13  17
ATOM     17  O   LIG     1       9.930  46.467  22.859  0.00  0.00    -0.386 OA
ATOM     18  H   LIG     1       9.118  46.210  22.388  0.00  0.00     0.210 HD
ENDBRANCH  13  17
BRANCH  14  19
ATOM     19  O   LIG     1      11.338  43.644  24.697  0.00  0.00    -0.384 OA
ATOM     20  H   LIG     1      11.494  42.723  24.428  0.00  0.00     0.210 HD
ENDBRANCH  14  19
ENDBRANCH   8   9
ENDBRANCH   7   8
ENDBRANCH   6   7
BRANCH   5  21
ATOM     21  O   LIG     1       9.930  45.723  18.877  0.00  0.00    -0.386 OA
ATOM     22  H   LIG     1      10.089  45.111  18.138  0.00  0.00     0.210 HD
ENDBRANCH   5  21
BRANCH   2  23
ATOM     23  O   LIG     1       5.035  43.402  19.922  0.00  0.00    -0.345 OA
BRANCH  23  24
ATOM     24  C   LIG     1       4.691  44.185  21.054  0.00  0.00     0.190 C 
BRANCH  24  25
ATOM     25  C   LIG     1       4.356  43.271  22.188  0.00  0.00     0.001 C 
ATOM     26  C   LIG     1       3.134  42.750  22.379  0.00  0.00     0.006 C 
BRANCH  26  27
ATOM     27  C   LIG     1       2.762  41.835  23.472  0.00  0.00    -0.025 A 
ATOM     28  C   LIG     1       1.958  40.740  23.197  0.00  0.00     0.008 A 
ATOM     29  C   LIG     1       1.607  39.875  24.232  0.00  0.00     0.001 A 
ATOM     30  C   LIG     1       2.062  40.115  25.529  0.00  0.00     0.000 A 
ATOM     31  C   LIG     1       2.870  41.221  25.790  0.00  0.00     0.001 A 
ATOM     32  C   LIG     1       3.222  42.087  24.754  0.00  0.00     0.008 A 
ENDBRANCH  26  27
ENDBRANCH  24  25
ENDBRANCH  23  24
ENDBRANCH   2  23
BRANCH   4  33
ATOM     33  O   LIG     1       7.567  47.376  19.078  0.00  0.00    -0.386 OA
ATOM     34  H   LIG     1       6.856  47.788  18.559  0.00  0.00     0.210 HD
ENDBRANCH   4  33
BRANCH   3  35
ATOM     35  O   LIG     1       5.155  45.809  18.439  0.00  0.00    -0.384 OA
ATOM     36  H   LIG     1       4.995  46.755  18.594  0.00  0.00     0.210 HD
ENDBRANCH   3  35
TORSDOF 13
ENDMDL
MODEL 5
REMARK VINA RESULT:    -7.526      2.441      8.458
REMARK INTER + INTRA:         -13.226
REMARK INTER:                 -12.357
REMARK INTRA:                  -0.869
REMARK UNBOUND:                -1.301
REMARK  13 active torsions:
REMARK  status: ('A' for Active; 'I' for Inactive)
REMARK    1  A    between atoms: C_2  and  O_12 
REMARK    2  A    between atoms: C_3  and  O_10 
REMARK    3  A    between atoms: C_4  and  O_8 
REMARK    4  A    between atoms: C_5  and  O_6 
REMARK    5  A    between atoms: C_22  and  C_23 
REMARK    6  A    between atoms: O_12  and  C_13 
REMARK    7  A    between atoms: C_13  and  C_14 
REMARK    8  A    between atoms: C_15  and  C_16 
REMARK    9  A    between atoms: C_23  and  O_24 
REMARK   10  A    between atoms: O_24  and  C_25 
REMARK   11  A    between atoms: C_26  and  O_34 
REMARK   12  A    between atoms: C_27  and  O_32 
REMARK   13  A    between atoms: C_28  and  O_30 
ROOT
ATOM      1  O   LIG     1       6.227  44.504  20.567  0.00  0.00    -0.341 OA
ATOM      2  C   LIG     1       7.624  44.729  20.398  0.00  0.00     0.282 C 
ATOM      3  C   LIG     1       7.867  45.863  19.401  0.00  0.00     0.201 C 
ATOM      4  C   LIG     1       7.108  47.128  19.801  0.00  0.00     0.179 C 
ATOM      5  C   LIG     1       5.649  46.817  20.129  0.00  0.00     0.177 C 
ATOM      6  C   LIG     1       5.549  45.641  21.104  0.00  0.00     0.178 C 
ENDROOT
BRANCH   6   7
ATOM      7  C   LIG     1       4.099  45.237  21.356  0.00  0.00     0.197 C 
BRANCH   7   8
ATOM      8  O   LIG     1       3.993  43.832  21.218  0.00  0.00    -0.346 OA
BRANCH   8   9
ATOM      9  C   LIG     1       4.299  43.158  22.434  0.00  0.00     0.281 C 
ATOM     10  O   LIG     1       4.863  41.862  22.203  0.00  0.00    -0.346 OA
ATOM     11  C   LIG     1       3.954  40.936  21.612  0.00  0.00     0.197 C 
ATOM     12  C   LIG     1       2.747  40.718  22.517  0.00  0.00     0.171 C 
ATOM     13  C   LIG     1       2.039  42.044  22.800  0.00  0.00     0.178 C 
ATOM     14  C   LIG     1       3.044  43.078  23.318  0.00  0.00     0.201 C 
BRANCH  12  15
ATOM     15  O   LIG     1       1.838  39.804  21.919  0.00  0.00    -0.387 OA
ATOM     16  H   LIG     1       1.296  40.302  21.283  0.00  0.00     0.210 HD
ENDBRANCH  12  15
BRANCH  13  17
ATOM     17  O   LIG     1       1.436  42.523  21.599  0.00  0.00    -0.386 OA
ATOM     18  H   LIG     1       0.502  42.710  21.795  0.00  0.00     0.210 HD
ENDBRANCH  13  17
BRANCH  14  19
ATOM     19  O   LIG     1       3.455  42.720  24.635  0.00  0.00    -0.384 OA
ATOM     20  H   LIG     1       2.902  41.981  24.940  0.00  0.00     0.210 HD
ENDBRANCH  14  19
ENDBRANCH   8   9
ENDBRANCH   7   8
ENDBRANCH   6   7
BRANCH   5  21
ATOM     21  O   LIG     1       5.041  47.966  20.713  0.00  0.00    -0.386 OA
ATOM     22  H   LIG     1       4.096  47.957  20.480  0.00  0.00     0.210 HD
ENDBRANCH   5  21
BRANCH   2  23
ATOM     23  O   LIG     1       8.244  43.551  19.885  0.00  0.00    -0.345 OA
BRANCH  23  24
ATOM     24  C   LIG     1       8.591  42.654  20.927  0.00  0.00     0.190 C 
BRANCH  24  25
ATOM     25  C   LIG     1       9.974  42.974  21.398  0.00  0.00     0.001 C 
ATOM     26  C   LIG     1      11.025  43.090  20.572  0.00  0.00     0.006 C 
BRANCH  26  27
ATOM     27  C   LIG     1      12.399  43.419  20.988  0.00  0.00    -0.025 A 
ATOM     28  C   LIG     1      12.625  43.904  22.266  0.00  0.00     0.008 A 
ATOM     29  C   LIG     1      13.926  44.215  22.659  0.00  0.00     0.001 A 
ATOM     30  C   LIG     1      14.985  44.037  21.770  0.00  0.00     0.000 A 
ATOM     31  C   LIG     1      14.744  43.547  20.486  0.00  0.00     0.001 A 
ATOM     32  C   LIG     1      13.442  43.237  20.093  0.00  0.00     0.008 A 
ENDBRANCH  26  27
ENDBRANCH  24  25
ENDBRANCH  23  24
ENDBRANCH   2  23
BRANCH   4  33
ATOM     33  O   LIG     1       7.129  48.058  18.717  0.00  0.00    -0.386 OA
ATOM     34  H   LIG     1       7.745  48.771  18.957  0.00  0.00     0.210 HD
ENDBRANCH   4  33
BRANCH   3  35
ATOM     35  O   LIG     1       9.268  46.139  19.372  0.00  0.00    -0.384 OA
ATOM     36  H   LIG     1       9.489  46.478  18.488  0.00  0.00     0.210 HD
ENDBRANCH   3  35
TORSDOF 13
ENDMDL
MODEL 6
REMARK VINA RESULT:    -7.509      1.813      2.712
REMARK INTER + INTRA:         -13.199
REMARK INTER:                 -12.026
REMARK INTRA:                  -1.173
REMARK UNBOUND:                -1.301
REMARK  13 active torsions:
REMARK  status: ('A' for Active; 'I' for Inactive)
REMARK    1  A    between atoms: C_2  and  O_12 
REMARK    2  A    between atoms: C_3  and  O_10 
REMARK    3  A    between atoms: C_4  and  O_8 
REMARK    4  A    between atoms: C_5  and  O_6 
REMARK    5  A    between atoms: C_22  and  C_23 
REMARK    6  A    between atoms: O_12  and  C_13 
REMARK    7  A    between atoms: C_13  and  C_14 
REMARK    8  A    between atoms: C_15  and  C_16 
REMARK    9  A    between atoms: C_23  and  O_24 
REMARK   10  A    between atoms: O_24  and  C_25 
REMARK   11  A    between atoms: C_26  and  O_34 
REMARK   12  A    between atoms: C_27  and  O_32 
REMARK   13  A    between atoms: C_28  and  O_30 
ROOT
ATOM      1  O   LIG     1       6.856  44.113  21.127  0.00  0.00    -0.341 OA
ATOM      2  C   LIG     1       6.535  43.871  19.759  0.00  0.00     0.282 C 
ATOM      3  C   LIG     1       6.408  45.191  18.997  0.00  0.00     0.201 C 
ATOM      4  C   LIG     1       7.657  46.055  19.168  0.00  0.00     0.179 C 
ATOM      5  C   LIG     1       8.062  46.158  20.638  0.00  0.00     0.177 C 
ATOM      6  C   LIG     1       8.113  44.772  21.287  0.00  0.00     0.178 C 
ENDROOT
BRANCH   6   7
ATOM      7  C   LIG     1       8.401  44.859  22.783  0.00  0.00     0.197 C 
BRANCH   7   8
ATOM      8  O   LIG     1       9.743  45.275  22.960  0.00  0.00    -0.346 OA
BRANCH   8   9
ATOM      9  C   LIG     1      10.655  44.191  22.823  0.00  0.00     0.281 C 
ATOM     10  O   LIG     1      10.395  43.148  23.769  0.00  0.00    -0.346 OA
ATOM     11  C   LIG     1      10.640  43.526  25.122  0.00  0.00     0.197 C 
ATOM     12  C   LIG     1      12.099  43.919  25.314  0.00  0.00     0.171 C 
ATOM     13  C   LIG     1      12.478  45.063  24.372  0.00  0.00     0.178 C 
ATOM     14  C   LIG     1      12.099  44.706  22.930  0.00  0.00     0.201 C 
BRANCH  12  15
ATOM     15  O   LIG     1      12.334  44.306  26.661  0.00  0.00    -0.387 OA
ATOM     16  H   LIG     1      13.199  44.751  26.692  0.00  0.00     0.210 HD
ENDBRANCH  12  15
BRANCH  13  17
ATOM     17  O   LIG     1      11.788  46.248  24.767  0.00  0.00    -0.386 OA
ATOM     18  H   LIG     1      11.253  46.541  24.010  0.00  0.00     0.210 HD
ENDBRANCH  13  17
BRANCH  14  19
ATOM     19  O   LIG     1      12.968  43.681  22.454  0.00  0.00    -0.384 OA
ATOM     20  H   LIG     1      13.278  43.929  21.567  0.00  0.00     0.210 HD
ENDBRANCH  14  19
ENDBRANCH   8   9
ENDBRANCH   7   8
ENDBRANCH   6   7
BRANCH   5  21
ATOM     21  O   LIG     1       9.346  46.770  20.732  0.00  0.00    -0.386 OA
ATOM     22  H   LIG     1       9.615  47.042  19.838  0.00  0.00     0.210 HD
ENDBRANCH   5  21
BRANCH   2  23
ATOM     23  O   LIG     1       5.285  43.190  19.670  0.00  0.00    -0.345 OA
BRANCH  23  24
ATOM     24  C   LIG     1       4.273  43.870  20.396  0.00  0.00     0.190 C 
BRANCH  24  25
ATOM     25  C   LIG     1       3.670  42.923  21.383  0.00  0.00     0.001 C 
ATOM     26  C   LIG     1       3.833  43.038  22.710  0.00  0.00     0.006 C 
BRANCH  26  27
ATOM     27  C   LIG     1       3.246  42.140  23.719  0.00  0.00    -0.025 A 
ATOM     28  C   LIG     1       2.389  41.130  23.313  0.00  0.00     0.008 A 
ATOM     29  C   LIG     1       1.834  40.279  24.269  0.00  0.00     0.001 A 
ATOM     30  C   LIG     1       2.143  40.450  25.618  0.00  0.00     0.000 A 
ATOM     31  C   LIG     1       3.007  41.470  26.012  0.00  0.00     0.001 A 
ATOM     32  C   LIG     1       3.562  42.321  25.056  0.00  0.00     0.008 A 
ENDBRANCH  26  27
ENDBRANCH  24  25
ENDBRANCH  23  24
ENDBRANCH   2  23
BRANCH   4  33
ATOM     33  O   LIG     1       7.393  47.374  18.689  0.00  0.00    -0.386 OA
ATOM     34  H   LIG     1       6.548  47.346  18.209  0.00  0.00     0.210 HD
ENDBRANCH   4  33
BRANCH   3  35
ATOM     35  O   LIG     1       6.223  44.893  17.614  0.00  0.00    -0.384 OA
ATOM     36  H   LIG     1       6.144  45.734  17.132  0.00  0.00     0.210 HD
ENDBRANCH   3  35
TORSDOF 13
ENDMDL
MODEL 7
REMARK VINA RESULT:    -7.482      1.979      3.126
REMARK INTER + INTRA:         -13.157
REMARK INTER:                 -11.592
REMARK INTRA:                  -1.565
REMARK UNBOUND:                -1.301
REMARK  13 active torsions:
REMARK  status: ('A' for Active; 'I' for Inactive)
REMARK    1  A    between atoms: C_2  and  O_12 
REMARK    2  A    between atoms: C_3  and  O_10 
REMARK    3  A    between atoms: C_4  and  O_8 
REMARK    4  A    between atoms: C_5  and  O_6 
REMARK    5  A    between atoms: C_22  and  C_23 
REMARK    6  A    between atoms: O_12  and  C_13 
REMARK    7  A    between atoms: C_13  and  C_14 
REMARK    8  A    between atoms: C_15  and  C_16 
REMARK    9  A    between atoms: C_23  and  O_24 
REMARK   10  A    between atoms: O_24  and  C_25 
REMARK   11  A    between atoms: C_26  and  O_34 
REMARK   12  A    between atoms: C_27  and  O_32 
REMARK   13  A    between atoms: C_28  and  O_30 
ROOT
ATOM      1  O   LIG     1       8.080  44.189  20.988  0.00  0.00    -0.341 OA
ATOM      2  C   LIG     1       7.361  44.897  19.981  0.00  0.00     0.282 C 
ATOM      3  C   LIG     1       8.325  45.654  19.067  0.00  0.00     0.201 C 
ATOM      4  C   LIG     1       9.392  44.724  18.491  0.00  0.00     0.179 C 
ATOM      5  C   LIG     1      10.028  43.867  19.583  0.00  0.00     0.177 C 
ATOM      6  C   LIG     1       8.954  43.199  20.445  0.00  0.00     0.178 C 
ENDROOT
BRANCH   6   7
ATOM      7  C   LIG     1       9.563  42.430  21.614  0.00  0.00     0.197 C 
BRANCH   7   8
ATOM      8  O   LIG     1       9.505  43.247  22.769  0.00  0.00    -0.346 OA
BRANCH   8   9
ATOM      9  C   LIG     1      10.757  43.296  23.445  0.00  0.00     0.281 C 
ATOM     10  O   LIG     1      10.606  43.608  24.834  0.00  0.00    -0.346 OA
ATOM     11  C   LIG     1      10.127  44.929  25.077  0.00  0.00     0.197 C 
ATOM     12  C   LIG     1      11.093  45.963  24.513  0.00  0.00     0.171 C 
ATOM     13  C   LIG     1      11.300  45.745  23.013  0.00  0.00     0.178 C 
ATOM     14  C   LIG     1      11.694  44.289  22.741  0.00  0.00     0.201 C 
BRANCH  12  15
ATOM     15  O   LIG     1      10.605  47.276  24.747  0.00  0.00    -0.387 OA
ATOM     16  H   LIG     1       9.661  47.285  24.514  0.00  0.00     0.210 HD
ENDBRANCH  12  15
BRANCH  13  17
ATOM     17  O   LIG     1      10.090  46.050  22.321  0.00  0.00    -0.386 OA
ATOM     18  H   LIG     1       9.454  46.385  22.977  0.00  0.00     0.210 HD
ENDBRANCH  13  17
BRANCH  14  19
ATOM     19  O   LIG     1      13.018  44.061  23.218  0.00  0.00    -0.384 OA
ATOM     20  H   LIG     1      13.365  43.261  22.791  0.00  0.00     0.210 HD
ENDBRANCH  14  19
ENDBRANCH   8   9
ENDBRANCH   7   8
ENDBRANCH   6   7
BRANCH   5  21
ATOM     21  O   LIG     1      10.842  42.863  18.982  0.00  0.00    -0.386 OA
ATOM     22  H   LIG     1      10.470  41.995  19.217  0.00  0.00     0.210 HD
ENDBRANCH   5  21
BRANCH   2  23
ATOM     23  O   LIG     1       6.490  45.849  20.589  0.00  0.00    -0.345 OA
BRANCH  23  24
ATOM     24  C   LIG     1       5.131  45.565  20.300  0.00  0.00     0.190 C 
BRANCH  24  25
ATOM     25  C   LIG     1       4.709  44.371  21.093  0.00  0.00     0.001 C 
ATOM     26  C   LIG     1       3.794  44.424  22.074  0.00  0.00     0.006 C 
BRANCH  26  27
ATOM     27  C   LIG     1       3.337  43.272  22.872  0.00  0.00    -0.025 A 
ATOM     28  C   LIG     1       2.448  42.368  22.312  0.00  0.00     0.008 A 
ATOM     29  C   LIG     1       2.016  41.279  23.067  0.00  0.00     0.001 A 
ATOM     30  C   LIG     1       2.477  41.107  24.373  0.00  0.00     0.000 A 
ATOM     31  C   LIG     1       3.371  42.025  24.923  0.00  0.00     0.001 A 
ATOM     32  C   LIG     1       3.804  43.115  24.167  0.00  0.00     0.008 A 
ENDBRANCH  26  27
ENDBRANCH  24  25
ENDBRANCH  23  24
ENDBRANCH   2  23
BRANCH   4  33
ATOM     33  O   LIG     1      10.424  45.503  17.883  0.00  0.00    -0.386 OA
ATOM     34  H   LIG     1      11.165  44.904  17.691  0.00  0.00     0.210 HD
ENDBRANCH   4  33
BRANCH   3  35
ATOM     35  O   LIG     1       7.571  46.231  18.001  0.00  0.00    -0.384 OA
ATOM     36  H   LIG     1       7.154  47.043  18.333  0.00  0.00     0.210 HD
ENDBRANCH   3  35
TORSDOF 13
ENDMDL
MODEL 8
REMARK VINA RESULT:    -7.457      2.628      3.960
REMARK INTER + INTRA:         -13.117
REMARK INTER:                 -11.386
REMARK INTRA:                  -1.732
REMARK UNBOUND:                -1.301
REMARK  13 active torsions:
REMARK  status: ('A' for Active; 'I' for Inactive)
REMARK    1  A    between atoms: C_2  and  O_12 
REMARK    2  A    between atoms: C_3  and  O_10 
REMARK    3  A    between atoms: C_4  and  O_8 
REMARK    4  A    between atoms: C_5  and  O_6 
REMARK    5  A    between atoms: C_22  and  C_23 
REMARK    6  A    between atoms: O_12  and  C_13 
REMARK    7  A    between atoms: C_13  and  C_14 
REMARK    8  A    between atoms: C_15  and  C_16 
REMARK    9  A    between atoms: C_23  and  O_24 
REMARK   10  A    between atoms: O_24  and  C_25 
REMARK   11  A    between atoms: C_26  and  O_34 
REMARK   12  A    between atoms: C_27  and  O_32 
REMARK   13  A    between atoms: C_28  and  O_30 
ROOT
ATOM      1  O   LIG     1       6.636  44.659  21.481  0.00  0.00    -0.341 OA
ATOM      2  C   LIG     1       5.804  44.574  20.326  0.00  0.00     0.282 C 
ATOM      3  C   LIG     1       5.868  45.875  19.524  0.00  0.00     0.201 C 
ATOM      4  C   LIG     1       7.310  46.252  19.188  0.00  0.00     0.179 C 
ATOM      5  C   LIG     1       8.205  46.176  20.425  0.00  0.00     0.177 C 
ATOM      6  C   LIG     1       8.014  44.842  21.152  0.00  0.00     0.178 C 
ENDROOT
BRANCH   6   7
ATOM      7  C   LIG     1       8.809  44.790  22.454  0.00  0.00     0.197 C 
BRANCH   7   8
ATOM      8  O   LIG     1       9.084  43.435  22.759  0.00  0.00    -0.346 OA
BRANCH   8   9
ATOM      9  C   LIG     1       9.396  43.256  24.136  0.00  0.00     0.281 C 
ATOM     10  O   LIG     1       9.723  41.896  24.441  0.00  0.00    -0.346 OA
ATOM     11  C   LIG     1       8.625  40.996  24.303  0.00  0.00     0.197 C 
ATOM     12  C   LIG     1       7.493  41.382  25.246  0.00  0.00     0.171 C 
ATOM     13  C   LIG     1       7.035  42.817  24.980  0.00  0.00     0.178 C 
ATOM     14  C   LIG     1       8.236  43.768  25.005  0.00  0.00     0.201 C 
BRANCH  12  15
ATOM     15  O   LIG     1       6.397  40.490  25.097  0.00  0.00    -0.387 OA
ATOM     16  H   LIG     1       5.585  40.986  25.300  0.00  0.00     0.210 HD
ENDBRANCH  12  15
BRANCH  13  17
ATOM     17  O   LIG     1       6.402  42.881  23.703  0.00  0.00    -0.386 OA
ATOM     18  H   LIG     1       5.782  43.630  23.721  0.00  0.00     0.210 HD
ENDBRANCH  13  17
BRANCH  14  19
ATOM     19  O   LIG     1       8.711  43.894  26.343  0.00  0.00    -0.384 OA
ATOM     20  H   LIG     1       8.389  43.135  26.857  0.00  0.00     0.210 HD
ENDBRANCH  14  19
ENDBRANCH   8   9
ENDBRANCH   7   8
ENDBRANCH   6   7
BRANCH   5  21
ATOM     21  O   LIG     1       9.568  46.307  20.030  0.00  0.00    -0.386 OA
ATOM     22  H   LIG     1       9.608  46.231  19.061  0.00  0.00     0.210 HD
ENDBRANCH   5  21
BRANCH   2  23
ATOM     23  O   LIG     1       4.450  44.366  20.721  0.00  0.00    -0.345 OA
BRANCH  23  24
ATOM     24  C   LIG     1       3.978  43.096  20.301  0.00  0.00     0.190 C 
BRANCH  24  25
ATOM     25  C   LIG     1       3.747  42.244  21.507  0.00  0.00     0.001 C 
ATOM     26  C   LIG     1       3.027  42.645  22.566  0.00  0.00     0.006 C 
BRANCH  26  27
ATOM     27  C   LIG     1       2.762  41.836  23.768  0.00  0.00    -0.025 A 
ATOM     28  C   LIG     1       3.284  42.239  24.987  0.00  0.00     0.008 A 
ATOM     29  C   LIG     1       3.032  41.472  26.124  0.00  0.00     0.001 A 
ATOM     30  C   LIG     1       2.263  40.313  26.029  0.00  0.00     0.000 A 
ATOM     31  C   LIG     1       1.745  39.919  24.795  0.00  0.00     0.001 A 
ATOM     32  C   LIG     1       1.996  40.686  23.657  0.00  0.00     0.008 A 
ENDBRANCH  26  27
ENDBRANCH  24  25
ENDBRANCH  23  24
ENDBRANCH   2  23
BRANCH   4  33
ATOM     33  O   LIG     1       7.350  47.593  18.697  0.00  0.00    -0.386 OA
ATOM     34  H   LIG     1       7.933  48.101  19.285  0.00  0.00     0.210 HD
ENDBRANCH   4  33
BRANCH   3  35
ATOM     35  O   LIG     1       5.132  45.690  18.315  0.00  0.00    -0.384 OA
ATOM     36  H   LIG     1       5.500  44.919  17.852  0.00  0.00     0.210 HD
ENDBRANCH   3  35
TORSDOF 13
ENDMDL
MODEL 9
REMARK VINA RESULT:    -7.294      1.568      2.221
REMARK INTER + INTRA:         -12.859
REMARK INTER:                 -11.559
REMARK INTRA:                  -1.301
REMARK UNBOUND:                -1.301
REMARK  13 active torsions:
REMARK  status: ('A' for Active; 'I' for Inactive)
REMARK    1  A    between atoms: C_2  and  O_12 
REMARK    2  A    between atoms: C_3  and  O_10 
REMARK    3  A    between atoms: C_4  and  O_8 
REMARK    4  A    between atoms: C_5  and  O_6 
REMARK    5  A    between atoms: C_22  and  C_23 
REMARK    6  A    between atoms: O_12  and  C_13 
REMARK    7  A    between atoms: C_13  and  C_14 
REMARK    8  A    between atoms: C_15  and  C_16 
REMARK    9  A    between atoms: C_23  and  O_24 
REMARK   10  A    between atoms: O_24  and  C_25 
REMARK   11  A    between atoms: C_26  and  O_34 
REMARK   12  A    between atoms: C_27  and  O_32 
REMARK   13  A    between atoms: C_28  and  O_30 
ROOT
ATOM      1  O   LIG     1       8.655  44.629  21.222  0.00  0.00    -0.341 OA
ATOM      2  C   LIG     1       7.757  45.161  20.251  0.00  0.00     0.282 C 
ATOM      3  C   LIG     1       8.526  45.665  19.030  0.00  0.00     0.201 C 
ATOM      4  C   LIG     1       9.439  44.581  18.460  0.00  0.00     0.179 C 
ATOM      5  C   LIG     1      10.272  43.924  19.559  0.00  0.00     0.177 C 
ATOM      6  C   LIG     1       9.386  43.502  20.734  0.00  0.00     0.178 C 
ENDROOT
BRANCH   6   7
ATOM      7  C   LIG     1      10.209  42.950  21.894  0.00  0.00     0.197 C 
BRANCH   7   8
ATOM      8  O   LIG     1      11.567  43.291  21.685  0.00  0.00    -0.346 OA
BRANCH   8   9
ATOM      9  C   LIG     1      12.441  42.478  22.461  0.00  0.00     0.281 C 
ATOM     10  O   LIG     1      13.392  43.260  23.194  0.00  0.00    -0.346 OA
ATOM     11  C   LIG     1      14.333  43.942  22.369  0.00  0.00     0.197 C 
ATOM     12  C   LIG     1      15.145  42.949  21.546  0.00  0.00     0.171 C 
ATOM     13  C   LIG     1      14.224  42.080  20.688  0.00  0.00     0.178 C 
ATOM     14  C   LIG     1      13.134  41.446  21.558  0.00  0.00     0.201 C 
BRANCH  12  15
ATOM     15  O   LIG     1      16.073  43.634  20.717  0.00  0.00    -0.387 OA
ATOM     16  H   LIG     1      15.588  43.958  19.938  0.00  0.00     0.210 HD
ENDBRANCH  12  15
BRANCH  13  17
ATOM     17  O   LIG     1      13.619  42.888  19.679  0.00  0.00    -0.386 OA
ATOM     18  H   LIG     1      14.298  43.502  19.350  0.00  0.00     0.210 HD
ENDBRANCH  13  17
BRANCH  14  19
ATOM     19  O   LIG     1      13.719  40.451  22.395  0.00  0.00    -0.384 OA
ATOM     20  H   LIG     1      13.036  40.119  23.002  0.00  0.00     0.210 HD
ENDBRANCH  14  19
ENDBRANCH   8   9
ENDBRANCH   7   8
ENDBRANCH   6   7
BRANCH   5  21
ATOM     21  O   LIG     1      10.931  42.776  19.030  0.00  0.00    -0.386 OA
ATOM     22  H   LIG     1      11.550  43.076  18.342  0.00  0.00     0.210 HD
ENDBRANCH   5  21
BRANCH   2  23
ATOM     23  O   LIG     1       7.042  46.263  20.808  0.00  0.00    -0.345 OA
BRANCH  23  24
ATOM     24  C   LIG     1       5.649  46.150  20.566  0.00  0.00     0.190 C 
BRANCH  24  25
ATOM     25  C   LIG     1       5.138  44.926  21.255  0.00  0.00     0.001 C 
ATOM     26  C   LIG     1       3.885  44.811  21.721  0.00  0.00     0.006 C 
BRANCH  26  27
ATOM     27  C   LIG     1       3.334  43.621  22.392  0.00  0.00    -0.025 A 
ATOM     28  C   LIG     1       2.361  42.869  21.752  0.00  0.00     0.008 A 
ATOM     29  C   LIG     1       1.840  41.743  22.388  0.00  0.00     0.001 A 
ATOM     30  C   LIG     1       2.297  41.383  23.656  0.00  0.00     0.000 A 
ATOM     31  C   LIG     1       3.276  42.149  24.288  0.00  0.00     0.001 A 
ATOM     32  C   LIG     1       3.797  43.276  23.652  0.00  0.00     0.008 A 
ENDBRANCH  26  27
ENDBRANCH  24  25
ENDBRANCH  23  24
ENDBRANCH   2  23
BRANCH   4  33
ATOM     33  O   LIG     1      10.338  45.164  17.514  0.00  0.00    -0.386 OA
ATOM     34  H   LIG     1      11.106  44.572  17.440  0.00  0.00     0.210 HD
ENDBRANCH   4  33
BRANCH   3  35
ATOM     35  O   LIG     1       7.580  46.059  18.036  0.00  0.00    -0.384 OA
ATOM     36  H   LIG     1       7.538  45.358  17.365  0.00  0.00     0.210 HD
ENDBRANCH   3  35
TORSDOF 13
ENDMDL
