MODEL 1
REMARK VINA RESULT:      -6.2      0.000      0.000
REMARK  5 active torsions:
REMARK  status: ('A' for Active; 'I' for Inactive)
REMARK    1  A    between atoms: C_3  and  O_1 
REMARK    2  A    between atoms: C_4  and  O_14 
REMARK    3  A    between atoms: C_7  and  C_8 
REMARK    4  A    between atoms: C_9  and  C_10 
REMARK    5  A    between atoms: C_10  and  O_12 
ROOT
ATOM      1  C   LIG     1      31.435   7.221  -6.136  0.00  0.00     0.162 A 
ATOM      2  C   LIG     1      30.875   6.491  -7.185  0.00  0.00     0.158 A 
ATOM      3  C   LIG     1      31.639   5.539  -7.858  0.00  0.00     0.050 A 
ATOM      4  C   LIG     1      32.964   5.315  -7.483  0.00  0.00     0.012 A 
ATOM      5  C   LIG     1      33.524   6.045  -6.435  0.00  0.00    -0.021 A 
ATOM      6  C   LIG     1      32.760   6.998  -5.761  0.00  0.00     0.057 A 
ENDROOT
BRANCH   5   7
ATOM      7  C   LIG     1      34.905   5.811  -6.043  0.00  0.00     0.015 C 
ATOM      8  C   LIG     1      35.747   6.747  -5.549  0.00  0.00     0.092 C 
BRANCH   8   9
ATOM      9  C   LIG     1      37.127   6.379  -5.178  0.00  0.00     0.330 C 
ATOM     10  O   LIG     1      37.926   7.075  -4.573  0.00  0.00    -0.246 OA
BRANCH   9  11
ATOM     11  O   LIG     1      37.376   5.124  -5.620  0.00  0.00    -0.478 OA
ATOM     12  H   LIG     1      37.203   4.450  -4.929  0.00  0.00     0.295 HD
ENDBRANCH   9  11
ENDBRANCH   8   9
ENDBRANCH   5   7
BRANCH   1  13
ATOM     13  O   LIG     1      30.698   8.155  -5.472  0.00  0.00    -0.491 OA
ATOM     14  C   LIG     1      31.408   9.254  -4.903  0.00  0.00     0.277 C 
ENDBRANCH   1  13
BRANCH   2  15
ATOM     15  O   LIG     1      29.582   6.701  -7.562  0.00  0.00    -0.503 OA
ATOM     16  H   LIG     1      29.503   6.552  -8.520  0.00  0.00     0.292 HD
ENDBRANCH   2  15
TORSDOF 5
ENDMDL
MODEL 2
REMARK VINA RESULT:      -6.2      1.357      5.499
REMARK  5 active torsions:
REMARK  status: ('A' for Active; 'I' for Inactive)
REMARK    1  A    between atoms: C_3  and  O_1 
REMARK    2  A    between atoms: C_4  and  O_14 
REMARK    3  A    between atoms: C_7  and  C_8 
REMARK    4  A    between atoms: C_9  and  C_10 
REMARK    5  A    between atoms: C_10  and  O_12 
ROOT
ATOM      1  C   LIG     1      35.004   6.130  -5.731  0.00  0.00     0.162 A 
ATOM      2  C   LIG     1      35.501   5.406  -6.815  0.00  0.00     0.158 A 
ATOM      3  C   LIG     1      34.655   5.056  -7.867  0.00  0.00     0.050 A 
ATOM      4  C   LIG     1      33.312   5.429  -7.835  0.00  0.00     0.012 A 
ATOM      5  C   LIG     1      32.815   6.152  -6.752  0.00  0.00    -0.021 A 
ATOM      6  C   LIG     1      33.660   6.503  -5.700  0.00  0.00     0.057 A 
ENDROOT
BRANCH   5   7
ATOM      7  C   LIG     1      31.414   6.542  -6.720  0.00  0.00     0.015 C 
ATOM      8  C   LIG     1      30.830   7.284  -5.752  0.00  0.00     0.092 C 
BRANCH   8   9
ATOM      9  C   LIG     1      29.396   7.622  -5.840  0.00  0.00     0.330 C 
ATOM     10  O   LIG     1      28.741   8.226  -5.007  0.00  0.00    -0.246 OA
BRANCH   9  11
ATOM     11  O   LIG     1      28.910   7.149  -7.012  0.00  0.00    -0.478 OA
ATOM     12  H   LIG     1      28.769   7.865  -7.667  0.00  0.00     0.295 HD
ENDBRANCH   9  11
ENDBRANCH   8   9
ENDBRANCH   5   7
BRANCH   1  13
ATOM     13  O   LIG     1      35.820   6.477  -4.697  0.00  0.00    -0.491 OA
ATOM     14  C   LIG     1      36.401   7.779  -4.739  0.00  0.00     0.277 C 
ENDBRANCH   1  13
BRANCH   2  15
ATOM     15  O   LIG     1      36.812   5.035  -6.857  0.00  0.00    -0.503 OA
ATOM     16  H   LIG     1      37.128   4.887  -5.948  0.00  0.00     0.292 HD
ENDBRANCH   2  15
TORSDOF 5
ENDMDL
MODEL 3
REMARK VINA RESULT:      -6.0      2.072      5.662
REMARK  5 active torsions:
REMARK  status: ('A' for Active; 'I' for Inactive)
REMARK    1  A    between atoms: C_3  and  O_1 
REMARK    2  A    between atoms: C_4  and  O_14 
REMARK    3  A    between atoms: C_7  and  C_8 
REMARK    4  A    between atoms: C_9  and  C_10 
REMARK    5  A    between atoms: C_10  and  O_12 
ROOT
ATOM      1  C   LIG     1      34.001   6.529  -6.976  0.00  0.00     0.162 A 
ATOM      2  C   LIG     1      33.537   5.541  -7.845  0.00  0.00     0.158 A 
ATOM      3  C   LIG     1      32.167   5.307  -7.967  0.00  0.00     0.050 A 
ATOM      4  C   LIG     1      31.261   6.060  -7.219  0.00  0.00     0.012 A 
ATOM      5  C   LIG     1      31.725   7.046  -6.350  0.00  0.00    -0.021 A 
ATOM      6  C   LIG     1      33.095   7.282  -6.228  0.00  0.00     0.057 A 
ENDROOT
BRANCH   5   7
ATOM      7  C   LIG     1      30.781   7.832  -5.571  0.00  0.00     0.015 C 
ATOM      8  C   LIG     1      29.435   7.759  -5.670  0.00  0.00     0.092 C 
BRANCH   8   9
ATOM      9  C   LIG     1      28.583   8.606  -4.812  0.00  0.00     0.330 C 
ATOM     10  O   LIG     1      27.549   8.269  -4.258  0.00  0.00    -0.246 OA
BRANCH   9  11
ATOM     11  O   LIG     1      29.136   9.839  -4.732  0.00  0.00    -0.478 OA
ATOM     12  H   LIG     1      29.789   9.901  -4.003  0.00  0.00     0.295 HD
ENDBRANCH   9  11
ENDBRANCH   8   9
ENDBRANCH   5   7
BRANCH   1  13
ATOM     13  O   LIG     1      35.336   6.766  -6.848  0.00  0.00    -0.491 OA
ATOM     14  C   LIG     1      35.974   6.259  -5.677  0.00  0.00     0.277 C 
ENDBRANCH   1  13
BRANCH   2  15
ATOM     15  O   LIG     1      34.411   4.799  -8.580  0.00  0.00    -0.503 OA
ATOM     16  H   LIG     1      34.325   3.864  -8.325  0.00  0.00     0.292 HD
ENDBRANCH   2  15
TORSDOF 5
ENDMDL
MODEL 4
REMARK VINA RESULT:      -5.9      1.497      1.954
REMARK  5 active torsions:
REMARK  status: ('A' for Active; 'I' for Inactive)
REMARK    1  A    between atoms: C_3  and  O_1 
REMARK    2  A    between atoms: C_4  and  O_14 
REMARK    3  A    between atoms: C_7  and  C_8 
REMARK    4  A    between atoms: C_9  and  C_10 
REMARK    5  A    between atoms: C_10  and  O_12 
ROOT
ATOM      1  C   LIG     1      32.788   5.868  -6.448  0.00  0.00     0.162 A 
ATOM      2  C   LIG     1      32.790   5.443  -7.777  0.00  0.00     0.158 A 
ATOM      3  C   LIG     1      33.996   5.150  -8.413  0.00  0.00     0.050 A 
ATOM      4  C   LIG     1      35.200   5.282  -7.721  0.00  0.00     0.012 A 
ATOM      5  C   LIG     1      35.198   5.707  -6.394  0.00  0.00    -0.021 A 
ATOM      6  C   LIG     1      33.993   6.001  -5.756  0.00  0.00     0.057 A 
ENDROOT
BRANCH   5   7
ATOM      7  C   LIG     1      36.453   5.844  -5.672  0.00  0.00     0.015 C 
ATOM      8  C   LIG     1      36.781   6.875  -4.861  0.00  0.00     0.092 C 
BRANCH   8   9
ATOM      9  C   LIG     1      38.089   6.891  -4.176  0.00  0.00     0.330 C 
ATOM     10  O   LIG     1      38.786   7.870  -3.969  0.00  0.00    -0.246 OA
BRANCH   9  11
ATOM     11  O   LIG     1      38.399   5.627  -3.803  0.00  0.00    -0.478 OA
ATOM     12  H   LIG     1      37.798   4.967  -4.208  0.00  0.00     0.295 HD
ENDBRANCH   9  11
ENDBRANCH   8   9
ENDBRANCH   5   7
BRANCH   1  13
ATOM     13  O   LIG     1      31.617   6.159  -5.816  0.00  0.00    -0.491 OA
ATOM     14  C   LIG     1      31.264   7.537  -5.707  0.00  0.00     0.277 C 
ENDBRANCH   1  13
BRANCH   2  15
ATOM     15  O   LIG     1      31.621   5.311  -8.463  0.00  0.00    -0.503 OA
ATOM     16  H   LIG     1      31.815   5.270  -9.415  0.00  0.00     0.292 HD
ENDBRANCH   2  15
TORSDOF 5
ENDMDL
MODEL 5
REMARK VINA RESULT:      -5.8     13.942     15.711
REMARK  5 active torsions:
REMARK  status: ('A' for Active; 'I' for Inactive)
REMARK    1  A    between atoms: C_3  and  O_1 
REMARK    2  A    between atoms: C_4  and  O_14 
REMARK    3  A    between atoms: C_7  and  C_8 
REMARK    4  A    between atoms: C_9  and  C_10 
REMARK    5  A    between atoms: C_10  and  O_12 
ROOT
ATOM      1  C   LIG     1      21.002  -1.763  -9.158  0.00  0.00     0.162 A 
ATOM      2  C   LIG     1      19.714  -2.015  -9.633  0.00  0.00     0.158 A 
ATOM      3  C   LIG     1      18.614  -1.824  -8.798  0.00  0.00     0.050 A 
ATOM      4  C   LIG     1      18.800  -1.381  -7.488  0.00  0.00     0.012 A 
ATOM      5  C   LIG     1      20.087  -1.130  -7.014  0.00  0.00    -0.021 A 
ATOM      6  C   LIG     1      21.188  -1.321  -7.848  0.00  0.00     0.057 A 
ENDROOT
BRANCH   5   7
ATOM      7  C   LIG     1      20.281  -0.668  -5.649  0.00  0.00     0.015 C 
ATOM      8  C   LIG     1      20.555  -1.458  -4.587  0.00  0.00     0.092 C 
BRANCH   8   9
ATOM      9  C   LIG     1      20.741  -0.863  -3.249  0.00  0.00     0.330 C 
ATOM     10  O   LIG     1      20.913  -1.469  -2.204  0.00  0.00    -0.246 OA
BRANCH   9  11
ATOM     11  O   LIG     1      20.692   0.485  -3.363  0.00  0.00    -0.478 OA
ATOM     12  H   LIG     1      19.801   0.839  -3.152  0.00  0.00     0.295 HD
ENDBRANCH   9  11
ENDBRANCH   8   9
ENDBRANCH   5   7
BRANCH   1  13
ATOM     13  O   LIG     1      22.085  -1.947  -9.965  0.00  0.00    -0.491 OA
ATOM     14  C   LIG     1      23.283  -1.261  -9.606  0.00  0.00     0.277 C 
ENDBRANCH   1  13
BRANCH   2  15
ATOM     15  O   LIG     1      19.520  -2.448 -10.910  0.00  0.00    -0.503 OA
ATOM     16  H   LIG     1      18.956  -3.241 -10.893  0.00  0.00     0.292 HD
ENDBRANCH   2  15
TORSDOF 5
ENDMDL
MODEL 6
REMARK VINA RESULT:      -5.7      2.881      5.153
REMARK  5 active torsions:
REMARK  status: ('A' for Active; 'I' for Inactive)
REMARK    1  A    between atoms: C_3  and  O_1 
REMARK    2  A    between atoms: C_4  and  O_14 
REMARK    3  A    between atoms: C_7  and  C_8 
REMARK    4  A    between atoms: C_9  and  C_10 
REMARK    5  A    between atoms: C_10  and  O_12 
ROOT
ATOM      1  C   LIG     1      31.900   5.768  -7.824  0.00  0.00     0.162 A 
ATOM      2  C   LIG     1      33.247   6.003  -8.101  0.00  0.00     0.158 A 
ATOM      3  C   LIG     1      34.049   6.651  -7.162  0.00  0.00     0.050 A 
ATOM      4  C   LIG     1      33.504   7.065  -5.946  0.00  0.00     0.012 A 
ATOM      5  C   LIG     1      32.158   6.829  -5.669  0.00  0.00    -0.021 A 
ATOM      6  C   LIG     1      31.355   6.181  -6.608  0.00  0.00     0.057 A 
ENDROOT
BRANCH   5   7
ATOM      7  C   LIG     1      31.591   7.259  -4.401  0.00  0.00     0.015 C 
ATOM      8  C   LIG     1      30.300   7.606  -4.199  0.00  0.00     0.092 C 
BRANCH   8   9
ATOM      9  C   LIG     1      29.844   8.016  -2.857  0.00  0.00     0.330 C 
ATOM     10  O   LIG     1      30.545   8.432  -1.949  0.00  0.00    -0.246 OA
BRANCH   9  11
ATOM     11  O   LIG     1      28.501   7.860  -2.787  0.00  0.00    -0.478 OA
ATOM     12  H   LIG     1      28.124   7.545  -3.636  0.00  0.00     0.295 HD
ENDBRANCH   9  11
ENDBRANCH   8   9
ENDBRANCH   5   7
BRANCH   1  13
ATOM     13  O   LIG     1      31.107   5.137  -8.734  0.00  0.00    -0.491 OA
ATOM     14  C   LIG     1      29.844   5.737  -9.019  0.00  0.00     0.277 C 
ENDBRANCH   1  13
BRANCH   2  15
ATOM     15  O   LIG     1      33.790   5.606  -9.285  0.00  0.00    -0.503 OA
ATOM     16  H   LIG     1      34.233   6.366  -9.702  0.00  0.00     0.292 HD
ENDBRANCH   2  15
TORSDOF 5
ENDMDL
MODEL 7
REMARK VINA RESULT:      -5.6     20.139     20.696
REMARK  5 active torsions:
REMARK  status: ('A' for Active; 'I' for Inactive)
REMARK    1  A    between atoms: C_3  and  O_1 
REMARK    2  A    between atoms: C_4  and  O_14 
REMARK    3  A    between atoms: C_7  and  C_8 
REMARK    4  A    between atoms: C_9  and  C_10 
REMARK    5  A    between atoms: C_10  and  O_12 
ROOT
ATOM      1  C   LIG     1      35.085  -2.795  11.802  0.00  0.00     0.162 A 
ATOM      2  C   LIG     1      35.133  -3.802  10.838  0.00  0.00     0.158 A 
ATOM      3  C   LIG     1      36.364  -4.294  10.405  0.00  0.00     0.050 A 
ATOM      4  C   LIG     1      37.547  -3.779  10.936  0.00  0.00     0.012 A 
ATOM      5  C   LIG     1      37.498  -2.772  11.899  0.00  0.00    -0.021 A 
ATOM      6  C   LIG     1      36.268  -2.279  12.332  0.00  0.00     0.057 A 
ENDROOT
BRANCH   5   7
ATOM      7  C   LIG     1      38.731  -2.236  12.452  0.00  0.00     0.015 C 
ATOM      8  C   LIG     1      39.082  -0.930  12.462  0.00  0.00     0.092 C 
BRANCH   8   9
ATOM      9  C   LIG     1      40.362  -0.511  13.066  0.00  0.00     0.330 C 
ATOM     10  O   LIG     1      40.631   0.598  13.498  0.00  0.00    -0.246 OA
BRANCH   9  11
ATOM     11  O   LIG     1      41.208  -1.568  13.068  0.00  0.00    -0.478 OA
ATOM     12  H   LIG     1      41.828  -1.543  12.308  0.00  0.00     0.295 HD
ENDBRANCH   9  11
ENDBRANCH   8   9
ENDBRANCH   5   7
BRANCH   1  13
ATOM     13  O   LIG     1      33.888  -2.305  12.231  0.00  0.00    -0.491 OA
ATOM     14  C   LIG     1      33.756  -2.053  13.629  0.00  0.00     0.277 C 
ENDBRANCH   1  13
BRANCH   2  15
ATOM     15  O   LIG     1      33.985  -4.313  10.312  0.00  0.00    -0.503 OA
ATOM     16  H   LIG     1      33.770  -3.832   9.493  0.00  0.00     0.292 HD
ENDBRANCH   2  15
TORSDOF 5
ENDMDL
MODEL 8
REMARK VINA RESULT:      -5.6      1.744      2.564
REMARK  5 active torsions:
REMARK  status: ('A' for Active; 'I' for Inactive)
REMARK    1  A    between atoms: C_3  and  O_1 
REMARK    2  A    between atoms: C_4  and  O_14 
REMARK    3  A    between atoms: C_7  and  C_8 
REMARK    4  A    between atoms: C_9  and  C_10 
REMARK    5  A    between atoms: C_10  and  O_12 
ROOT
ATOM      1  C   LIG     1      31.208   8.393  -4.746  0.00  0.00     0.162 A 
ATOM      2  C   LIG     1      29.939   8.231  -5.303  0.00  0.00     0.158 A 
ATOM      3  C   LIG     1      29.750   7.339  -6.358  0.00  0.00     0.050 A 
ATOM      4  C   LIG     1      30.829   6.609  -6.857  0.00  0.00     0.012 A 
ATOM      5  C   LIG     1      32.097   6.772  -6.301  0.00  0.00    -0.021 A 
ATOM      6  C   LIG     1      32.287   7.663  -5.246  0.00  0.00     0.057 A 
ENDROOT
BRANCH   5   7
ATOM      7  C   LIG     1      33.222   6.010  -6.821  0.00  0.00     0.015 C 
ATOM      8  C   LIG     1      34.501   6.117  -6.397  0.00  0.00     0.092 C 
BRANCH   8   9
ATOM      9  C   LIG     1      35.554   5.277  -7.001  0.00  0.00     0.330 C 
ATOM     10  O   LIG     1      35.526   4.764  -8.108  0.00  0.00    -0.246 OA
BRANCH   9  11
ATOM     11  O   LIG     1      36.576   5.163  -6.122  0.00  0.00    -0.478 OA
ATOM     12  H   LIG     1      37.338   4.678  -6.505  0.00  0.00     0.295 HD
ENDBRANCH   9  11
ENDBRANCH   8   9
ENDBRANCH   5   7
BRANCH   1  13
ATOM     13  O   LIG     1      31.406   9.263  -3.716  0.00  0.00    -0.491 OA
ATOM     14  C   LIG     1      31.415   8.714  -2.399  0.00  0.00     0.277 C 
ENDBRANCH   1  13
BRANCH   2  15
ATOM     15  O   LIG     1      28.878   8.938  -4.825  0.00  0.00    -0.503 OA
ATOM     16  H   LIG     1      28.754   8.726  -3.883  0.00  0.00     0.292 HD
ENDBRANCH   2  15
TORSDOF 5
ENDMDL
MODEL 9
REMARK VINA RESULT:      -5.6      2.978      4.462
REMARK  5 active torsions:
REMARK  status: ('A' for Active; 'I' for Inactive)
REMARK    1  A    between atoms: C_3  and  O_1 
REMARK    2  A    between atoms: C_4  and  O_14 
REMARK    3  A    between atoms: C_7  and  C_8 
REMARK    4  A    between atoms: C_9  and  C_10 
REMARK    5  A    between atoms: C_10  and  O_12 
ROOT
ATOM      1  C   LIG     1      35.027   6.902  -6.371  0.00  0.00     0.162 A 
ATOM      2  C   LIG     1      34.916   8.238  -5.981  0.00  0.00     0.158 A 
ATOM      3  C   LIG     1      35.840   8.782  -5.089  0.00  0.00     0.050 A 
ATOM      4  C   LIG     1      36.874   7.991  -4.587  0.00  0.00     0.012 A 
ATOM      5  C   LIG     1      36.984   6.658  -4.977  0.00  0.00    -0.021 A 
ATOM      6  C   LIG     1      36.061   6.112  -5.869  0.00  0.00     0.057 A 
ENDROOT
BRANCH   5   7
ATOM      7  C   LIG     1      38.063   5.834  -4.454  0.00  0.00     0.015 C 
ATOM      8  C   LIG     1      38.511   5.850  -3.178  0.00  0.00     0.092 C 
BRANCH   8   9
ATOM      9  C   LIG     1      39.611   4.954  -2.769  0.00  0.00     0.330 C 
ATOM     10  O   LIG     1      39.690   4.335  -1.720  0.00  0.00    -0.246 OA
BRANCH   9  11
ATOM     11  O   LIG     1      40.537   4.924  -3.756  0.00  0.00    -0.478 OA
ATOM     12  H   LIG     1      40.126   4.973  -4.646  0.00  0.00     0.295 HD
ENDBRANCH   9  11
ENDBRANCH   8   9
ENDBRANCH   5   7
BRANCH   1  13
ATOM     13  O   LIG     1      34.130   6.359  -7.241  0.00  0.00    -0.491 OA
ATOM     14  C   LIG     1      34.569   5.240  -8.008  0.00  0.00     0.277 C 
ENDBRANCH   1  13
BRANCH   2  15
ATOM     15  O   LIG     1      33.910   9.019  -6.464  0.00  0.00    -0.503 OA
ATOM     16  H   LIG     1      33.064   8.708  -6.097  0.00  0.00     0.292 HD
ENDBRANCH   2  15
TORSDOF 5
ENDMDL
