MODEL 1
REMARK VINA RESULT:      -8.0      0.000      0.000
REMARK  5 active torsions:
REMARK  status: ('A' for Active; 'I' for Inactive)
REMARK    1  A    between atoms: O_2  and  C_13 
REMARK    2  A    between atoms: O_4  and  C_16 
REMARK    3  A    between atoms: O_5  and  C_19 
REMARK    4  A    between atoms: O_6  and  C_21 
REMARK    5  A    between atoms: C_9  and  C_10 
ROOT
HETATM    1  O   UNK     0     -11.727  40.659  11.534  0.00  0.00    -0.309 OA
HETATM    2  O   UNK     0      -9.112  43.620  10.538  0.00  0.00    -0.287 OA
HETATM    3  C   UNK     0     -11.082  42.996  11.683  0.00  0.00     0.081 A 
HETATM    4  C   UNK     0     -11.935  41.937  11.987  0.00  0.00     0.095 A 
HETATM    5  C   UNK     0     -10.622  40.414  10.733  0.00  0.00     0.090 A 
HETATM    6  C   UNK     0      -9.903  42.739  10.841  0.00  0.00     0.190 A 
HETATM    7  C   UNK     0      -9.725  41.347  10.377  0.00  0.00     0.094 A 
HETATM    8  C   UNK     0     -11.344  44.277  12.173  0.00  0.00     0.085 A 
HETATM    9  C   UNK     0     -13.059  42.153  12.784  0.00  0.00     0.075 A 
HETATM   10  C   UNK     0     -13.324  43.432  13.276  0.00  0.00     0.071 A 
HETATM   11  C   UNK     0     -12.469  44.491  12.970  0.00  0.00     0.074 A 
ENDROOT
BRANCH   5  12
HETATM   12  C   UNK     0     -10.489  39.007  10.307  0.00  0.00     0.001 A 
HETATM   13  C   UNK     0     -10.303  38.696   8.958  0.00  0.00     0.053 A 
HETATM   14  C   UNK     0     -10.177  37.367   8.555  0.00  0.00     0.099 A 
HETATM   15  C   UNK     0     -10.238  36.343   9.501  0.00  0.00     0.098 A 
HETATM   16  C   UNK     0     -10.425  36.649  10.848  0.00  0.00     0.040 A 
HETATM   17  C   UNK     0     -10.550  37.979  11.251  0.00  0.00     0.017 A 
BRANCH  14  18
HETATM   18  O   UNK     0      -9.997  37.080   7.235  0.00  0.00    -0.358 OA
HETATM   19  H   UNK     0      -9.601  37.857   6.805  0.00  0.00     0.217 HD
ENDBRANCH  14  18
BRANCH  15  20
HETATM   20  O   UNK     0     -10.116  35.041   9.120  0.00  0.00    -0.358 OA
HETATM   21  H   UNK     0     -10.420  34.469   9.845  0.00  0.00     0.217 HD
ENDBRANCH  15  20
ENDBRANCH   5  12
BRANCH   8  22
HETATM   22  O   UNK     0     -10.541  45.344  11.904  0.00  0.00    -0.360 OA
HETATM   23  H   UNK     0     -10.937  45.904  11.218  0.00  0.00     0.217 HD
ENDBRANCH   8  22
BRANCH  10  24
HETATM   24  O   UNK     0     -14.420  43.647  14.055  0.00  0.00    -0.361 OA
HETATM   25  H   UNK     0     -14.178  43.508  14.986  0.00  0.00     0.217 HD
ENDBRANCH  10  24
TORSDOF 5
ENDMDL
MODEL 2
REMARK VINA RESULT:      -7.8     33.980     36.397
REMARK  5 active torsions:
REMARK  status: ('A' for Active; 'I' for Inactive)
REMARK    1  A    between atoms: O_2  and  C_13 
REMARK    2  A    between atoms: O_4  and  C_16 
REMARK    3  A    between atoms: O_5  and  C_19 
REMARK    4  A    between atoms: O_6  and  C_21 
REMARK    5  A    between atoms: C_9  and  C_10 
ROOT
HETATM    1  O   UNK     0      -1.990  72.432  23.027  0.00  0.00    -0.309 OA
HETATM    2  O   UNK     0       0.817  75.158  24.163  0.00  0.00    -0.287 OA
HETATM    3  C   UNK     0       0.268  72.889  23.799  0.00  0.00     0.081 A 
HETATM    4  C   UNK     0      -0.738  72.011  23.399  0.00  0.00     0.095 A 
HETATM    5  C   UNK     0      -2.267  73.790  23.059  0.00  0.00     0.090 A 
HETATM    6  C   UNK     0      -0.019  74.332  23.825  0.00  0.00     0.190 A 
HETATM    7  C   UNK     0      -1.382  74.734  23.419  0.00  0.00     0.094 A 
HETATM    8  C   UNK     0       1.524  72.403  24.167  0.00  0.00     0.085 A 
HETATM    9  C   UNK     0      -0.493  70.639  23.364  0.00  0.00     0.075 A 
HETATM   10  C   UNK     0       0.762  70.149  23.730  0.00  0.00     0.071 A 
HETATM   11  C   UNK     0       1.767  71.029  24.131  0.00  0.00     0.074 A 
ENDROOT
BRANCH   5  12
HETATM   12  C   UNK     0      -3.638  74.134  22.635  0.00  0.00     0.001 A 
HETATM   13  C   UNK     0      -4.662  74.233  23.580  0.00  0.00     0.053 A 
HETATM   14  C   UNK     0      -5.957  74.558  23.179  0.00  0.00     0.099 A 
HETATM   15  C   UNK     0      -6.234  74.784  21.831  0.00  0.00     0.098 A 
HETATM   16  C   UNK     0      -5.216  74.685  20.884  0.00  0.00     0.040 A 
HETATM   17  C   UNK     0      -3.919  74.360  21.285  0.00  0.00     0.017 A 
BRANCH  14  18
HETATM   18  O   UNK     0      -6.945  74.650  24.113  0.00  0.00    -0.358 OA
HETATM   19  H   UNK     0      -6.571  74.415  24.979  0.00  0.00     0.217 HD
ENDBRANCH  14  18
BRANCH  15  20
HETATM   20  O   UNK     0      -7.496  75.103  21.427  0.00  0.00    -0.358 OA
HETATM   21  H   UNK     0      -7.791  74.451  20.769  0.00  0.00     0.217 HD
ENDBRANCH  15  20
ENDBRANCH   5  12
BRANCH   8  22
HETATM   22  O   UNK     0       2.539  73.220  24.564  0.00  0.00    -0.360 OA
HETATM   23  H   UNK     0       3.295  73.140  23.963  0.00  0.00     0.217 HD
ENDBRANCH   8  22
BRANCH  10  24
HETATM   24  O   UNK     0       1.005  68.810  23.696  0.00  0.00    -0.361 OA
HETATM   25  H   UNK     0       1.811  68.622  24.207  0.00  0.00     0.217 HD
ENDBRANCH  10  24
TORSDOF 5
ENDMDL
MODEL 3
REMARK VINA RESULT:      -7.8     15.697     19.005
REMARK  5 active torsions:
REMARK  status: ('A' for Active; 'I' for Inactive)
REMARK    1  A    between atoms: O_2  and  C_13 
REMARK    2  A    between atoms: O_4  and  C_16 
REMARK    3  A    between atoms: O_5  and  C_19 
REMARK    4  A    between atoms: O_6  and  C_21 
REMARK    5  A    between atoms: C_9  and  C_10 
ROOT
HETATM    1  O   UNK     0      -7.409  53.949  24.472  0.00  0.00    -0.309 OA
HETATM    2  O   UNK     0      -3.477  52.911  24.721  0.00  0.00    -0.287 OA
HETATM    3  C   UNK     0      -5.121  54.586  24.987  0.00  0.00     0.081 A 
HETATM    4  C   UNK     0      -6.481  54.874  24.880  0.00  0.00     0.095 A 
HETATM    5  C   UNK     0      -6.971  52.675  24.143  0.00  0.00     0.090 A 
HETATM    6  C   UNK     0      -4.654  53.233  24.648  0.00  0.00     0.190 A 
HETATM    7  C   UNK     0      -5.691  52.275  24.211  0.00  0.00     0.094 A 
HETATM    8  C   UNK     0      -4.223  55.568  25.409  0.00  0.00     0.085 A 
HETATM    9  C   UNK     0      -6.951  56.148  25.197  0.00  0.00     0.075 A 
HETATM   10  C   UNK     0      -6.056  57.132  25.620  0.00  0.00     0.071 A 
HETATM   11  C   UNK     0      -4.695  56.842  25.725  0.00  0.00     0.074 A 
ENDROOT
BRANCH   5  12
HETATM   12  C   UNK     0      -8.049  51.760  23.723  0.00  0.00     0.001 A 
HETATM   13  C   UNK     0      -7.818  50.383  23.659  0.00  0.00     0.053 A 
HETATM   14  C   UNK     0      -8.837  49.519  23.262  0.00  0.00     0.099 A 
HETATM   15  C   UNK     0     -10.092  50.027  22.926  0.00  0.00     0.098 A 
HETATM   16  C   UNK     0     -10.327  51.400  22.987  0.00  0.00     0.040 A 
HETATM   17  C   UNK     0      -9.307  52.265  23.385  0.00  0.00     0.017 A 
BRANCH  14  18
HETATM   18  O   UNK     0      -8.596  48.179  23.204  0.00  0.00    -0.358 OA
HETATM   19  H   UNK     0      -8.487  47.928  22.271  0.00  0.00     0.217 HD
ENDBRANCH  14  18
BRANCH  15  20
HETATM   20  O   UNK     0     -11.096  49.192  22.537  0.00  0.00    -0.358 OA
HETATM   21  H   UNK     0     -11.883  49.370  23.079  0.00  0.00     0.217 HD
ENDBRANCH  15  20
ENDBRANCH   5  12
BRANCH   8  22
HETATM   22  O   UNK     0      -2.886  55.336  25.529  0.00  0.00    -0.360 OA
HETATM   23  H   UNK     0      -2.528  55.802  26.301  0.00  0.00     0.217 HD
ENDBRANCH   8  22
BRANCH  10  24
HETATM   24  O   UNK     0      -6.511  58.377  25.930  0.00  0.00    -0.361 OA
HETATM   25  H   UNK     0      -7.483  58.372  25.912  0.00  0.00     0.217 HD
ENDBRANCH  10  24
TORSDOF 5
ENDMDL
MODEL 4
REMARK VINA RESULT:      -7.6     15.952     19.102
REMARK  5 active torsions:
REMARK  status: ('A' for Active; 'I' for Inactive)
REMARK    1  A    between atoms: O_2  and  C_13 
REMARK    2  A    between atoms: O_4  and  C_16 
REMARK    3  A    between atoms: O_5  and  C_19 
REMARK    4  A    between atoms: O_6  and  C_21 
REMARK    5  A    between atoms: C_9  and  C_10 
ROOT
HETATM    1  O   UNK     0      -7.301  53.058  24.146  0.00  0.00    -0.309 OA
HETATM    2  O   UNK     0      -7.183  49.064  23.352  0.00  0.00    -0.287 OA
HETATM    3  C   UNK     0      -8.499  51.003  23.652  0.00  0.00     0.081 A 
HETATM    4  C   UNK     0      -8.467  52.369  23.927  0.00  0.00     0.095 A 
HETATM    5  C   UNK     0      -6.103  52.361  24.098  0.00  0.00     0.090 A 
HETATM    6  C   UNK     0      -7.229  50.262  23.591  0.00  0.00     0.190 A 
HETATM    7  C   UNK     0      -6.002  51.048  23.836  0.00  0.00     0.094 A 
HETATM    8  C   UNK     0      -9.716  50.354  23.437  0.00  0.00     0.085 A 
HETATM    9  C   UNK     0      -9.655  53.095  23.989  0.00  0.00     0.075 A 
HETATM   10  C   UNK     0     -10.874  52.451  23.775  0.00  0.00     0.071 A 
HETATM   11  C   UNK     0     -10.904  51.083  23.500  0.00  0.00     0.074 A 
ENDROOT
BRANCH   5  12
HETATM   12  C   UNK     0      -4.912  53.198  24.342  0.00  0.00     0.001 A 
HETATM   13  C   UNK     0      -4.527  53.509  25.648  0.00  0.00     0.053 A 
HETATM   14  C   UNK     0      -3.402  54.300  25.878  0.00  0.00     0.099 A 
HETATM   15  C   UNK     0      -2.656  54.781  24.802  0.00  0.00     0.098 A 
HETATM   16  C   UNK     0      -3.036  54.473  23.496  0.00  0.00     0.040 A 
HETATM   17  C   UNK     0      -4.163  53.682  23.266  0.00  0.00     0.017 A 
BRANCH  14  18
HETATM   18  O   UNK     0      -3.039  54.596  27.158  0.00  0.00    -0.358 OA
HETATM   19  H   UNK     0      -2.830  53.764  27.616  0.00  0.00     0.217 HD
ENDBRANCH  14  18
BRANCH  15  20
HETATM   20  O   UNK     0      -1.554  55.554  25.014  0.00  0.00    -0.358 OA
HETATM   21  H   UNK     0      -1.135  55.285  25.849  0.00  0.00     0.217 HD
ENDBRANCH  15  20
ENDBRANCH   5  12
BRANCH   8  22
HETATM   22  O   UNK     0      -9.800  49.022  23.165  0.00  0.00    -0.360 OA
HETATM   23  H   UNK     0     -10.320  48.568  23.845  0.00  0.00     0.217 HD
ENDBRANCH   8  22
BRANCH  10  24
HETATM   24  O   UNK     0     -12.037  53.157  23.834  0.00  0.00    -0.361 OA
HETATM   25  H   UNK     0     -12.235  53.361  24.764  0.00  0.00     0.217 HD
ENDBRANCH  10  24
TORSDOF 5
ENDMDL
MODEL 5
REMARK VINA RESULT:      -7.4     15.367     17.557
REMARK  5 active torsions:
REMARK  status: ('A' for Active; 'I' for Inactive)
REMARK    1  A    between atoms: O_2  and  C_13 
REMARK    2  A    between atoms: O_4  and  C_16 
REMARK    3  A    between atoms: O_5  and  C_19 
REMARK    4  A    between atoms: O_6  and  C_21 
REMARK    5  A    between atoms: C_9  and  C_10 
ROOT
HETATM    1  O   UNK     0     -18.566  33.017  22.966  0.00  0.00    -0.309 OA
HETATM    2  O   UNK     0     -18.681  30.626  19.669  0.00  0.00    -0.287 OA
HETATM    3  C   UNK     0     -17.489  32.222  20.939  0.00  0.00     0.081 A 
HETATM    4  C   UNK     0     -17.514  33.014  22.085  0.00  0.00     0.095 A 
HETATM    5  C   UNK     0     -19.655  32.201  22.697  0.00  0.00     0.090 A 
HETATM    6  C   UNK     0     -18.638  31.348  20.655  0.00  0.00     0.190 A 
HETATM    7  C   UNK     0     -19.746  31.390  21.631  0.00  0.00     0.094 A 
HETATM    8  C   UNK     0     -16.389  32.260  20.079  0.00  0.00     0.085 A 
HETATM    9  C   UNK     0     -16.437  33.850  22.379  0.00  0.00     0.075 A 
HETATM   10  C   UNK     0     -15.337  33.890  21.522  0.00  0.00     0.071 A 
HETATM   11  C   UNK     0     -15.313  33.098  20.375  0.00  0.00     0.074 A 
ENDROOT
BRANCH   5  12
HETATM   12  C   UNK     0     -20.726  32.277  23.709  0.00  0.00     0.001 A 
HETATM   13  C   UNK     0     -21.118  31.131  24.405  0.00  0.00     0.053 A 
HETATM   14  C   UNK     0     -22.130  31.203  25.361  0.00  0.00     0.099 A 
HETATM   15  C   UNK     0     -22.756  32.422  25.625  0.00  0.00     0.098 A 
HETATM   16  C   UNK     0     -22.369  33.568  24.932  0.00  0.00     0.040 A 
HETATM   17  C   UNK     0     -21.355  33.496  23.975  0.00  0.00     0.017 A 
BRANCH  14  18
HETATM   18  O   UNK     0     -22.502  30.076  26.031  0.00  0.00    -0.358 OA
HETATM   19  H   UNK     0     -22.305  30.203  26.975  0.00  0.00     0.217 HD
ENDBRANCH  14  18
BRANCH  15  20
HETATM   20  O   UNK     0     -23.745  32.505  26.557  0.00  0.00    -0.358 OA
HETATM   21  H   UNK     0     -23.460  32.043  27.364  0.00  0.00     0.217 HD
ENDBRANCH  15  20
ENDBRANCH   5  12
BRANCH   8  22
HETATM   22  O   UNK     0     -16.317  31.506  18.947  0.00  0.00    -0.360 OA
HETATM   23  H   UNK     0     -15.544  30.921  18.977  0.00  0.00     0.217 HD
ENDBRANCH   8  22
BRANCH  10  24
HETATM   24  O   UNK     0     -14.283  34.705  21.807  0.00  0.00    -0.361 OA
HETATM   25  H   UNK     0     -14.282  35.449  21.181  0.00  0.00     0.217 HD
ENDBRANCH  10  24
TORSDOF 5
ENDMDL
MODEL 6
REMARK VINA RESULT:      -7.3     21.180     23.216
REMARK  5 active torsions:
REMARK  status: ('A' for Active; 'I' for Inactive)
REMARK    1  A    between atoms: O_2  and  C_13 
REMARK    2  A    between atoms: O_4  and  C_16 
REMARK    3  A    between atoms: O_5  and  C_19 
REMARK    4  A    between atoms: O_6  and  C_21 
REMARK    5  A    between atoms: C_9  and  C_10 
ROOT
HETATM    1  O   UNK     0      11.812  42.847  11.490  0.00  0.00    -0.309 OA
HETATM    2  O   UNK     0       9.365  39.833  10.256  0.00  0.00    -0.287 OA
HETATM    3  C   UNK     0      11.179  40.505  11.612  0.00  0.00     0.081 A 
HETATM    4  C   UNK     0      11.979  41.581  11.991  0.00  0.00     0.095 A 
HETATM    5  C   UNK     0      10.807  43.061  10.559  0.00  0.00     0.090 A 
HETATM    6  C   UNK     0      10.106  40.730  10.631  0.00  0.00     0.190 A 
HETATM    7  C   UNK     0       9.968  42.109  10.119  0.00  0.00     0.094 A 
HETATM    8  C   UNK     0      11.395  39.237  12.156  0.00  0.00     0.085 A 
HETATM    9  C   UNK     0      13.003  41.395  12.920  0.00  0.00     0.075 A 
HETATM   10  C   UNK     0      13.222  40.130  13.467  0.00  0.00     0.071 A 
HETATM   11  C   UNK     0      12.420  39.054  13.085  0.00  0.00     0.074 A 
ENDROOT
BRANCH   5  12
HETATM   12  C   UNK     0      10.711  44.457  10.090  0.00  0.00     0.001 A 
HETATM   13  C   UNK     0      10.429  44.730   8.749  0.00  0.00     0.053 A 
HETATM   14  C   UNK     0      10.339  46.049   8.306  0.00  0.00     0.099 A 
HETATM   15  C   UNK     0      10.530  47.101   9.202  0.00  0.00     0.098 A 
HETATM   16  C   UNK     0      10.812  46.833  10.541  0.00  0.00     0.040 A 
HETATM   17  C   UNK     0      10.903  45.513  10.984  0.00  0.00     0.017 A 
BRANCH  14  18
HETATM   18  O   UNK     0      10.064  46.300   6.995  0.00  0.00    -0.358 OA
HETATM   19  H   UNK     0       9.113  46.489   6.913  0.00  0.00     0.217 HD
ENDBRANCH  14  18
BRANCH  15  20
HETATM   20  O   UNK     0      10.443  48.394   8.782  0.00  0.00    -0.358 OA
HETATM   21  H   UNK     0       9.512  48.674   8.810  0.00  0.00     0.217 HD
ENDBRANCH  15  20
ENDBRANCH   5  12
BRANCH   8  22
HETATM   22  O   UNK     0      10.640  38.155  11.818  0.00  0.00    -0.360 OA
HETATM   23  H   UNK     0      10.611  38.048  10.855  0.00  0.00     0.217 HD
ENDBRANCH   8  22
BRANCH  10  24
HETATM   24  O   UNK     0      14.220  39.945  14.374  0.00  0.00    -0.361 OA
HETATM   25  H   UNK     0      14.510  40.812  14.706  0.00  0.00     0.217 HD
ENDBRANCH  10  24
TORSDOF 5
ENDMDL
MODEL 7
REMARK VINA RESULT:      -7.2     11.374     12.333
REMARK  5 active torsions:
REMARK  status: ('A' for Active; 'I' for Inactive)
REMARK    1  A    between atoms: O_2  and  C_13 
REMARK    2  A    between atoms: O_4  and  C_16 
REMARK    3  A    between atoms: O_5  and  C_19 
REMARK    4  A    between atoms: O_6  and  C_21 
REMARK    5  A    between atoms: C_9  and  C_10 
ROOT
HETATM    1  O   UNK     0     -17.251  47.778  16.688  0.00  0.00    -0.309 OA
HETATM    2  O   UNK     0     -17.262  51.798  16.025  0.00  0.00    -0.287 OA
HETATM    3  C   UNK     0     -18.039  49.664  15.375  0.00  0.00     0.081 A 
HETATM    4  C   UNK     0     -17.992  48.300  15.658  0.00  0.00     0.095 A 
HETATM    5  C   UNK     0     -16.512  48.648  17.477  0.00  0.00     0.090 A 
HETATM    6  C   UNK     0     -17.264  50.590  16.215  0.00  0.00     0.190 A 
HETATM    7  C   UNK     0     -16.481  49.979  17.309  0.00  0.00     0.094 A 
HETATM    8  C   UNK     0     -18.811  50.138  14.312  0.00  0.00     0.085 A 
HETATM    9  C   UNK     0     -18.718  47.400  14.879  0.00  0.00     0.075 A 
HETATM   10  C   UNK     0     -19.491  47.870  13.816  0.00  0.00     0.071 A 
HETATM   11  C   UNK     0     -19.537  49.235  13.534  0.00  0.00     0.074 A 
ENDROOT
BRANCH   5  12
HETATM   12  C   UNK     0     -15.758  47.984  18.558  0.00  0.00     0.001 A 
HETATM   13  C   UNK     0     -15.920  46.616  18.790  0.00  0.00     0.053 A 
HETATM   14  C   UNK     0     -15.208  45.989  19.812  0.00  0.00     0.099 A 
HETATM   15  C   UNK     0     -14.330  46.727  20.605  0.00  0.00     0.098 A 
HETATM   16  C   UNK     0     -14.166  48.093  20.377  0.00  0.00     0.040 A 
HETATM   17  C   UNK     0     -14.878  48.720  19.355  0.00  0.00     0.017 A 
BRANCH  14  18
HETATM   18  O   UNK     0     -15.378  44.653  20.027  0.00  0.00    -0.358 OA
HETATM   19  H   UNK     0     -14.897  44.169  19.334  0.00  0.00     0.217 HD
ENDBRANCH  14  18
BRANCH  15  20
HETATM   20  O   UNK     0     -13.628  46.126  21.605  0.00  0.00    -0.358 OA
HETATM   21  H   UNK     0     -12.723  45.950  21.296  0.00  0.00     0.217 HD
ENDBRANCH  15  20
ENDBRANCH   5  12
BRANCH   8  22
HETATM   22  O   UNK     0     -18.891  51.460  13.996  0.00  0.00    -0.360 OA
HETATM   23  H   UNK     0     -19.318  51.578  13.134  0.00  0.00     0.217 HD
ENDBRANCH   8  22
BRANCH  10  24
HETATM   24  O   UNK     0     -20.203  46.994  13.053  0.00  0.00    -0.361 OA
HETATM   25  H   UNK     0     -21.151  47.133  13.215  0.00  0.00     0.217 HD
ENDBRANCH  10  24
TORSDOF 5
ENDMDL
MODEL 8
REMARK VINA RESULT:      -7.1     12.097     13.084
REMARK  5 active torsions:
REMARK  status: ('A' for Active; 'I' for Inactive)
REMARK    1  A    between atoms: O_2  and  C_13 
REMARK    2  A    between atoms: O_4  and  C_16 
REMARK    3  A    between atoms: O_5  and  C_19 
REMARK    4  A    between atoms: O_6  and  C_21 
REMARK    5  A    between atoms: C_9  and  C_10 
ROOT
HETATM    1  O   UNK     0     -15.946  48.211  18.383  0.00  0.00    -0.309 OA
HETATM    2  O   UNK     0     -18.285  45.080  19.534  0.00  0.00    -0.287 OA
HETATM    3  C   UNK     0     -16.278  46.290  19.832  0.00  0.00     0.081 A 
HETATM    4  C   UNK     0     -15.528  47.378  19.390  0.00  0.00     0.095 A 
HETATM    5  C   UNK     0     -17.164  47.951  17.774  0.00  0.00     0.090 A 
HETATM    6  C   UNK     0     -17.575  46.016  19.195  0.00  0.00     0.190 A 
HETATM    7  C   UNK     0     -17.979  46.939  18.114  0.00  0.00     0.094 A 
HETATM    8  C   UNK     0     -15.801  45.476  20.863  0.00  0.00     0.085 A 
HETATM    9  C   UNK     0     -14.296  47.661  19.978  0.00  0.00     0.075 A 
HETATM   10  C   UNK     0     -13.817  46.851  21.008  0.00  0.00     0.071 A 
HETATM   11  C   UNK     0     -14.568  45.761  21.449  0.00  0.00     0.074 A 
ENDROOT
BRANCH   5  12
HETATM   12  C   UNK     0     -17.520  48.909  16.709  0.00  0.00     0.001 A 
HETATM   13  C   UNK     0     -18.724  48.772  16.014  0.00  0.00     0.053 A 
HETATM   14  C   UNK     0     -19.060  49.678  15.008  0.00  0.00     0.099 A 
HETATM   15  C   UNK     0     -18.192  50.724  14.693  0.00  0.00     0.098 A 
HETATM   16  C   UNK     0     -16.989  50.864  15.384  0.00  0.00     0.040 A 
HETATM   17  C   UNK     0     -16.653  49.958  16.390  0.00  0.00     0.017 A 
BRANCH  14  18
HETATM   18  O   UNK     0     -20.238  49.531  14.339  0.00  0.00    -0.358 OA
HETATM   19  H   UNK     0     -20.352  48.589  14.124  0.00  0.00     0.217 HD
ENDBRANCH  14  18
BRANCH  15  20
HETATM   20  O   UNK     0     -18.509  51.615  13.713  0.00  0.00    -0.358 OA
HETATM   21  H   UNK     0     -18.741  51.127  12.905  0.00  0.00     0.217 HD
ENDBRANCH  15  20
ENDBRANCH   5  12
BRANCH   8  22
HETATM   22  O   UNK     0     -16.496  44.402  21.330  0.00  0.00    -0.360 OA
HETATM   23  H   UNK     0     -15.888  43.708  21.630  0.00  0.00     0.217 HD
ENDBRANCH   8  22
BRANCH  10  24
HETATM   24  O   UNK     0     -12.613  47.125  21.585  0.00  0.00    -0.361 OA
HETATM   25  H   UNK     0     -12.515  46.579  22.383  0.00  0.00     0.217 HD
ENDBRANCH  10  24
TORSDOF 5
ENDMDL
MODEL 9
REMARK VINA RESULT:      -7.0      2.015      7.150
REMARK  5 active torsions:
REMARK  status: ('A' for Active; 'I' for Inactive)
REMARK    1  A    between atoms: O_2  and  C_13 
REMARK    2  A    between atoms: O_4  and  C_16 
REMARK    3  A    between atoms: O_5  and  C_19 
REMARK    4  A    between atoms: O_6  and  C_21 
REMARK    5  A    between atoms: C_9  and  C_10 
ROOT
HETATM    1  O   UNK     0     -11.262  39.449  10.802  0.00  0.00    -0.309 OA
HETATM    2  O   UNK     0     -14.988  38.031  11.640  0.00  0.00    -0.287 OA
HETATM    3  C   UNK     0     -12.811  37.579  10.840  0.00  0.00     0.081 A 
HETATM    4  C   UNK     0     -11.558  38.129  10.576  0.00  0.00     0.095 A 
HETATM    5  C   UNK     0     -12.257  40.272  11.306  0.00  0.00     0.090 A 
HETATM    6  C   UNK     0     -13.867  38.447  11.384  0.00  0.00     0.190 A 
HETATM    7  C   UNK     0     -13.499  39.861  11.606  0.00  0.00     0.094 A 
HETATM    8  C   UNK     0     -13.056  36.227  10.591  0.00  0.00     0.085 A 
HETATM    9  C   UNK     0     -10.539  37.327  10.062  0.00  0.00     0.075 A 
HETATM   10  C   UNK     0     -10.780  35.976   9.812  0.00  0.00     0.071 A 
HETATM   11  C   UNK     0     -12.035  35.427  10.075  0.00  0.00     0.074 A 
ENDROOT
BRANCH   5  12
HETATM   12  C   UNK     0     -11.830  41.670  11.516  0.00  0.00     0.001 A 
HETATM   13  C   UNK     0     -10.667  42.148  10.908  0.00  0.00     0.053 A 
HETATM   14  C   UNK     0     -10.264  43.468  11.106  0.00  0.00     0.099 A 
HETATM   15  C   UNK     0     -11.023  44.316  11.914  0.00  0.00     0.098 A 
HETATM   16  C   UNK     0     -12.184  43.842  12.524  0.00  0.00     0.040 A 
HETATM   17  C   UNK     0     -12.587  42.521  12.325  0.00  0.00     0.017 A 
BRANCH  14  18
HETATM   18  O   UNK     0      -9.127  43.920  10.507  0.00  0.00    -0.358 OA
HETATM   19  H   UNK     0      -8.436  44.005  11.186  0.00  0.00     0.217 HD
ENDBRANCH  14  18
BRANCH  15  20
HETATM   20  O   UNK     0     -10.641  45.607  12.114  0.00  0.00    -0.358 OA
HETATM   21  H   UNK     0     -11.397  46.112  12.460  0.00  0.00     0.217 HD
ENDBRANCH  15  20
ENDBRANCH   5  12
BRANCH   8  22
HETATM   22  O   UNK     0     -14.263  35.643  10.831  0.00  0.00    -0.360 OA
HETATM   23  H   UNK     0     -14.437  35.602  11.784  0.00  0.00     0.217 HD
ENDBRANCH   8  22
BRANCH  10  24
HETATM   24  O   UNK     0      -9.787  35.190   9.310  0.00  0.00    -0.361 OA
HETATM   25  H   UNK     0     -10.178  34.369   8.964  0.00  0.00     0.217 HD
ENDBRANCH  10  24
TORSDOF 5
ENDMDL
