MODEL 1
REMARK VINA RESULT:     -10.0      0.000      0.000
REMARK  Name = 5280637
REMARK                            x       y       z     vdW  Elec       q    Type
REMARK                         _______ _______ _______ _____ _____    ______ ____
ROOT
ATOM     13  C   LIG    1      180.840 178.188 180.296  0.00  0.00    +0.131 A 
ATOM     14  C   LIG    1      180.670 177.900 181.650  0.00  0.00    +0.092 A 
ATOM     15  C   LIG    1      181.725 177.370 182.393  0.00  0.00    +0.135 A 
ATOM     16  C   LIG    1      182.953 177.130 181.771  0.00  0.00    +0.105 A 
ATOM     17  C   LIG    1      184.083 176.570 182.526  0.00  0.00    +0.197 A 
ATOM     18  C   LIG    1      185.334 176.359 181.769  0.00  0.00    +0.098 A 
ATOM     19  C   LIG    1      185.377 176.682 180.467  0.00  0.00    +0.139 A 
ATOM     30  O   LIG    1      184.307 177.202 179.755  0.00  0.00    -0.454 OA
ATOM     31  O   LIG    1      184.002 176.292 183.715  0.00  0.00    -0.287 OA
ATOM     32  C   LIG    1      183.124 177.418 180.417  0.00  0.00    +0.146 A 
ATOM     35  C   LIG    1      182.068 177.947 179.677  0.00  0.00    +0.093 A 
ENDROOT
BRANCH  19  20
ATOM     20  C   LIG    1      186.597 176.484 179.657  0.00  0.00    +0.021 A 
ATOM     21  C   LIG    1      186.518 176.469 178.263  0.00  0.00    +0.015 A 
ATOM     22  C   LIG    1      187.669 176.281 177.499  0.00  0.00    +0.050 A 
ATOM     23  C   LIG    1      188.903 176.110 178.127  0.00  0.00    +0.158 A 
ATOM     24  C   LIG    1      188.984 176.124 179.519  0.00  0.00    +0.159 A 
ATOM     29  C   LIG    1      187.833 176.311 180.283  0.00  0.00    +0.060 A 
BRANCH  24  25
ATOM     25  O   LIG    1      190.185 175.959 180.142  0.00  0.00    -0.503 OA
ATOM     26  H   LIG    1      190.019 175.659 181.052  0.00  0.00    +0.292 HD
ENDBRANCH  24  25
BRANCH  23  27
ATOM     27  O   LIG    1      190.020 175.926 177.369  0.00  0.00    -0.503 OA
ATOM     28  H   LIG    1      189.847 176.243 176.466  0.00  0.00    +0.292 HD
ENDBRANCH  23  27
ENDBRANCH  19  20
BRANCH  15  33
ATOM     33  O   LIG    1      181.508 177.106 183.711  0.00  0.00    -0.506 OA
ATOM     34  H   LIG    1      182.349 176.994 184.179  0.00  0.00    +0.292 HD
ENDBRANCH  15  33
BRANCH  13  12
ATOM     12  O   LIG    1      179.804 178.706 179.575  0.00  0.00    -0.461 OA
BRANCH  12   2
ATOM      1  O   LIG    1      178.086 177.450 178.618  0.00  0.00    -0.331 OA
ATOM      2  C   LIG    1      178.520 178.126 179.796  0.00  0.00    +0.339 C 
ATOM      3  C   LIG    1      177.551 179.253 180.154  0.00  0.00    +0.214 C 
ATOM      4  C   LIG    1      176.115 178.739 180.261  0.00  0.00    +0.180 C 
ATOM      5  C   LIG    1      175.741 177.884 179.051  0.00  0.00    +0.177 C 
ATOM     36  C   LIG    1      176.813 176.824 178.782  0.00  0.00    +0.179 C 
BRANCH   5   6
ATOM      6  O   LIG    1      174.493 177.241 179.294  0.00  0.00    -0.386 OA
ATOM      7  H   LIG    1      173.784 177.870 179.077  0.00  0.00    +0.210 HD
ENDBRANCH   5   6
BRANCH   4   8
ATOM      8  O   LIG    1      175.216 179.848 180.314  0.00  0.00    -0.386 OA
ATOM      9  H   LIG    1      174.927 179.944 181.239  0.00  0.00    +0.210 HD
ENDBRANCH   4   8
BRANCH   3  10
ATOM     10  O   LIG    1      177.951 179.806 181.408  0.00  0.00    -0.383 OA
ATOM     11  H   LIG    1      178.204 180.734 181.261  0.00  0.00    +0.210 HD
ENDBRANCH   3  10
BRANCH  36  37
ATOM     37  C   LIG    1      176.520 176.035 177.510  0.00  0.00    +0.190 C 
BRANCH  37  38
ATOM     38  O   LIG    1      176.007 176.926 176.536  0.00  0.00    -0.392 OA
ATOM     39  H   LIG    1      175.293 176.466 176.062  0.00  0.00    +0.210 HD
ENDBRANCH  37  38
ENDBRANCH  36  37
ENDBRANCH  12   2
ENDBRANCH  13  12
TORSDOF 11
ENDMDL
MODEL 2
REMARK VINA RESULT:      -9.7      1.598      2.253
REMARK  Name = 5280637
REMARK                            x       y       z     vdW  Elec       q    Type
REMARK                         _______ _______ _______ _____ _____    ______ ____
ROOT
ATOM     13  C   LIG    1      180.705 177.833 179.894  0.00  0.00    +0.131 A 
ATOM     14  C   LIG    1      180.573 177.950 181.278  0.00  0.00    +0.092 A 
ATOM     15  C   LIG    1      181.684 177.782 182.105  0.00  0.00    +0.135 A 
ATOM     16  C   LIG    1      182.928 177.497 181.538  0.00  0.00    +0.105 A 
ATOM     17  C   LIG    1      184.117 177.313 182.384  0.00  0.00    +0.197 A 
ATOM     18  C   LIG    1      185.381 177.017 181.678  0.00  0.00    +0.098 A 
ATOM     19  C   LIG    1      185.382 176.936 180.339  0.00  0.00    +0.139 A 
ATOM     30  O   LIG    1      184.258 177.101 179.544  0.00  0.00    -0.454 OA
ATOM     31  O   LIG    1      184.071 177.399 183.603  0.00  0.00    -0.287 OA
ATOM     32  C   LIG    1      183.062 177.381 180.155  0.00  0.00    +0.146 A 
ATOM     35  C   LIG    1      181.950 177.548 179.330  0.00  0.00    +0.093 A 
ENDROOT
BRANCH  19  20
ATOM     20  C   LIG    1      186.614 176.634 179.580  0.00  0.00    +0.021 A 
ATOM     21  C   LIG    1      186.570 176.520 178.189  0.00  0.00    +0.015 A 
ATOM     22  C   LIG    1      187.732 176.233 177.473  0.00  0.00    +0.050 A 
ATOM     23  C   LIG    1      188.942 176.062 178.147  0.00  0.00    +0.158 A 
ATOM     24  C   LIG    1      188.988 176.175 179.536  0.00  0.00    +0.159 A 
ATOM     29  C   LIG    1      187.826 176.461 180.252  0.00  0.00    +0.060 A 
BRANCH  24  25
ATOM     25  O   LIG    1      190.165 176.011 180.204  0.00  0.00    -0.503 OA
ATOM     26  H   LIG    1      190.869 175.859 179.550  0.00  0.00    +0.292 HD
ENDBRANCH  24  25
BRANCH  23  27
ATOM     27  O   LIG    1      190.070 175.782 177.436  0.00  0.00    -0.503 OA
ATOM     28  H   LIG    1      190.427 174.927 177.733  0.00  0.00    +0.292 HD
ENDBRANCH  23  27
ENDBRANCH  19  20
BRANCH  15  33
ATOM     33  O   LIG    1      181.502 177.905 183.449  0.00  0.00    -0.506 OA
ATOM     34  H   LIG    1      182.301 178.258 183.870  0.00  0.00    +0.292 HD
ENDBRANCH  15  33
BRANCH  13  12
ATOM     12  O   LIG    1      179.615 177.997 179.089  0.00  0.00    -0.461 OA
BRANCH  12   2
ATOM      1  O   LIG    1      178.984 175.805 179.576  0.00  0.00    -0.331 OA
ATOM      2  C   LIG    1      178.511 177.125 179.325  0.00  0.00    +0.339 C 
ATOM      3  C   LIG    1      177.620 177.149 178.083  0.00  0.00    +0.214 C 
ATOM      4  C   LIG    1      176.489 176.126 178.190  0.00  0.00    +0.180 C 
ATOM      5  C   LIG    1      177.019 174.758 178.618  0.00  0.00    +0.177 C 
ATOM     36  C   LIG    1      177.924 174.885 179.845  0.00  0.00    +0.179 C 
BRANCH   5   6
ATOM      6  O   LIG    1      175.922 173.902 178.928  0.00  0.00    -0.386 OA
ATOM      7  H   LIG    1      175.796 173.913 179.892  0.00  0.00    +0.210 HD
ENDBRANCH   5   6
BRANCH   4   8
ATOM      8  O   LIG    1      175.858 175.979 176.917  0.00  0.00    -0.386 OA
ATOM      9  H   LIG    1      174.973 175.606 177.072  0.00  0.00    +0.210 HD
ENDBRANCH   4   8
BRANCH   3  10
ATOM     10  O   LIG    1      177.064 178.458 177.955  0.00  0.00    -0.383 OA
ATOM     11  H   LIG    1      176.847 178.782 178.847  0.00  0.00    +0.210 HD
ENDBRANCH   3  10
BRANCH  36  37
ATOM     37  C   LIG    1      178.559 173.549 180.219  0.00  0.00    +0.190 C 
BRANCH  37  38
ATOM     38  O   LIG    1      177.815 172.979 181.281  0.00  0.00    -0.392 OA
ATOM     39  H   LIG    1      178.444 172.716 181.975  0.00  0.00    +0.210 HD
ENDBRANCH  37  38
ENDBRANCH  36  37
ENDBRANCH  12   2
ENDBRANCH  13  12
TORSDOF 11
ENDMDL
MODEL 3
REMARK VINA RESULT:      -9.5     33.279     36.458
REMARK  Name = 5280637
REMARK                            x       y       z     vdW  Elec       q    Type
REMARK                         _______ _______ _______ _____ _____    ______ ____
ROOT
ATOM     13  C   LIG    1      190.288 161.877 210.990  0.00  0.00    +0.131 A 
ATOM     14  C   LIG    1      189.522 161.047 211.808  0.00  0.00    +0.092 A 
ATOM     15  C   LIG    1      189.969 160.716 213.088  0.00  0.00    +0.135 A 
ATOM     16  C   LIG    1      191.189 161.221 213.543  0.00  0.00    +0.105 A 
ATOM     17  C   LIG    1      191.688 160.889 214.886  0.00  0.00    +0.197 A 
ATOM     18  C   LIG    1      192.988 161.479 215.264  0.00  0.00    +0.098 A 
ATOM     19  C   LIG    1      193.631 162.270 214.389  0.00  0.00    +0.139 A 
ATOM     30  O   LIG    1      193.162 162.575 213.121  0.00  0.00    -0.454 OA
ATOM     31  O   LIG    1      191.069 160.165 215.652  0.00  0.00    -0.287 OA
ATOM     32  C   LIG    1      191.956 162.051 212.726  0.00  0.00    +0.146 A 
ATOM     35  C   LIG    1      191.507 162.380 211.448  0.00  0.00    +0.093 A 
ENDROOT
BRANCH  19  20
ATOM     20  C   LIG    1      194.937 162.881 214.709  0.00  0.00    +0.021 A 
ATOM     21  C   LIG    1      195.694 162.398 215.778  0.00  0.00    +0.015 A 
ATOM     22  C   LIG    1      196.927 162.976 216.081  0.00  0.00    +0.050 A 
ATOM     23  C   LIG    1      197.407 164.037 215.313  0.00  0.00    +0.158 A 
ATOM     24  C   LIG    1      196.653 164.522 214.245  0.00  0.00    +0.159 A 
ATOM     29  C   LIG    1      195.420 163.944 213.943  0.00  0.00    +0.060 A 
BRANCH  24  25
ATOM     25  O   LIG    1      197.113 165.557 213.488  0.00  0.00    -0.503 OA
ATOM     26  H   LIG    1      197.107 165.281 212.556  0.00  0.00    +0.292 HD
ENDBRANCH  24  25
BRANCH  23  27
ATOM     27  O   LIG    1      198.612 164.593 215.619  0.00  0.00    -0.503 OA
ATOM     28  H   LIG    1      199.206 163.899 215.953  0.00  0.00    +0.292 HD
ENDBRANCH  23  27
ENDBRANCH  19  20
BRANCH  15  33
ATOM     33  O   LIG    1      189.184 159.902 213.847  0.00  0.00    -0.506 OA
ATOM     34  H   LIG    1      188.725 160.413 214.531  0.00  0.00    +0.292 HD
ENDBRANCH  15  33
BRANCH  13  12
ATOM     12  O   LIG    1      189.847 162.197 209.740  0.00  0.00    -0.461 OA
BRANCH  12   2
ATOM      1  O   LIG    1      187.735 162.373 208.764  0.00  0.00    -0.331 OA
ATOM      2  C   LIG    1      188.657 162.981 209.665  0.00  0.00    +0.339 C 
ATOM      3  C   LIG    1      189.044 164.377 209.175  0.00  0.00    +0.214 C 
ATOM      4  C   LIG    1      187.808 165.240 208.921  0.00  0.00    +0.180 C 
ATOM      5  C   LIG    1      186.771 164.491 208.084  0.00  0.00    +0.177 C 
ATOM     36  C   LIG    1      186.508 163.099 208.663  0.00  0.00    +0.179 C 
BRANCH   5   6
ATOM      6  O   LIG    1      185.554 165.232 208.065  0.00  0.00    -0.386 OA
ATOM      7  H   LIG    1      184.981 164.851 207.379  0.00  0.00    +0.210 HD
ENDBRANCH   5   6
BRANCH   4   8
ATOM      8  O   LIG    1      188.188 166.417 208.207  0.00  0.00    -0.386 OA
ATOM      9  H   LIG    1      188.805 166.145 207.506  0.00  0.00    +0.210 HD
ENDBRANCH   4   8
BRANCH   3  10
ATOM     10  O   LIG    1      189.855 164.994 210.174  0.00  0.00    -0.383 OA
ATOM     11  H   LIG    1      190.015 165.915 209.906  0.00  0.00    +0.210 HD
ENDBRANCH   3  10
BRANCH  36  37
ATOM     37  C   LIG    1      185.566 162.289 207.778  0.00  0.00    +0.190 C 
BRANCH  37  38
ATOM     38  O   LIG    1      186.331 161.343 207.053  0.00  0.00    -0.392 OA
ATOM     39  H   LIG    1      186.115 161.449 206.110  0.00  0.00    +0.210 HD
ENDBRANCH  37  38
ENDBRANCH  36  37
ENDBRANCH  12   2
ENDBRANCH  13  12
TORSDOF 11
ENDMDL
MODEL 4
REMARK VINA RESULT:      -9.5      1.484      2.460
REMARK  Name = 5280637
REMARK                            x       y       z     vdW  Elec       q    Type
REMARK                         _______ _______ _______ _____ _____    ______ ____
ROOT
ATOM     13  C   LIG    1      180.378 177.081 181.366  0.00  0.00    +0.131 A 
ATOM     14  C   LIG    1      180.509 177.911 182.479  0.00  0.00    +0.092 A 
ATOM     15  C   LIG    1      181.761 178.414 182.835  0.00  0.00    +0.135 A 
ATOM     16  C   LIG    1      182.880 178.081 182.070  0.00  0.00    +0.105 A 
ATOM     17  C   LIG    1      184.213 178.594 182.421  0.00  0.00    +0.197 A 
ATOM     18  C   LIG    1      185.325 178.180 181.541  0.00  0.00    +0.098 A 
ATOM     19  C   LIG    1      185.071 177.380 180.493  0.00  0.00    +0.139 A 
ATOM     30  O   LIG    1      183.815 176.891 180.169  0.00  0.00    -0.454 OA
ATOM     31  O   LIG    1      184.399 179.323 183.385  0.00  0.00    -0.287 OA
ATOM     32  C   LIG    1      182.751 177.251 180.956  0.00  0.00    +0.146 A 
ATOM     35  C   LIG    1      181.499 176.749 180.603  0.00  0.00    +0.093 A 
ENDROOT
BRANCH  19  20
ATOM     20  C   LIG    1      186.144 176.926 179.584  0.00  0.00    +0.021 A 
ATOM     21  C   LIG    1      185.963 175.785 178.800  0.00  0.00    +0.015 A 
ATOM     22  C   LIG    1      186.977 175.356 177.944  0.00  0.00    +0.050 A 
ATOM     23  C   LIG    1      188.174 176.068 177.868  0.00  0.00    +0.158 A 
ATOM     24  C   LIG    1      188.358 177.208 178.651  0.00  0.00    +0.159 A 
ATOM     29  C   LIG    1      187.344 177.637 179.508  0.00  0.00    +0.060 A 
BRANCH  24  25
ATOM     25  O   LIG    1      189.523 177.911 178.584  0.00  0.00    -0.503 OA
ATOM     26  H   LIG    1      190.053 177.702 179.372  0.00  0.00    +0.292 HD
ENDBRANCH  24  25
BRANCH  23  27
ATOM     27  O   LIG    1      189.157 175.638 177.028  0.00  0.00    -0.503 OA
ATOM     28  H   LIG    1      188.999 176.005 176.141  0.00  0.00    +0.292 HD
ENDBRANCH  23  27
ENDBRANCH  19  20
BRANCH  15  33
ATOM     33  O   LIG    1      181.836 179.220 183.931  0.00  0.00    -0.506 OA
ATOM     34  H   LIG    1      181.444 178.783 184.702  0.00  0.00    +0.292 HD
ENDBRANCH  15  33
BRANCH  13  12
ATOM     12  O   LIG    1      179.152 176.591 181.022  0.00  0.00    -0.461 OA
BRANCH  12   2
ATOM      1  O   LIG    1      177.370 178.093 180.921  0.00  0.00    -0.331 OA
ATOM      2  C   LIG    1      178.359 177.404 180.160  0.00  0.00    +0.339 C 
ATOM      3  C   LIG    1      177.698 176.490 179.127  0.00  0.00    +0.214 C 
ATOM      4  C   LIG    1      176.709 177.261 178.253  0.00  0.00    +0.180 C 
ATOM      5  C   LIG    1      175.768 178.115 179.103  0.00  0.00    +0.177 C 
ATOM     36  C   LIG    1      176.556 178.948 180.116  0.00  0.00    +0.179 C 
BRANCH   5   6
ATOM      6  O   LIG    1      175.024 178.985 178.253  0.00  0.00    -0.386 OA
ATOM      7  H   LIG    1      174.815 178.500 177.436  0.00  0.00    +0.210 HD
ENDBRANCH   5   6
BRANCH   4   8
ATOM      8  O   LIG    1      175.916 176.338 177.504  0.00  0.00    -0.386 OA
ATOM      9  H   LIG    1      175.307 176.859 176.952  0.00  0.00    +0.210 HD
ENDBRANCH   4   8
BRANCH   3  10
ATOM     10  O   LIG    1      178.722 175.931 178.304  0.00  0.00    -0.383 OA
ATOM     11  H   LIG    1      178.353 175.796 177.414  0.00  0.00    +0.210 HD
ENDBRANCH   3  10
BRANCH  36  37
ATOM     37  C   LIG    1      175.631 179.719 181.053  0.00  0.00    +0.190 C 
BRANCH  37  38
ATOM     38  O   LIG    1      175.474 181.033 180.551  0.00  0.00    -0.392 OA
ATOM     39  H   LIG    1      174.522 181.193 180.435  0.00  0.00    +0.210 HD
ENDBRANCH  37  38
ENDBRANCH  36  37
ENDBRANCH  12   2
ENDBRANCH  13  12
TORSDOF 11
ENDMDL
MODEL 5
REMARK VINA RESULT:      -9.0     13.987     21.182
REMARK  Name = 5280637
REMARK                            x       y       z     vdW  Elec       q    Type
REMARK                         _______ _______ _______ _____ _____    ______ ____
ROOT
ATOM     13  C   LIG    1      166.573 179.596 171.701  0.00  0.00    +0.131 A 
ATOM     14  C   LIG    1      165.872 178.473 172.140  0.00  0.00    +0.092 A 
ATOM     15  C   LIG    1      164.481 178.508 172.237  0.00  0.00    +0.135 A 
ATOM     16  C   LIG    1      163.796 179.675 171.892  0.00  0.00    +0.105 A 
ATOM     17  C   LIG    1      162.329 179.743 171.986  0.00  0.00    +0.197 A 
ATOM     18  C   LIG    1      161.710 181.026 171.593  0.00  0.00    +0.098 A 
ATOM     19  C   LIG    1      162.492 182.035 171.180  0.00  0.00    +0.139 A 
ATOM     30  O   LIG    1      163.874 181.970 171.100  0.00  0.00    -0.454 OA
ATOM     31  O   LIG    1      161.654 178.797 172.366  0.00  0.00    -0.287 OA
ATOM     32  C   LIG    1      164.495 180.798 171.452  0.00  0.00    +0.146 A 
ATOM     35  C   LIG    1      165.886 180.761 171.356  0.00  0.00    +0.093 A 
ENDROOT
BRANCH  19  20
ATOM     20  C   LIG    1      161.929 183.342 170.784  0.00  0.00    +0.021 A 
ATOM     21  C   LIG    1      162.512 184.071 169.746  0.00  0.00    +0.015 A 
ATOM     22  C   LIG    1      161.981 185.306 169.373  0.00  0.00    +0.050 A 
ATOM     23  C   LIG    1      160.864 185.815 170.037  0.00  0.00    +0.158 A 
ATOM     24  C   LIG    1      160.280 185.089 171.075  0.00  0.00    +0.159 A 
ATOM     29  C   LIG    1      160.811 183.854 171.448  0.00  0.00    +0.060 A 
BRANCH  24  25
ATOM     25  O   LIG    1      159.188 185.575 171.729  0.00  0.00    -0.503 OA
ATOM     26  H   LIG    1      158.525 184.867 171.785  0.00  0.00    +0.292 HD
ENDBRANCH  24  25
BRANCH  23  27
ATOM     27  O   LIG    1      160.356 187.022 169.664  0.00  0.00    -0.503 OA
ATOM     28  H   LIG    1      160.842 187.727 170.126  0.00  0.00    +0.292 HD
ENDBRANCH  23  27
ENDBRANCH  19  20
BRANCH  15  33
ATOM     33  O   LIG    1      163.843 177.385 172.672  0.00  0.00    -0.506 OA
ATOM     34  H   LIG    1      164.460 176.805 173.143  0.00  0.00    +0.292 HD
ENDBRANCH  15  33
BRANCH  13  12
ATOM     12  O   LIG    1      167.934 179.556 171.608  0.00  0.00    -0.461 OA
BRANCH  12   2
ATOM      1  O   LIG    1      168.452 181.625 172.553  0.00  0.00    -0.331 OA
ATOM      2  C   LIG    1      168.663 180.219 172.640  0.00  0.00    +0.339 C 
ATOM      3  C   LIG    1      170.144 179.887 172.455  0.00  0.00    +0.214 C 
ATOM      4  C   LIG    1      171.017 180.678 173.431  0.00  0.00    +0.180 C 
ATOM      5  C   LIG    1      170.649 182.161 173.425  0.00  0.00    +0.177 C 
ATOM     36  C   LIG    1      169.138 182.347 173.578  0.00  0.00    +0.179 C 
BRANCH   5   6
ATOM      6  O   LIG    1      171.316 182.817 174.500  0.00  0.00    -0.386 OA
ATOM      7  H   LIG    1      172.133 182.325 174.691  0.00  0.00    +0.210 HD
ENDBRANCH   5   6
BRANCH   4   8
ATOM      8  O   LIG    1      172.388 180.560 173.045  0.00  0.00    -0.386 OA
ATOM      9  H   LIG    1      172.910 181.100 173.662  0.00  0.00    +0.210 HD
ENDBRANCH   4   8
BRANCH   3  10
ATOM     10  O   LIG    1      170.323 178.490 172.687  0.00  0.00    -0.383 OA
ATOM     11  H   LIG    1      169.456 178.108 172.908  0.00  0.00    +0.210 HD
ENDBRANCH   3  10
BRANCH  36  37
ATOM     37  C   LIG    1      168.734 183.813 173.457  0.00  0.00    +0.190 C 
BRANCH  37  38
ATOM     38  O   LIG    1      169.825 184.538 172.918  0.00  0.00    -0.392 OA
ATOM     39  H   LIG    1      169.473 185.145 172.244  0.00  0.00    +0.210 HD
ENDBRANCH  37  38
ENDBRANCH  36  37
ENDBRANCH  12   2
ENDBRANCH  13  12
TORSDOF 11
ENDMDL
MODEL 6
REMARK VINA RESULT:      -9.0     35.512     39.797
REMARK  Name = 5280637
REMARK                            x       y       z     vdW  Elec       q    Type
REMARK                         _______ _______ _______ _____ _____    ______ ____
ROOT
ATOM     13  C   LIG    1      196.389 162.082 213.564  0.00  0.00    +0.131 A 
ATOM     14  C   LIG    1      196.067 161.896 214.908  0.00  0.00    +0.092 A 
ATOM     15  C   LIG    1      194.732 161.885 215.314  0.00  0.00    +0.135 A 
ATOM     16  C   LIG    1      193.722 162.062 214.365  0.00  0.00    +0.105 A 
ATOM     17  C   LIG    1      192.306 162.057 214.762  0.00  0.00    +0.197 A 
ATOM     18  C   LIG    1      191.323 162.251 213.677  0.00  0.00    +0.098 A 
ATOM     19  C   LIG    1      191.757 162.415 212.417  0.00  0.00    +0.139 A 
ATOM     30  O   LIG    1      193.093 162.427 212.047  0.00  0.00    -0.454 OA
ATOM     31  O   LIG    1      191.953 161.903 215.923  0.00  0.00    -0.287 OA
ATOM     32  C   LIG    1      194.043 162.248 213.021  0.00  0.00    +0.146 A 
ATOM     35  C   LIG    1      195.378 162.258 212.618  0.00  0.00    +0.093 A 
ENDROOT
BRANCH  19  20
ATOM     20  C   LIG    1      190.821 162.621 211.293  0.00  0.00    +0.021 A 
ATOM     21  C   LIG    1      190.293 163.890 211.045  0.00  0.00    +0.015 A 
ATOM     22  C   LIG    1      189.408 164.084 209.985  0.00  0.00    +0.050 A 
ATOM     23  C   LIG    1      189.050 163.011 209.169  0.00  0.00    +0.158 A 
ATOM     24  C   LIG    1      189.576 161.743 209.415  0.00  0.00    +0.159 A 
ATOM     29  C   LIG    1      190.461 161.548 210.475  0.00  0.00    +0.060 A 
BRANCH  24  25
ATOM     25  O   LIG    1      189.235 160.688 208.622  0.00  0.00    -0.503 OA
ATOM     26  H   LIG    1      189.519 159.869 209.063  0.00  0.00    +0.292 HD
ENDBRANCH  24  25
BRANCH  23  27
ATOM     27  O   LIG    1      188.184 163.214 208.137  0.00  0.00    -0.503 OA
ATOM     28  H   LIG    1      188.448 164.017 207.655  0.00  0.00    +0.292 HD
ENDBRANCH  23  27
ENDBRANCH  19  20
BRANCH  15  33
ATOM     33  O   LIG    1      194.469 161.700 216.638  0.00  0.00    -0.506 OA
ATOM     34  H   LIG    1      194.901 162.386 217.169  0.00  0.00    +0.292 HD
ENDBRANCH  15  33
BRANCH  13  12
ATOM     12  O   LIG    1      197.696 162.092 213.172  0.00  0.00    -0.461 OA
BRANCH  12   2
ATOM      1  O   LIG    1      198.800 163.749 214.388  0.00  0.00    -0.331 OA
ATOM      2  C   LIG    1      198.665 162.344 214.189  0.00  0.00    +0.339 C 
ATOM      3  C   LIG    1      199.992 161.737 213.734  0.00  0.00    +0.214 C 
ATOM      4  C   LIG    1      201.125 162.091 214.698  0.00  0.00    +0.180 C 
ATOM      5  C   LIG    1      201.137 163.587 215.012  0.00  0.00    +0.177 C 
ATOM     36  C   LIG    1      199.741 164.069 215.415  0.00  0.00    +0.179 C 
BRANCH   5   6
ATOM      6  O   LIG    1      202.048 163.838 216.079  0.00  0.00    -0.386 OA
ATOM      7  H   LIG    1      202.282 164.782 216.058  0.00  0.00    +0.210 HD
ENDBRANCH   5   6
BRANCH   4   8
ATOM      8  O   LIG    1      202.379 161.754 214.102  0.00  0.00    -0.386 OA
ATOM      9  H   LIG    1      202.907 161.293 214.777  0.00  0.00    +0.210 HD
ENDBRANCH   4   8
BRANCH   3  10
ATOM     10  O   LIG    1      199.842 160.318 213.682  0.00  0.00    -0.383 OA
ATOM     11  H   LIG    1      200.683 159.937 213.376  0.00  0.00    +0.210 HD
ENDBRANCH   3  10
BRANCH  36  37
ATOM     37  C   LIG    1      199.703 165.580 215.619  0.00  0.00    +0.190 C 
BRANCH  37  38
ATOM     38  O   LIG    1      199.984 165.858 216.978  0.00  0.00    -0.392 OA
ATOM     39  H   LIG    1      199.532 166.687 217.210  0.00  0.00    +0.210 HD
ENDBRANCH  37  38
ENDBRANCH  36  37
ENDBRANCH  12   2
ENDBRANCH  13  12
TORSDOF 11
ENDMDL
MODEL 7
REMARK VINA RESULT:      -8.9     36.377     39.869
REMARK  Name = 5280637
REMARK                            x       y       z     vdW  Elec       q    Type
REMARK                         _______ _______ _______ _____ _____    ______ ____
ROOT
ATOM     13  C   LIG    1      195.017 162.254 215.504  0.00  0.00    +0.131 A 
ATOM     14  C   LIG    1      194.054 163.188 215.887  0.00  0.00    +0.092 A 
ATOM     15  C   LIG    1      192.780 163.153 215.319  0.00  0.00    +0.135 A 
ATOM     16  C   LIG    1      192.476 162.178 214.367  0.00  0.00    +0.105 A 
ATOM     17  C   LIG    1      191.142 162.116 213.750  0.00  0.00    +0.197 A 
ATOM     18  C   LIG    1      190.931 161.044 212.756  0.00  0.00    +0.098 A 
ATOM     19  C   LIG    1      191.937 160.200 212.476  0.00  0.00    +0.139 A 
ATOM     30  O   LIG    1      193.196 160.265 213.053  0.00  0.00    -0.454 OA
ATOM     31  O   LIG    1      190.253 162.905 214.037  0.00  0.00    -0.287 OA
ATOM     32  C   LIG    1      193.438 161.244 213.984  0.00  0.00    +0.146 A 
ATOM     35  C   LIG    1      194.711 161.281 214.551  0.00  0.00    +0.093 A 
ENDROOT
BRANCH  19  20
ATOM     20  C   LIG    1      191.787 159.114 211.485  0.00  0.00    +0.021 A 
ATOM     21  C   LIG    1      192.733 158.090 211.419  0.00  0.00    +0.015 A 
ATOM     22  C   LIG    1      192.592 157.066 210.483  0.00  0.00    +0.050 A 
ATOM     23  C   LIG    1      191.503 157.063 209.611  0.00  0.00    +0.158 A 
ATOM     24  C   LIG    1      190.556 158.086 209.674  0.00  0.00    +0.159 A 
ATOM     29  C   LIG    1      190.698 159.110 210.611  0.00  0.00    +0.060 A 
BRANCH  24  25
ATOM     25  O   LIG    1      189.488 158.091 208.828  0.00  0.00    -0.503 OA
ATOM     26  H   LIG    1      189.772 158.469 207.979  0.00  0.00    +0.292 HD
ENDBRANCH  24  25
BRANCH  23  27
ATOM     27  O   LIG    1      191.377 156.058 208.700  0.00  0.00    -0.503 OA
ATOM     28  H   LIG    1      190.998 156.418 207.880  0.00  0.00    +0.292 HD
ENDBRANCH  23  27
ENDBRANCH  19  20
BRANCH  15  33
ATOM     33  O   LIG    1      191.875 164.086 215.726  0.00  0.00    -0.506 OA
ATOM     34  H   LIG    1      190.979 163.716 215.724  0.00  0.00    +0.292 HD
ENDBRANCH  15  33
BRANCH  13  12
ATOM     12  O   LIG    1      196.262 162.293 216.061  0.00  0.00    -0.461 OA
BRANCH  12   2
ATOM      1  O   LIG    1      197.275 163.386 214.266  0.00  0.00    -0.331 OA
ATOM      2  C   LIG    1      197.098 163.385 215.680  0.00  0.00    +0.339 C 
ATOM      3  C   LIG    1      198.443 163.216 216.388  0.00  0.00    +0.214 C 
ATOM      4  C   LIG    1      199.453 164.264 215.919  0.00  0.00    +0.180 C 
ATOM      5  C   LIG    1      199.496 164.347 214.393  0.00  0.00    +0.177 C 
ATOM     36  C   LIG    1      198.085 164.474 213.816  0.00  0.00    +0.179 C 
BRANCH   5   6
ATOM      6  O   LIG    1      200.269 165.480 214.004  0.00  0.00    -0.386 OA
ATOM      7  H   LIG    1      199.662 166.145 213.636  0.00  0.00    +0.210 HD
ENDBRANCH   5   6
BRANCH   4   8
ATOM      8  O   LIG    1      200.757 163.906 216.380  0.00  0.00    -0.386 OA
ATOM      9  H   LIG    1      200.650 163.465 217.241  0.00  0.00    +0.210 HD
ENDBRANCH   4   8
BRANCH   3  10
ATOM     10  O   LIG    1      198.231 163.359 217.792  0.00  0.00    -0.383 OA
ATOM     11  H   LIG    1      199.100 163.421 218.224  0.00  0.00    +0.210 HD
ENDBRANCH   3  10
BRANCH  36  37
ATOM     37  C   LIG    1      198.094 164.440 212.291  0.00  0.00    +0.190 C 
BRANCH  37  38
ATOM     38  O   LIG    1      198.279 165.760 211.812  0.00  0.00    -0.392 OA
ATOM     39  H   LIG    1      197.936 165.795 210.902  0.00  0.00    +0.210 HD
ENDBRANCH  37  38
ENDBRANCH  36  37
ENDBRANCH  12   2
ENDBRANCH  13  12
TORSDOF 11
ENDMDL
MODEL 8
REMARK VINA RESULT:      -8.8      2.119      9.918
REMARK  Name = 5280637
REMARK                            x       y       z     vdW  Elec       q    Type
REMARK                         _______ _______ _______ _____ _____    ______ ____
ROOT
ATOM     13  C   LIG    1      184.338 177.650 179.893  0.00  0.00    +0.131 A 
ATOM     14  C   LIG    1      184.270 178.037 178.555  0.00  0.00    +0.092 A 
ATOM     15  C   LIG    1      183.034 178.308 177.965  0.00  0.00    +0.135 A 
ATOM     16  C   LIG    1      181.868 178.190 178.724  0.00  0.00    +0.105 A 
ATOM     17  C   LIG    1      180.551 178.467 178.130  0.00  0.00    +0.197 A 
ATOM     18  C   LIG    1      179.386 178.312 179.025  0.00  0.00    +0.098 A 
ATOM     19  C   LIG    1      179.581 177.940 180.300  0.00  0.00    +0.139 A 
ATOM     30  O   LIG    1      180.822 177.671 180.855  0.00  0.00    -0.454 OA
ATOM     31  O   LIG    1      180.420 178.807 176.963  0.00  0.00    -0.287 OA
ATOM     32  C   LIG    1      181.935 177.804 180.063  0.00  0.00    +0.146 A 
ATOM     35  C   LIG    1      183.170 177.533 180.649  0.00  0.00    +0.093 A 
ENDROOT
BRANCH  19  20
ATOM     20  C   LIG    1      178.453 177.761 181.238  0.00  0.00    +0.021 A 
ATOM     21  C   LIG    1      178.698 177.559 182.597  0.00  0.00    +0.015 A 
ATOM     22  C   LIG    1      177.633 177.389 183.482  0.00  0.00    +0.050 A 
ATOM     23  C   LIG    1      176.321 177.421 183.010  0.00  0.00    +0.158 A 
ATOM     24  C   LIG    1      176.074 177.622 181.652  0.00  0.00    +0.159 A 
ATOM     29  C   LIG    1      177.139 177.792 180.767  0.00  0.00    +0.060 A 
BRANCH  24  25
ATOM     25  O   LIG    1      174.796 177.657 181.180  0.00  0.00    -0.503 OA
ATOM     26  H   LIG    1      174.829 177.693 180.209  0.00  0.00    +0.292 HD
ENDBRANCH  24  25
BRANCH  23  27
ATOM     27  O   LIG    1      175.290 177.252 183.884  0.00  0.00    -0.503 OA
ATOM     28  H   LIG    1      175.629 177.325 184.793  0.00  0.00    +0.292 HD
ENDBRANCH  23  27
ENDBRANCH  19  20
BRANCH  15  33
ATOM     33  O   LIG    1      183.022 178.681 176.655  0.00  0.00    -0.506 OA
ATOM     34  H   LIG    1      182.139 178.985 176.396  0.00  0.00    +0.292 HD
ENDBRANCH  15  33
BRANCH  13  12
ATOM     12  O   LIG    1      185.548 177.386 180.465  0.00  0.00    -0.461 OA
BRANCH  12   2
ATOM      1  O   LIG    1      186.465 176.317 178.605  0.00  0.00    -0.331 OA
ATOM      2  C   LIG    1      186.670 177.330 179.586  0.00  0.00    +0.339 C 
ATOM      3  C   LIG    1      187.910 177.020 180.426  0.00  0.00    +0.214 C 
ATOM      4  C   LIG    1      189.138 176.793 179.543  0.00  0.00    +0.180 C 
ATOM      5  C   LIG    1      188.829 175.821 178.404  0.00  0.00    +0.177 C 
ATOM     36  C   LIG    1      187.546 176.227 177.675  0.00  0.00    +0.179 C 
BRANCH   5   6
ATOM      6  O   LIG    1      189.915 175.815 177.481  0.00  0.00    -0.386 OA
ATOM      7  H   LIG    1      189.807 175.046 176.896  0.00  0.00    +0.210 HD
ENDBRANCH   5   6
BRANCH   4   8
ATOM      8  O   LIG    1      190.192 176.235 180.328  0.00  0.00    -0.386 OA
ATOM      9  H   LIG    1      190.667 176.975 180.745  0.00  0.00    +0.210 HD
ENDBRANCH   4   8
BRANCH   3  10
ATOM     10  O   LIG    1      188.150 178.125 181.296  0.00  0.00    -0.383 OA
ATOM     11  H   LIG    1      189.107 178.173 181.465  0.00  0.00    +0.210 HD
ENDBRANCH   3  10
BRANCH  36  37
ATOM     37  C   LIG    1      187.154 175.206 176.612  0.00  0.00    +0.190 C 
BRANCH  37  38
ATOM     38  O   LIG    1      185.931 174.605 176.993  0.00  0.00    -0.392 OA
ATOM     39  H   LIG    1      185.383 175.290 177.414  0.00  0.00    +0.210 HD
ENDBRANCH  37  38
ENDBRANCH  36  37
ENDBRANCH  12   2
ENDBRANCH  13  12
TORSDOF 11
ENDMDL
MODEL 9
REMARK VINA RESULT:      -8.8     34.386     38.623
REMARK  Name = 5280637
REMARK                            x       y       z     vdW  Elec       q    Type
REMARK                         _______ _______ _______ _____ _____    ______ ____
ROOT
ATOM     13  C   LIG    1      195.685 161.495 212.929  0.00  0.00    +0.131 A 
ATOM     14  C   LIG    1      195.449 161.442 214.303  0.00  0.00    +0.092 A 
ATOM     15  C   LIG    1      194.190 161.766 214.811  0.00  0.00    +0.135 A 
ATOM     16  C   LIG    1      193.169 162.142 213.935  0.00  0.00    +0.105 A 
ATOM     17  C   LIG    1      191.833 162.490 214.441  0.00  0.00    +0.197 A 
ATOM     18  C   LIG    1      190.830 162.871 213.425  0.00  0.00    +0.098 A 
ATOM     19  C   LIG    1      191.177 162.878 212.129  0.00  0.00    +0.139 A 
ATOM     30  O   LIG    1      192.439 162.557 211.656  0.00  0.00    -0.454 OA
ATOM     31  O   LIG    1      191.559 162.469 215.633  0.00  0.00    -0.287 OA
ATOM     32  C   LIG    1      193.404 162.194 212.562  0.00  0.00    +0.146 A 
ATOM     35  C   LIG    1      194.663 161.871 212.056  0.00  0.00    +0.093 A 
ENDROOT
BRANCH  19  20
ATOM     20  C   LIG    1      190.218 163.259 211.070  0.00  0.00    +0.021 A 
ATOM     21  C   LIG    1      189.921 164.604 210.845  0.00  0.00    +0.015 A 
ATOM     22  C   LIG    1      189.015 164.963 209.847  0.00  0.00    +0.050 A 
ATOM     23  C   LIG    1      188.406 163.978 209.071  0.00  0.00    +0.158 A 
ATOM     24  C   LIG    1      188.701 162.633 209.294  0.00  0.00    +0.159 A 
ATOM     29  C   LIG    1      189.606 162.273 210.292  0.00  0.00    +0.060 A 
BRANCH  24  25
ATOM     25  O   LIG    1      188.112 161.662 208.540  0.00  0.00    -0.503 OA
ATOM     26  H   LIG    1      187.179 161.900 208.409  0.00  0.00    +0.292 HD
ENDBRANCH  24  25
BRANCH  23  27
ATOM     27  O   LIG    1      187.522 164.341 208.100  0.00  0.00    -0.503 OA
ATOM     28  H   LIG    1      187.475 165.312 208.061  0.00  0.00    +0.292 HD
ENDBRANCH  23  27
ENDBRANCH  19  20
BRANCH  15  33
ATOM     33  O   LIG    1      194.011 161.700 216.160  0.00  0.00    -0.506 OA
ATOM     34  H   LIG    1      193.249 161.141 216.375  0.00  0.00    +0.292 HD
ENDBRANCH  15  33
BRANCH  13  12
ATOM     12  O   LIG    1      196.917 161.178 212.438  0.00  0.00    -0.461 OA
BRANCH  12   2
ATOM      1  O   LIG    1      197.992 162.388 214.118  0.00  0.00    -0.331 OA
ATOM      2  C   LIG    1      197.973 162.094 212.723  0.00  0.00    +0.339 C 
ATOM      3  C   LIG    1      197.724 163.365 211.911  0.00  0.00    +0.214 C 
ATOM      4  C   LIG    1      198.729 164.461 212.271  0.00  0.00    +0.180 C 
ATOM      5  C   LIG    1      198.838 164.635 213.785  0.00  0.00    +0.177 C 
ATOM     36  C   LIG    1      199.046 163.285 214.474  0.00  0.00    +0.179 C 
BRANCH   5   6
ATOM      6  O   LIG    1      199.938 165.491 214.083  0.00  0.00    -0.386 OA
ATOM      7  H   LIG    1      199.582 166.350 214.367  0.00  0.00    +0.210 HD
ENDBRANCH   5   6
BRANCH   4   8
ATOM      8  O   LIG    1      198.298 165.703 211.712  0.00  0.00    -0.386 OA
ATOM      9  H   LIG    1      198.288 166.357 212.432  0.00  0.00    +0.210 HD
ENDBRANCH   4   8
BRANCH   3  10
ATOM     10  O   LIG    1      197.851 163.044 210.526  0.00  0.00    -0.383 OA
ATOM     11  H   LIG    1      197.568 163.818 210.010  0.00  0.00    +0.210 HD
ENDBRANCH   3  10
BRANCH  36  37
ATOM     37  C   LIG    1      199.041 163.420 215.994  0.00  0.00    +0.190 C 
BRANCH  37  38
ATOM     38  O   LIG    1      200.325 163.844 216.413  0.00  0.00    -0.392 OA
ATOM     39  H   LIG    1      200.236 164.215 217.308  0.00  0.00    +0.210 HD
ENDBRANCH  37  38
ENDBRANCH  36  37
ENDBRANCH  12   2
ENDBRANCH  13  12
TORSDOF 11
ENDMDL
