MODEL 1
REMARK VINA RESULT:      -7.6      0.000      0.000
REMARK  13 active torsions:
REMARK  status: ('A' for Active; 'I' for Inactive)
REMARK    1  A    between atoms: C_2  and  O_12 
REMARK    2  A    between atoms: C_3  and  O_10 
REMARK    3  A    between atoms: C_4  and  O_8 
REMARK    4  A    between atoms: C_5  and  O_6 
REMARK    5  A    between atoms: C_22  and  C_23 
REMARK    6  A    between atoms: O_12  and  C_13 
REMARK    7  A    between atoms: C_13  and  C_14 
REMARK    8  A    between atoms: C_15  and  C_16 
REMARK    9  A    between atoms: C_23  and  O_24 
REMARK   10  A    between atoms: O_24  and  C_25 
REMARK   11  A    between atoms: C_26  and  O_34 
REMARK   12  A    between atoms: C_27  and  O_32 
REMARK   13  A    between atoms: C_28  and  O_30 
ROOT
ATOM      1  O   LIG     1       7.398  43.352  20.000  0.00  0.00    -0.341 OA
ATOM      2  C   LIG     1       6.303  43.813  19.212  0.00  0.00     0.282 C 
ATOM      3  C   LIG     1       6.219  45.339  19.251  0.00  0.00     0.201 C 
ATOM      4  C   LIG     1       7.547  45.980  18.851  0.00  0.00     0.179 C 
ATOM      5  C   LIG     1       8.717  45.347  19.604  0.00  0.00     0.177 C 
ATOM      6  C   LIG     1       8.658  43.820  19.516  0.00  0.00     0.178 C 
ENDROOT
BRANCH   6   7
ATOM      7  C   LIG     1       9.748  43.163  20.357  0.00  0.00     0.197 C 
BRANCH   7   8
ATOM      8  O   LIG     1      10.099  44.044  21.408  0.00  0.00    -0.346 OA
BRANCH   8   9
ATOM      9  C   LIG     1      10.045  43.400  22.677  0.00  0.00     0.281 C 
ATOM     10  O   LIG     1       8.707  43.050  23.046  0.00  0.00    -0.346 OA
ATOM     11  C   LIG     1       7.865  44.175  23.288  0.00  0.00     0.197 C 
ATOM     12  C   LIG     1       8.413  45.019  24.432  0.00  0.00     0.171 C 
ATOM     13  C   LIG     1       9.838  45.484  24.124  0.00  0.00     0.178 C 
ATOM     14  C   LIG     1      10.712  44.285  23.741  0.00  0.00     0.201 C 
BRANCH  12  15
ATOM     15  O   LIG     1       7.578  46.145  24.662  0.00  0.00    -0.387 OA
ATOM     16  H   LIG     1       7.853  46.548  25.503  0.00  0.00     0.210 HD
ENDBRANCH  12  15
BRANCH  13  17
ATOM     17  O   LIG     1       9.807  46.417  23.045  0.00  0.00    -0.386 OA
ATOM     18  H   LIG     1      10.717  46.516  22.717  0.00  0.00     0.210 HD
ENDBRANCH  13  17
BRANCH  14  19
ATOM     19  O   LIG     1      10.948  43.484  24.896  0.00  0.00    -0.384 OA
ATOM     20  H   LIG     1      11.892  43.259  24.927  0.00  0.00     0.210 HD
ENDBRANCH  14  19
ENDBRANCH   8   9
ENDBRANCH   7   8
ENDBRANCH   6   7
BRANCH   5  21
ATOM     21  O   LIG     1       9.944  45.805  19.041  0.00  0.00    -0.386 OA
ATOM     22  H   LIG     1      10.285  46.519  19.608  0.00  0.00     0.210 HD
ENDBRANCH   5  21
BRANCH   2  23
ATOM     23  O   LIG     1       5.082  43.291  19.731  0.00  0.00    -0.345 OA
BRANCH  23  24
ATOM     24  C   LIG     1       4.774  43.857  20.995  0.00  0.00     0.190 C 
BRANCH  24  25
ATOM     25  C   LIG     1       4.308  42.770  21.910  0.00  0.00     0.001 C 
ATOM     26  C   LIG     1       3.360  42.947  22.843  0.00  0.00     0.006 C 
BRANCH  26  27
ATOM     27  C   LIG     1       2.860  41.904  23.755  0.00  0.00    -0.025 A 
ATOM     28  C   LIG     1       2.052  40.895  23.255  0.00  0.00     0.008 A 
ATOM     29  C   LIG     1       1.580  39.907  24.118  0.00  0.00     0.001 A 
ATOM     30  C   LIG     1       1.919  39.941  25.470  0.00  0.00     0.000 A 
ATOM     31  C   LIG     1       2.733  40.963  25.960  0.00  0.00     0.001 A 
ATOM     32  C   LIG     1       3.206  41.951  25.096  0.00  0.00     0.008 A 
ENDBRANCH  26  27
ENDBRANCH  24  25
ENDBRANCH  23  24
ENDBRANCH   2  23
BRANCH   4  33
ATOM     33  O   LIG     1       7.518  47.372  19.169  0.00  0.00    -0.386 OA
ATOM     34  H   LIG     1       7.207  47.455  20.087  0.00  0.00     0.210 HD
ENDBRANCH   4  33
BRANCH   3  35
ATOM     35  O   LIG     1       5.199  45.754  18.343  0.00  0.00    -0.384 OA
ATOM     36  H   LIG     1       5.095  46.717  18.426  0.00  0.00     0.210 HD
ENDBRANCH   3  35
TORSDOF 13
ENDMDL
MODEL 2
REMARK VINA RESULT:      -7.5      3.020      7.759
REMARK  13 active torsions:
REMARK  status: ('A' for Active; 'I' for Inactive)
REMARK    1  A    between atoms: C_2  and  O_12 
REMARK    2  A    between atoms: C_3  and  O_10 
REMARK    3  A    between atoms: C_4  and  O_8 
REMARK    4  A    between atoms: C_5  and  O_6 
REMARK    5  A    between atoms: C_22  and  C_23 
REMARK    6  A    between atoms: O_12  and  C_13 
REMARK    7  A    between atoms: C_13  and  C_14 
REMARK    8  A    between atoms: C_15  and  C_16 
REMARK    9  A    between atoms: C_23  and  O_24 
REMARK   10  A    between atoms: O_24  and  C_25 
REMARK   11  A    between atoms: C_26  and  O_34 
REMARK   12  A    between atoms: C_27  and  O_32 
REMARK   13  A    between atoms: C_28  and  O_30 
ROOT
ATOM      1  O   LIG     1       8.050  43.859  19.799  0.00  0.00    -0.341 OA
ATOM      2  C   LIG     1       8.832  44.756  20.584  0.00  0.00     0.282 C 
ATOM      3  C   LIG     1       8.826  46.154  19.965  0.00  0.00     0.201 C 
ATOM      4  C   LIG     1       7.401  46.656  19.736  0.00  0.00     0.179 C 
ATOM      5  C   LIG     1       6.549  45.601  19.032  0.00  0.00     0.177 C 
ATOM      6  C   LIG     1       6.676  44.245  19.730  0.00  0.00     0.178 C 
ENDROOT
BRANCH   6   7
ATOM      7  C   LIG     1       5.927  43.149  18.978  0.00  0.00     0.197 C 
BRANCH   7   8
ATOM      8  O   LIG     1       4.659  42.973  19.583  0.00  0.00    -0.346 OA
BRANCH   8   9
ATOM      9  C   LIG     1       4.715  43.168  20.992  0.00  0.00     0.281 C 
ATOM     10  O   LIG     1       5.031  41.958  21.690  0.00  0.00    -0.346 OA
ATOM     11  C   LIG     1       4.013  40.963  21.604  0.00  0.00     0.197 C 
ATOM     12  C   LIG     1       2.711  41.473  22.208  0.00  0.00     0.171 C 
ATOM     13  C   LIG     1       2.256  42.754  21.506  0.00  0.00     0.178 C 
ATOM     14  C   LIG     1       3.395  43.779  21.489  0.00  0.00     0.201 C 
BRANCH  12  15
ATOM     15  O   LIG     1       1.697  40.483  22.110  0.00  0.00    -0.387 OA
ATOM     16  H   LIG     1       0.850  40.907  22.332  0.00  0.00     0.210 HD
ENDBRANCH  12  15
BRANCH  13  17
ATOM     17  O   LIG     1       1.871  42.446  20.168  0.00  0.00    -0.386 OA
ATOM     18  H   LIG     1       0.963  42.772  20.042  0.00  0.00     0.210 HD
ENDBRANCH  13  17
BRANCH  14  19
ATOM     19  O   LIG     1       3.607  44.272  22.809  0.00  0.00    -0.384 OA
ATOM     20  H   LIG     1       4.563  44.369  22.952  0.00  0.00     0.210 HD
ENDBRANCH  14  19
ENDBRANCH   8   9
ENDBRANCH   7   8
ENDBRANCH   6   7
BRANCH   5  21
ATOM     21  O   LIG     1       5.184  46.011  19.045  0.00  0.00    -0.386 OA
ATOM     22  H   LIG     1       5.143  46.928  18.721  0.00  0.00     0.210 HD
ENDBRANCH   5  21
BRANCH   2  23
ATOM     23  O   LIG     1      10.183  44.301  20.634  0.00  0.00    -0.345 OA
BRANCH  23  24
ATOM     24  C   LIG     1      10.396  43.215  19.746  0.00  0.00     0.190 C 
BRANCH  24  25
ATOM     25  C   LIG     1      11.775  42.680  19.961  0.00  0.00     0.001 C 
ATOM     26  C   LIG     1      12.204  42.201  21.139  0.00  0.00     0.006 C 
BRANCH  26  27
ATOM     27  C   LIG     1      13.547  41.652  21.394  0.00  0.00    -0.025 A 
ATOM     28  C   LIG     1      14.625  42.128  20.665  0.00  0.00     0.008 A 
ATOM     29  C   LIG     1      15.896  41.608  20.907  0.00  0.00     0.001 A 
ATOM     30  C   LIG     1      16.073  40.617  21.872  0.00  0.00     0.000 A 
ATOM     31  C   LIG     1      14.979  40.147  22.598  0.00  0.00     0.001 A 
ATOM     32  C   LIG     1      13.707  40.668  22.356  0.00  0.00     0.008 A 
ENDBRANCH  26  27
ENDBRANCH  24  25
ENDBRANCH  23  24
ENDBRANCH   2  23
BRANCH   4  33
ATOM     33  O   LIG     1       7.434  47.821  18.910  0.00  0.00    -0.386 OA
ATOM     34  H   LIG     1       7.842  48.534  19.429  0.00  0.00     0.210 HD
ENDBRANCH   4  33
BRANCH   3  35
ATOM     35  O   LIG     1       9.504  47.040  20.855  0.00  0.00    -0.384 OA
ATOM     36  H   LIG     1       9.266  47.951  20.614  0.00  0.00     0.210 HD
ENDBRANCH   3  35
TORSDOF 13
ENDMDL
MODEL 3
REMARK VINA RESULT:      -7.5      1.968      3.149
REMARK  13 active torsions:
REMARK  status: ('A' for Active; 'I' for Inactive)
REMARK    1  A    between atoms: C_2  and  O_12 
REMARK    2  A    between atoms: C_3  and  O_10 
REMARK    3  A    between atoms: C_4  and  O_8 
REMARK    4  A    between atoms: C_5  and  O_6 
REMARK    5  A    between atoms: C_22  and  C_23 
REMARK    6  A    between atoms: O_12  and  C_13 
REMARK    7  A    between atoms: C_13  and  C_14 
REMARK    8  A    between atoms: C_15  and  C_16 
REMARK    9  A    between atoms: C_23  and  O_24 
REMARK   10  A    between atoms: O_24  and  C_25 
REMARK   11  A    between atoms: C_26  and  O_34 
REMARK   12  A    between atoms: C_27  and  O_32 
REMARK   13  A    between atoms: C_28  and  O_30 
ROOT
ATOM      1  O   LIG     1       7.012  44.058  21.055  0.00  0.00    -0.341 OA
ATOM      2  C   LIG     1       6.116  44.232  19.960  0.00  0.00     0.282 C 
ATOM      3  C   LIG     1       6.078  45.699  19.527  0.00  0.00     0.201 C 
ATOM      4  C   LIG     1       7.481  46.229  19.234  0.00  0.00     0.179 C 
ATOM      5  C   LIG     1       8.451  45.882  20.363  0.00  0.00     0.177 C 
ATOM      6  C   LIG     1       8.359  44.397  20.721  0.00  0.00     0.178 C 
ENDROOT
BRANCH   6   7
ATOM      7  C   LIG     1       9.234  44.050  21.923  0.00  0.00     0.197 C 
BRANCH   7   8
ATOM      8  O   LIG     1      10.584  44.008  21.500  0.00  0.00    -0.346 OA
BRANCH   8   9
ATOM      9  C   LIG     1      11.282  42.907  22.071  0.00  0.00     0.281 C 
ATOM     10  O   LIG     1      12.499  43.313  22.708  0.00  0.00    -0.346 OA
ATOM     11  C   LIG     1      13.484  43.807  21.803  0.00  0.00     0.197 C 
ATOM     12  C   LIG     1      13.872  42.733  20.794  0.00  0.00     0.171 C 
ATOM     13  C   LIG     1      12.643  42.249  20.022  0.00  0.00     0.178 C 
ATOM     14  C   LIG     1      11.537  41.836  20.998  0.00  0.00     0.201 C 
BRANCH  12  15
ATOM     15  O   LIG     1      14.845  43.233  19.888  0.00  0.00    -0.387 OA
ATOM     16  H   LIG     1      15.691  43.288  20.365  0.00  0.00     0.210 HD
ENDBRANCH  12  15
BRANCH  13  17
ATOM     17  O   LIG     1      12.171  43.301  19.181  0.00  0.00    -0.386 OA
ATOM     18  H   LIG     1      11.317  43.018  18.811  0.00  0.00     0.210 HD
ENDBRANCH  13  17
BRANCH  14  19
ATOM     19  O   LIG     1      11.915  40.631  21.659  0.00  0.00    -0.384 OA
ATOM     20  H   LIG     1      12.083  40.833  22.594  0.00  0.00     0.210 HD
ENDBRANCH  14  19
ENDBRANCH   8   9
ENDBRANCH   7   8
ENDBRANCH   6   7
BRANCH   5  21
ATOM     21  O   LIG     1       9.782  46.186  19.952  0.00  0.00    -0.386 OA
ATOM     22  H   LIG     1      10.296  45.361  19.966  0.00  0.00     0.210 HD
ENDBRANCH   5  21
BRANCH   2  23
ATOM     23  O   LIG     1       4.798  43.854  20.351  0.00  0.00    -0.345 OA
BRANCH  23  24
ATOM     24  C   LIG     1       4.270  44.746  21.320  0.00  0.00     0.190 C 
BRANCH  24  25
ATOM     25  C   LIG     1       3.679  43.949  22.437  0.00  0.00     0.001 C 
ATOM     26  C   LIG     1       3.594  42.610  22.423  0.00  0.00     0.006 C 
BRANCH  26  27
ATOM     27  C   LIG     1       3.034  41.782  23.506  0.00  0.00    -0.025 A 
ATOM     28  C   LIG     1       2.159  40.755  23.192  0.00  0.00     0.008 A 
ATOM     29  C   LIG     1       1.629  39.972  24.217  0.00  0.00     0.001 A 
ATOM     30  C   LIG     1       1.980  40.227  25.543  0.00  0.00     0.000 A 
ATOM     31  C   LIG     1       2.862  41.264  25.844  0.00  0.00     0.001 A 
ATOM     32  C   LIG     1       3.392  42.047  24.818  0.00  0.00     0.008 A 
ENDBRANCH  26  27
ENDBRANCH  24  25
ENDBRANCH  23  24
ENDBRANCH   2  23
BRANCH   4  33
ATOM     33  O   LIG     1       7.436  47.652  19.113  0.00  0.00    -0.386 OA
ATOM     34  H   LIG     1       7.095  48.005  19.952  0.00  0.00     0.210 HD
ENDBRANCH   4  33
BRANCH   3  35
ATOM     35  O   LIG     1       5.278  45.796  18.349  0.00  0.00    -0.384 OA
ATOM     36  H   LIG     1       4.851  44.936  18.203  0.00  0.00     0.210 HD
ENDBRANCH   3  35
TORSDOF 13
ENDMDL
MODEL 4
REMARK VINA RESULT:      -7.5      1.308      2.089
REMARK  13 active torsions:
REMARK  status: ('A' for Active; 'I' for Inactive)
REMARK    1  A    between atoms: C_2  and  O_12 
REMARK    2  A    between atoms: C_3  and  O_10 
REMARK    3  A    between atoms: C_4  and  O_8 
REMARK    4  A    between atoms: C_5  and  O_6 
REMARK    5  A    between atoms: C_22  and  C_23 
REMARK    6  A    between atoms: O_12  and  C_13 
REMARK    7  A    between atoms: C_13  and  C_14 
REMARK    8  A    between atoms: C_15  and  C_16 
REMARK    9  A    between atoms: C_23  and  O_24 
REMARK   10  A    between atoms: O_24  and  C_25 
REMARK   11  A    between atoms: C_26  and  O_34 
REMARK   12  A    between atoms: C_27  and  O_32 
REMARK   13  A    between atoms: C_28  and  O_30 
ROOT
ATOM      1  O   LIG     1       6.450  43.518  20.846  0.00  0.00    -0.341 OA
ATOM      2  C   LIG     1       5.502  43.689  19.794  0.00  0.00     0.282 C 
ATOM      3  C   LIG     1       5.891  44.875  18.911  0.00  0.00     0.201 C 
ATOM      4  C   LIG     1       7.325  44.742  18.400  0.00  0.00     0.179 C 
ATOM      5  C   LIG     1       8.288  44.401  19.536  0.00  0.00     0.177 C 
ATOM      6  C   LIG     1       7.761  43.224  20.361  0.00  0.00     0.178 C 
ENDROOT
BRANCH   6   7
ATOM      7  C   LIG     1       8.646  42.939  21.570  0.00  0.00     0.197 C 
BRANCH   7   8
ATOM      8  O   LIG     1       9.290  44.142  21.950  0.00  0.00    -0.346 OA
BRANCH   8   9
ATOM      9  C   LIG     1       8.750  44.672  23.156  0.00  0.00     0.281 C 
ATOM     10  O   LIG     1       9.060  46.061  23.318  0.00  0.00    -0.346 OA
ATOM     11  C   LIG     1      10.448  46.321  23.516  0.00  0.00     0.197 C 
ATOM     12  C   LIG     1      10.949  45.625  24.775  0.00  0.00     0.171 C 
ATOM     13  C   LIG     1      10.702  44.117  24.693  0.00  0.00     0.178 C 
ATOM     14  C   LIG     1       9.233  43.841  24.355  0.00  0.00     0.201 C 
BRANCH  12  15
ATOM     15  O   LIG     1      12.335  45.877  24.962  0.00  0.00    -0.387 OA
ATOM     16  H   LIG     1      12.790  45.017  24.983  0.00  0.00     0.210 HD
ENDBRANCH  12  15
BRANCH  13  17
ATOM     17  O   LIG     1      11.538  43.557  23.682  0.00  0.00    -0.386 OA
ATOM     18  H   LIG     1      11.026  42.866  23.228  0.00  0.00     0.210 HD
ENDBRANCH  13  17
BRANCH  14  19
ATOM     19  O   LIG     1       8.420  44.173  25.477  0.00  0.00    -0.384 OA
ATOM     20  H   LIG     1       8.996  44.491  26.192  0.00  0.00     0.210 HD
ENDBRANCH  14  19
ENDBRANCH   8   9
ENDBRANCH   7   8
ENDBRANCH   6   7
BRANCH   5  21
ATOM     21  O   LIG     1       9.560  44.062  18.990  0.00  0.00    -0.386 OA
ATOM     22  H   LIG     1       9.437  43.305  18.391  0.00  0.00     0.210 HD
ENDBRANCH   5  21
BRANCH   2  23
ATOM     23  O   LIG     1       4.213  43.952  20.344  0.00  0.00    -0.345 OA
BRANCH  23  24
ATOM     24  C   LIG     1       3.406  42.786  20.353  0.00  0.00     0.190 C 
BRANCH  24  25
ATOM     25  C   LIG     1       3.444  42.183  21.720  0.00  0.00     0.001 C 
ATOM     26  C   LIG     1       2.342  41.882  22.424  0.00  0.00     0.006 C 
BRANCH  26  27
ATOM     27  C   LIG     1       2.330  41.275  23.766  0.00  0.00    -0.025 A 
ATOM     28  C   LIG     1       3.030  41.887  24.794  0.00  0.00     0.008 A 
ATOM     29  C   LIG     1       3.019  41.311  26.064  0.00  0.00     0.001 A 
ATOM     30  C   LIG     1       2.310  40.132  26.290  0.00  0.00     0.000 A 
ATOM     31  C   LIG     1       1.610  39.527  25.246  0.00  0.00     0.001 A 
ATOM     32  C   LIG     1       1.621  40.103  23.975  0.00  0.00     0.008 A 
ENDBRANCH  26  27
ENDBRANCH  24  25
ENDBRANCH  23  24
ENDBRANCH   2  23
BRANCH   4  33
ATOM     33  O   LIG     1       7.741  45.982  17.825  0.00  0.00    -0.386 OA
ATOM     34  H   LIG     1       7.108  46.204  17.122  0.00  0.00     0.210 HD
ENDBRANCH   4  33
BRANCH   3  35
ATOM     35  O   LIG     1       4.994  44.919  17.801  0.00  0.00    -0.384 OA
ATOM     36  H   LIG     1       4.114  45.162  18.135  0.00  0.00     0.210 HD
ENDBRANCH   3  35
TORSDOF 13
ENDMDL
MODEL 5
REMARK VINA RESULT:      -7.4      1.418      2.211
REMARK  13 active torsions:
REMARK  status: ('A' for Active; 'I' for Inactive)
REMARK    1  A    between atoms: C_2  and  O_12 
REMARK    2  A    between atoms: C_3  and  O_10 
REMARK    3  A    between atoms: C_4  and  O_8 
REMARK    4  A    between atoms: C_5  and  O_6 
REMARK    5  A    between atoms: C_22  and  C_23 
REMARK    6  A    between atoms: O_12  and  C_13 
REMARK    7  A    between atoms: C_13  and  C_14 
REMARK    8  A    between atoms: C_15  and  C_16 
REMARK    9  A    between atoms: C_23  and  O_24 
REMARK   10  A    between atoms: O_24  and  C_25 
REMARK   11  A    between atoms: C_26  and  O_34 
REMARK   12  A    between atoms: C_27  and  O_32 
REMARK   13  A    between atoms: C_28  and  O_30 
ROOT
ATOM      1  O   LIG     1       6.998  43.950  21.040  0.00  0.00    -0.341 OA
ATOM      2  C   LIG     1       6.732  43.732  19.657  0.00  0.00     0.282 C 
ATOM      3  C   LIG     1       6.542  45.065  18.932  0.00  0.00     0.201 C 
ATOM      4  C   LIG     1       7.728  46.001  19.167  0.00  0.00     0.179 C 
ATOM      5  C   LIG     1       8.083  46.082  20.651  0.00  0.00     0.177 C 
ATOM      6  C   LIG     1       8.205  44.682  21.258  0.00  0.00     0.178 C 
ENDROOT
BRANCH   6   7
ATOM      7  C   LIG     1       8.445  44.738  22.764  0.00  0.00     0.197 C 
BRANCH   7   8
ATOM      8  O   LIG     1       9.765  45.196  22.994  0.00  0.00    -0.346 OA
BRANCH   8   9
ATOM      9  C   LIG     1      10.720  44.151  22.842  0.00  0.00     0.281 C 
ATOM     10  O   LIG     1      10.495  43.080  23.765  0.00  0.00    -0.346 OA
ATOM     11  C   LIG     1      10.714  43.439  25.127  0.00  0.00     0.197 C 
ATOM     12  C   LIG     1      12.155  43.886  25.339  0.00  0.00     0.171 C 
ATOM     13  C   LIG     1      12.496  45.062  24.422  0.00  0.00     0.178 C 
ATOM     14  C   LIG     1      12.141  44.720  22.971  0.00  0.00     0.201 C 
BRANCH  12  15
ATOM     15  O   LIG     1      12.366  44.254  26.695  0.00  0.00    -0.387 OA
ATOM     16  H   LIG     1      12.918  45.056  26.699  0.00  0.00     0.210 HD
ENDBRANCH  12  15
BRANCH  13  17
ATOM     17  O   LIG     1      11.758  46.211  24.836  0.00  0.00    -0.386 OA
ATOM     18  H   LIG     1      11.395  46.629  24.036  0.00  0.00     0.210 HD
ENDBRANCH  13  17
BRANCH  14  19
ATOM     19  O   LIG     1      13.054  43.740  22.481  0.00  0.00    -0.384 OA
ATOM     20  H   LIG     1      13.164  43.873  21.525  0.00  0.00     0.210 HD
ENDBRANCH  14  19
ENDBRANCH   8   9
ENDBRANCH   7   8
ENDBRANCH   6   7
BRANCH   5  21
ATOM     21  O   LIG     1       9.321  46.772  20.803  0.00  0.00    -0.386 OA
ATOM     22  H   LIG     1       9.628  46.639  21.716  0.00  0.00     0.210 HD
ENDBRANCH   5  21
BRANCH   2  23
ATOM     23  O   LIG     1       5.532  42.976  19.510  0.00  0.00    -0.345 OA
BRANCH  23  24
ATOM     24  C   LIG     1       4.470  43.539  20.263  0.00  0.00     0.190 C 
BRANCH  24  25
ATOM     25  C   LIG     1       4.092  42.584  21.350  0.00  0.00     0.001 C 
ATOM     26  C   LIG     1       3.291  42.914  22.375  0.00  0.00     0.006 C 
BRANCH  26  27
ATOM     27  C   LIG     1       2.880  42.005  23.458  0.00  0.00    -0.025 A 
ATOM     28  C   LIG     1       3.323  42.244  24.750  0.00  0.00     0.008 A 
ATOM     29  C   LIG     1       2.933  41.382  25.775  0.00  0.00     0.001 A 
ATOM     30  C   LIG     1       2.107  40.294  25.497  0.00  0.00     0.000 A 
ATOM     31  C   LIG     1       1.670  40.066  24.192  0.00  0.00     0.001 A 
ATOM     32  C   LIG     1       2.059  40.928  23.166  0.00  0.00     0.008 A 
ENDBRANCH  26  27
ENDBRANCH  24  25
ENDBRANCH  23  24
ENDBRANCH   2  23
BRANCH   4  33
ATOM     33  O   LIG     1       7.392  47.316  18.720  0.00  0.00    -0.386 OA
ATOM     34  H   LIG     1       7.297  47.876  19.510  0.00  0.00     0.210 HD
ENDBRANCH   4  33
BRANCH   3  35
ATOM     35  O   LIG     1       6.416  44.801  17.535  0.00  0.00    -0.384 OA
ATOM     36  H   LIG     1       6.227  43.854  17.424  0.00  0.00     0.210 HD
ENDBRANCH   3  35
TORSDOF 13
ENDMDL
MODEL 6
REMARK VINA RESULT:      -7.3      4.170      8.589
REMARK  13 active torsions:
REMARK  status: ('A' for Active; 'I' for Inactive)
REMARK    1  A    between atoms: C_2  and  O_12 
REMARK    2  A    between atoms: C_3  and  O_10 
REMARK    3  A    between atoms: C_4  and  O_8 
REMARK    4  A    between atoms: C_5  and  O_6 
REMARK    5  A    between atoms: C_22  and  C_23 
REMARK    6  A    between atoms: O_12  and  C_13 
REMARK    7  A    between atoms: C_13  and  C_14 
REMARK    8  A    between atoms: C_15  and  C_16 
REMARK    9  A    between atoms: C_23  and  O_24 
REMARK   10  A    between atoms: O_24  and  C_25 
REMARK   11  A    between atoms: C_26  and  O_34 
REMARK   12  A    between atoms: C_27  and  O_32 
REMARK   13  A    between atoms: C_28  and  O_30 
ROOT
ATOM      1  O   LIG     1      10.114  43.486  21.498  0.00  0.00    -0.341 OA
ATOM      2  C   LIG     1      11.283  43.276  20.709  0.00  0.00     0.282 C 
ATOM      3  C   LIG     1      11.048  43.738  19.270  0.00  0.00     0.201 C 
ATOM      4  C   LIG     1      10.555  45.184  19.224  0.00  0.00     0.179 C 
ATOM      5  C   LIG     1       9.403  45.408  20.203  0.00  0.00     0.177 C 
ATOM      6  C   LIG     1       9.756  44.866  21.590  0.00  0.00     0.178 C 
ENDROOT
BRANCH   6   7
ATOM      7  C   LIG     1       8.579  44.973  22.555  0.00  0.00     0.197 C 
BRANCH   7   8
ATOM      8  O   LIG     1       7.513  45.631  21.894  0.00  0.00    -0.346 OA
BRANCH   8   9
ATOM      9  C   LIG     1       6.296  44.901  21.998  0.00  0.00     0.281 C 
ATOM     10  O   LIG     1       6.309  43.717  21.192  0.00  0.00    -0.346 OA
ATOM     11  C   LIG     1       6.338  43.977  19.790  0.00  0.00     0.197 C 
ATOM     12  C   LIG     1       5.107  44.766  19.365  0.00  0.00     0.171 C 
ATOM     13  C   LIG     1       5.014  46.080  20.142  0.00  0.00     0.178 C 
ATOM     14  C   LIG     1       5.108  45.810  21.648  0.00  0.00     0.201 C 
BRANCH  12  15
ATOM     15  O   LIG     1       5.147  45.033  17.970  0.00  0.00    -0.387 OA
ATOM     16  H   LIG     1       5.064  45.995  17.852  0.00  0.00     0.210 HD
ENDBRANCH  12  15
BRANCH  13  17
ATOM     17  O   LIG     1       6.080  46.940  19.743  0.00  0.00    -0.386 OA
ATOM     18  H   LIG     1       6.203  46.829  18.785  0.00  0.00     0.210 HD
ENDBRANCH  13  17
BRANCH  14  19
ATOM     19  O   LIG     1       3.915  45.167  22.088  0.00  0.00    -0.384 OA
ATOM     20  H   LIG     1       3.614  45.601  22.903  0.00  0.00     0.210 HD
ENDBRANCH  14  19
ENDBRANCH   8   9
ENDBRANCH   7   8
ENDBRANCH   6   7
BRANCH   5  21
ATOM     21  O   LIG     1       9.129  46.804  20.297  0.00  0.00    -0.386 OA
ATOM     22  H   LIG     1       8.210  46.909  20.598  0.00  0.00     0.210 HD
ENDBRANCH   5  21
BRANCH   2  23
ATOM     23  O   LIG     1      11.600  41.885  20.678  0.00  0.00    -0.345 OA
BRANCH  23  24
ATOM     24  C   LIG     1      12.273  41.483  21.860  0.00  0.00     0.190 C 
BRANCH  24  25
ATOM     25  C   LIG     1      13.719  41.272  21.543  0.00  0.00     0.001 C 
ATOM     26  C   LIG     1      14.609  40.808  22.434  0.00  0.00     0.006 C 
BRANCH  26  27
ATOM     27  C   LIG     1      16.037  40.570  22.163  0.00  0.00    -0.025 A 
ATOM     28  C   LIG     1      16.702  39.569  22.853  0.00  0.00     0.008 A 
ATOM     29  C   LIG     1      18.054  39.345  22.595  0.00  0.00     0.001 A 
ATOM     30  C   LIG     1      18.724  40.125  21.654  0.00  0.00     0.000 A 
ATOM     31  C   LIG     1      18.042  41.129  20.967  0.00  0.00     0.001 A 
ATOM     32  C   LIG     1      16.689  41.354  21.224  0.00  0.00     0.008 A 
ENDBRANCH  26  27
ENDBRANCH  24  25
ENDBRANCH  23  24
ENDBRANCH   2  23
BRANCH   4  33
ATOM     33  O   LIG     1      10.083  45.484  17.909  0.00  0.00    -0.386 OA
ATOM     34  H   LIG     1       9.276  44.961  17.764  0.00  0.00     0.210 HD
ENDBRANCH   4  33
BRANCH   3  35
ATOM     35  O   LIG     1      12.282  43.635  18.561  0.00  0.00    -0.384 OA
ATOM     36  H   LIG     1      13.001  43.577  19.212  0.00  0.00     0.210 HD
ENDBRANCH   3  35
TORSDOF 13
ENDMDL
MODEL 7
REMARK VINA RESULT:      -7.2      1.393      2.125
REMARK  13 active torsions:
REMARK  status: ('A' for Active; 'I' for Inactive)
REMARK    1  A    between atoms: C_2  and  O_12 
REMARK    2  A    between atoms: C_3  and  O_10 
REMARK    3  A    between atoms: C_4  and  O_8 
REMARK    4  A    between atoms: C_5  and  O_6 
REMARK    5  A    between atoms: C_22  and  C_23 
REMARK    6  A    between atoms: O_12  and  C_13 
REMARK    7  A    between atoms: C_13  and  C_14 
REMARK    8  A    between atoms: C_15  and  C_16 
REMARK    9  A    between atoms: C_23  and  O_24 
REMARK   10  A    between atoms: O_24  and  C_25 
REMARK   11  A    between atoms: C_26  and  O_34 
REMARK   12  A    between atoms: C_27  and  O_32 
REMARK   13  A    between atoms: C_28  and  O_30 
ROOT
ATOM      1  O   LIG     1       8.508  44.395  20.957  0.00  0.00    -0.341 OA
ATOM      2  C   LIG     1       7.616  44.756  19.904  0.00  0.00     0.282 C 
ATOM      3  C   LIG     1       8.373  45.463  18.780  0.00  0.00     0.201 C 
ATOM      4  C   LIG     1       9.556  44.627  18.293  0.00  0.00     0.179 C 
ATOM      5  C   LIG     1      10.399  44.126  19.464  0.00  0.00     0.177 C 
ATOM      6  C   LIG     1       9.515  43.476  20.531  0.00  0.00     0.178 C 
ENDROOT
BRANCH   6   7
ATOM      7  C   LIG     1      10.320  43.072  21.763  0.00  0.00     0.197 C 
BRANCH   7   8
ATOM      8  O   LIG     1      11.297  44.067  22.009  0.00  0.00    -0.346 OA
BRANCH   8   9
ATOM      9  C   LIG     1      11.561  44.216  23.400  0.00  0.00     0.281 C 
ATOM     10  O   LIG     1      10.589  43.539  24.206  0.00  0.00    -0.346 OA
ATOM     11  C   LIG     1       9.283  44.104  24.126  0.00  0.00     0.197 C 
ATOM     12  C   LIG     1       9.294  45.552  24.601  0.00  0.00     0.171 C 
ATOM     13  C   LIG     1      10.278  46.382  23.775  0.00  0.00     0.178 C 
ATOM     14  C   LIG     1      11.653  45.707  23.758  0.00  0.00     0.201 C 
BRANCH  12  15
ATOM     15  O   LIG     1       7.992  46.114  24.508  0.00  0.00    -0.387 OA
ATOM     16  H   LIG     1       7.459  45.740  25.231  0.00  0.00     0.210 HD
ENDBRANCH  12  15
BRANCH  13  17
ATOM     17  O   LIG     1       9.789  46.503  22.440  0.00  0.00    -0.386 OA
ATOM     18  H   LIG     1      10.160  45.766  21.925  0.00  0.00     0.210 HD
ENDBRANCH  13  17
BRANCH  14  19
ATOM     19  O   LIG     1      12.248  45.814  25.050  0.00  0.00    -0.384 OA
ATOM     20  H   LIG     1      13.185  45.566  24.979  0.00  0.00     0.210 HD
ENDBRANCH  14  19
ENDBRANCH   8   9
ENDBRANCH   7   8
ENDBRANCH   6   7
BRANCH   5  21
ATOM     21  O   LIG     1      11.346  43.171  18.990  0.00  0.00    -0.386 OA
ATOM     22  H   LIG     1      11.974  43.635  18.409  0.00  0.00     0.210 HD
ENDBRANCH   5  21
BRANCH   2  23
ATOM     23  O   LIG     1       6.624  45.652  20.399  0.00  0.00    -0.345 OA
BRANCH  23  24
ATOM     24  C   LIG     1       5.320  45.114  20.249  0.00  0.00     0.190 C 
BRANCH  24  25
ATOM     25  C   LIG     1       4.978  44.328  21.473  0.00  0.00     0.001 C 
ATOM     26  C   LIG     1       3.801  43.708  21.647  0.00  0.00     0.006 C 
BRANCH  26  27
ATOM     27  C   LIG     1       3.426  42.912  22.828  0.00  0.00    -0.025 A 
ATOM     28  C   LIG     1       3.985  43.218  24.059  0.00  0.00     0.008 A 
ATOM     29  C   LIG     1       3.629  42.464  25.177  0.00  0.00     0.001 A 
ATOM     30  C   LIG     1       2.722  41.412  25.050  0.00  0.00     0.000 A 
ATOM     31  C   LIG     1       2.168  41.115  23.805  0.00  0.00     0.001 A 
ATOM     32  C   LIG     1       2.523  41.870  22.687  0.00  0.00     0.008 A 
ENDBRANCH  26  27
ENDBRANCH  24  25
ENDBRANCH  23  24
ENDBRANCH   2  23
BRANCH   4  33
ATOM     33  O   LIG     1      10.393  45.429  17.457  0.00  0.00    -0.386 OA
ATOM     34  H   LIG     1      11.295  45.381  17.817  0.00  0.00     0.210 HD
ENDBRANCH   4  33
BRANCH   3  35
ATOM     35  O   LIG     1       7.467  45.679  17.698  0.00  0.00    -0.384 OA
ATOM     36  H   LIG     1       6.562  45.582  18.039  0.00  0.00     0.210 HD
ENDBRANCH   3  35
TORSDOF 13
ENDMDL
MODEL 8
REMARK VINA RESULT:      -7.2      2.537      3.932
REMARK  13 active torsions:
REMARK  status: ('A' for Active; 'I' for Inactive)
REMARK    1  A    between atoms: C_2  and  O_12 
REMARK    2  A    between atoms: C_3  and  O_10 
REMARK    3  A    between atoms: C_4  and  O_8 
REMARK    4  A    between atoms: C_5  and  O_6 
REMARK    5  A    between atoms: C_22  and  C_23 
REMARK    6  A    between atoms: O_12  and  C_13 
REMARK    7  A    between atoms: C_13  and  C_14 
REMARK    8  A    between atoms: C_15  and  C_16 
REMARK    9  A    between atoms: C_23  and  O_24 
REMARK   10  A    between atoms: O_24  and  C_25 
REMARK   11  A    between atoms: C_26  and  O_34 
REMARK   12  A    between atoms: C_27  and  O_32 
REMARK   13  A    between atoms: C_28  and  O_30 
ROOT
ATOM      1  O   LIG     1       8.559  44.762  21.127  0.00  0.00    -0.341 OA
ATOM      2  C   LIG     1       7.662  45.215  20.116  0.00  0.00     0.282 C 
ATOM      3  C   LIG     1       8.437  45.686  18.884  0.00  0.00     0.201 C 
ATOM      4  C   LIG     1       9.397  44.608  18.384  0.00  0.00     0.179 C 
ATOM      5  C   LIG     1      10.231  44.035  19.529  0.00  0.00     0.177 C 
ATOM      6  C   LIG     1       9.338  43.640  20.707  0.00  0.00     0.178 C 
ENDROOT
BRANCH   6   7
ATOM      7  C   LIG     1      10.157  43.173  21.907  0.00  0.00     0.197 C 
BRANCH   7   8
ATOM      8  O   LIG     1      11.494  43.610  21.736  0.00  0.00    -0.346 OA
BRANCH   8   9
ATOM      9  C   LIG     1      12.331  43.175  22.802  0.00  0.00     0.281 C 
ATOM     10  O   LIG     1      13.530  43.952  22.894  0.00  0.00    -0.346 OA
ATOM     11  C   LIG     1      14.410  43.784  21.785  0.00  0.00     0.197 C 
ATOM     12  C   LIG     1      14.854  42.332  21.667  0.00  0.00     0.171 C 
ATOM     13  C   LIG     1      13.644  41.408  21.523  0.00  0.00     0.178 C 
ATOM     14  C   LIG     1      12.638  41.677  22.648  0.00  0.00     0.201 C 
BRANCH  12  15
ATOM     15  O   LIG     1      15.721  42.168  20.553  0.00  0.00    -0.387 OA
ATOM     16  H   LIG     1      15.656  42.971  20.009  0.00  0.00     0.210 HD
ENDBRANCH  12  15
BRANCH  13  17
ATOM     17  O   LIG     1      13.021  41.640  20.261  0.00  0.00    -0.386 OA
ATOM     18  H   LIG     1      13.622  41.305  19.572  0.00  0.00     0.210 HD
ENDBRANCH  13  17
BRANCH  14  19
ATOM     19  O   LIG     1      13.174  41.208  23.883  0.00  0.00    -0.384 OA
ATOM     20  H   LIG     1      14.115  41.004  23.752  0.00  0.00     0.210 HD
ENDBRANCH  14  19
ENDBRANCH   8   9
ENDBRANCH   7   8
ENDBRANCH   6   7
BRANCH   5  21
ATOM     21  O   LIG     1      10.939  42.887  19.068  0.00  0.00    -0.386 OA
ATOM     22  H   LIG     1      11.229  43.060  18.155  0.00  0.00     0.210 HD
ENDBRANCH   5  21
BRANCH   2  23
ATOM     23  O   LIG     1       6.900  46.316  20.605  0.00  0.00    -0.345 OA
BRANCH  23  24
ATOM     24  C   LIG     1       5.555  46.254  20.157  0.00  0.00     0.190 C 
BRANCH  24  25
ATOM     25  C   LIG     1       4.915  45.027  20.723  0.00  0.00     0.001 C 
ATOM     26  C   LIG     1       4.240  45.016  21.883  0.00  0.00     0.006 C 
BRANCH  26  27
ATOM     27  C   LIG     1       3.581  43.837  22.471  0.00  0.00    -0.025 A 
ATOM     28  C   LIG     1       2.605  43.172  21.746  0.00  0.00     0.008 A 
ATOM     29  C   LIG     1       1.982  42.056  22.304  0.00  0.00     0.001 A 
ATOM     30  C   LIG     1       2.342  41.619  23.578  0.00  0.00     0.000 A 
ATOM     31  C   LIG     1       3.326  42.298  24.296  0.00  0.00     0.001 A 
ATOM     32  C   LIG     1       3.950  43.415  23.739  0.00  0.00     0.008 A 
ENDBRANCH  26  27
ENDBRANCH  24  25
ENDBRANCH  23  24
ENDBRANCH   2  23
BRANCH   4  33
ATOM     33  O   LIG     1      10.293  45.176  17.427  0.00  0.00    -0.386 OA
ATOM     34  H   LIG     1      10.748  45.919  17.859  0.00  0.00     0.210 HD
ENDBRANCH   4  33
BRANCH   3  35
ATOM     35  O   LIG     1       7.496  45.998  17.857  0.00  0.00    -0.384 OA
ATOM     36  H   LIG     1       7.240  46.931  17.955  0.00  0.00     0.210 HD
ENDBRANCH   3  35
TORSDOF 13
ENDMDL
MODEL 9
REMARK VINA RESULT:      -7.2      1.757      2.632
REMARK  13 active torsions:
REMARK  status: ('A' for Active; 'I' for Inactive)
REMARK    1  A    between atoms: C_2  and  O_12 
REMARK    2  A    between atoms: C_3  and  O_10 
REMARK    3  A    between atoms: C_4  and  O_8 
REMARK    4  A    between atoms: C_5  and  O_6 
REMARK    5  A    between atoms: C_22  and  C_23 
REMARK    6  A    between atoms: O_12  and  C_13 
REMARK    7  A    between atoms: C_13  and  C_14 
REMARK    8  A    between atoms: C_15  and  C_16 
REMARK    9  A    between atoms: C_23  and  O_24 
REMARK   10  A    between atoms: O_24  and  C_25 
REMARK   11  A    between atoms: C_26  and  O_34 
REMARK   12  A    between atoms: C_27  and  O_32 
REMARK   13  A    between atoms: C_28  and  O_30 
ROOT
ATOM      1  O   LIG     1       7.045  43.994  20.990  0.00  0.00    -0.341 OA
ATOM      2  C   LIG     1       6.620  43.832  19.639  0.00  0.00     0.282 C 
ATOM      3  C   LIG     1       6.398  45.195  18.981  0.00  0.00     0.201 C 
ATOM      4  C   LIG     1       7.635  46.083  19.110  0.00  0.00     0.179 C 
ATOM      5  C   LIG     1       8.155  46.103  20.547  0.00  0.00     0.177 C 
ATOM      6  C   LIG     1       8.294  44.680  21.094  0.00  0.00     0.178 C 
ENDROOT
BRANCH   6   7
ATOM      7  C   LIG     1       8.700  44.676  22.565  0.00  0.00     0.197 C 
BRANCH   7   8
ATOM      8  O   LIG     1       7.670  44.060  23.315  0.00  0.00    -0.346 OA
BRANCH   8   9
ATOM      9  C   LIG     1       8.078  43.794  24.653  0.00  0.00     0.281 C 
ATOM     10  O   LIG     1       9.382  43.205  24.710  0.00  0.00    -0.346 OA
ATOM     11  C   LIG     1       9.445  41.894  24.152  0.00  0.00     0.197 C 
ATOM     12  C   LIG     1       8.519  40.946  24.903  0.00  0.00     0.171 C 
ATOM     13  C   LIG     1       7.079  41.463  24.873  0.00  0.00     0.178 C 
ATOM     14  C   LIG     1       7.030  42.917  25.355  0.00  0.00     0.201 C 
BRANCH  12  15
ATOM     15  O   LIG     1       8.576  39.645  24.336  0.00  0.00    -0.387 OA
ATOM     16  H   LIG     1       9.509  39.450  24.142  0.00  0.00     0.210 HD
ENDBRANCH  12  15
BRANCH  13  17
ATOM     17  O   LIG     1       6.579  41.385  23.539  0.00  0.00    -0.386 OA
ATOM     18  H   LIG     1       7.222  41.828  22.959  0.00  0.00     0.210 HD
ENDBRANCH  13  17
BRANCH  14  19
ATOM     19  O   LIG     1       7.288  42.958  26.756  0.00  0.00    -0.384 OA
ATOM     20  H   LIG     1       8.086  43.492  26.907  0.00  0.00     0.210 HD
ENDBRANCH  14  19
ENDBRANCH   8   9
ENDBRANCH   7   8
ENDBRANCH   6   7
BRANCH   5  21
ATOM     21  O   LIG     1       9.426  46.747  20.580  0.00  0.00    -0.386 OA
ATOM     22  H   LIG     1       9.647  46.926  21.511  0.00  0.00     0.210 HD
ENDBRANCH   5  21
BRANCH   2  23
ATOM     23  O   LIG     1       5.385  43.120  19.603  0.00  0.00    -0.345 OA
BRANCH  23  24
ATOM     24  C   LIG     1       4.399  43.755  20.401  0.00  0.00     0.190 C 
BRANCH  24  25
ATOM     25  C   LIG     1       3.817  42.748  21.341  0.00  0.00     0.001 C 
ATOM     26  C   LIG     1       3.641  42.977  22.651  0.00  0.00     0.006 C 
BRANCH  26  27
ATOM     27  C   LIG     1       3.060  42.022  23.610  0.00  0.00    -0.025 A 
ATOM     28  C   LIG     1       2.222  41.020  23.148  0.00  0.00     0.008 A 
ATOM     29  C   LIG     1       1.672  40.116  24.056  0.00  0.00     0.001 A 
ATOM     30  C   LIG     1       1.966  40.226  25.415  0.00  0.00     0.000 A 
ATOM     31  C   LIG     1       2.811  41.240  25.866  0.00  0.00     0.001 A 
ATOM     32  C   LIG     1       3.361  42.144  24.957  0.00  0.00     0.008 A 
ENDBRANCH  26  27
ENDBRANCH  24  25
ENDBRANCH  23  24
ENDBRANCH   2  23
BRANCH   4  33
ATOM     33  O   LIG     1       7.298  47.423  18.745  0.00  0.00    -0.386 OA
ATOM     34  H   LIG     1       6.693  47.767  19.423  0.00  0.00     0.210 HD
ENDBRANCH   4  33
BRANCH   3  35
ATOM     35  O   LIG     1       6.109  44.982  17.599  0.00  0.00    -0.384 OA
ATOM     36  H   LIG     1       5.190  45.254  17.439  0.00  0.00     0.210 HD
ENDBRANCH   3  35
TORSDOF 13
ENDMDL
