REMARK VINA RESULT:      -8.4      5.124     10.096
REMARK  21 active torsions:
REMARK  status: ('A' for Active; 'I' for Inactive)
REMARK    1  A    between atoms: C_2  and  O_11 
REMARK    2  A    between atoms: C_3  and  O_7 
REMARK    3  A    between atoms: C_4  and  O_42 
REMARK    4  A    between atoms: C_5  and  O_9 
REMARK    5  A    between atoms: C_6  and  C_26 
REMARK    6  A    between atoms: O_11  and  C_12 
REMARK    7  A    between atoms: C_12  and  C_14 
REMARK    8  A    between atoms: C_16  and  O_20 
REMARK    9  A    between atoms: C_17  and  O_22 
REMARK   10  A    between atoms: C_18  and  O_24 
REMARK   11  A    between atoms: C_26  and  O_27 
REMARK   12  A    between atoms: O_27  and  C_28 
REMARK   13  A    between atoms: C_28  and  C_30 
REMARK   14  A    between atoms: C_32  and  O_36 
REMARK   15  A    between atoms: C_33  and  O_38 
REMARK   16  A    between atoms: C_34  and  O_40 
REMARK   17  A    between atoms: O_42  and  C_43 
REMARK   18  A    between atoms: C_43  and  C_45 
REMARK   19  A    between atoms: C_47  and  O_51 
REMARK   20  A    between atoms: C_48  and  O_53 
REMARK   21  A    between atoms: C_49  and  O_55 
ROOT
ATOM      1  O   UNL     1     180.606 180.777 171.285  0.00  0.00    -0.330 OA
ATOM      2  C   UNL     1     181.216 180.563 172.556  0.00  0.00     0.344 C 
ATOM      3  C   UNL     1     182.503 181.379 172.677  0.00  0.00     0.226 C 
ATOM      4  C   UNL     1     182.254 182.858 172.382  0.00  0.00     0.242 C 
ATOM      5  C   UNL     1     181.457 183.039 171.090  0.00  0.00     0.190 C 
ATOM      6  C   UNL     1     180.219 182.138 171.085  0.00  0.00     0.192 C 
ENDROOT
BRANCH   6   7
ATOM      7  C   UNL     1     179.472 182.214 169.758  0.00  0.00     0.266 C 
BRANCH   7   8
ATOM      8  O   UNL     1     178.371 181.326 169.810  0.00  0.00    -0.458 OA
BRANCH   8   9
ATOM      9  C   UNL     1     178.392 180.285 168.928  0.00  0.00     0.340 C 
ATOM     10  O   UNL     1     179.012 180.254 167.875  0.00  0.00    -0.245 OA
BRANCH   9  11
ATOM     11  C   UNL     1     177.545 179.163 169.407  0.00  0.00     0.066 A 
ATOM     12  C   UNL     1     176.420 179.424 170.189  0.00  0.00     0.064 A 
ATOM     13  C   UNL     1     175.623 178.371 170.637  0.00  0.00     0.163 A 
ATOM     14  C   UNL     1     175.951 177.057 170.304  0.00  0.00     0.201 A 
ATOM     15  C   UNL     1     177.077 176.797 169.523  0.00  0.00     0.163 A 
ATOM     16  C   UNL     1     177.873 177.850 169.074  0.00  0.00     0.064 A 
BRANCH  13  17
ATOM     17  O   UNL     1     174.526 178.638 171.400  0.00  0.00    -0.503 OA
ATOM     18  H   UNL     1     174.275 177.836 171.889  0.00  0.00     0.292 HD
ENDBRANCH  13  17
BRANCH  14  19
ATOM     19  O   UNL     1     175.174 176.027 170.744  0.00  0.00    -0.501 OA
ATOM     20  H   UNL     1     175.543 175.195 170.397  0.00  0.00     0.292 HD
ENDBRANCH  14  19
BRANCH  15  21
ATOM     21  O   UNL     1     177.409 175.518 169.189  0.00  0.00    -0.503 OA
ATOM     22  H   UNL     1     177.203 174.931 169.936  0.00  0.00     0.292 HD
ENDBRANCH  15  21
ENDBRANCH   9  11
ENDBRANCH   8   9
ENDBRANCH   7   8
ENDBRANCH   6   7
BRANCH   5  23
ATOM     23  O   UNL     1     181.050 184.399 170.974  0.00  0.00    -0.385 OA
ATOM     24  H   UNL     1     180.498 184.481 170.178  0.00  0.00     0.210 HD
ENDBRANCH   5  23
BRANCH   4  25
ATOM     25  O   UNL     1     183.505 183.529 172.228  0.00  0.00    -0.452 OA
BRANCH  25  26
ATOM     26  C   UNL     1     183.642 184.693 172.915  0.00  0.00     0.340 C 
ATOM     27  O   UNL     1     182.912 185.668 172.833  0.00  0.00    -0.245 OA
BRANCH  26  28
ATOM     28  C   UNL     1     184.828 184.635 173.806  0.00  0.00     0.066 A 
ATOM     29  C   UNL     1     185.836 183.703 173.566  0.00  0.00     0.064 A 
ATOM     30  C   UNL     1     186.952 183.651 174.402  0.00  0.00     0.163 A 
ATOM     31  C   UNL     1     187.058 184.530 175.479  0.00  0.00     0.201 A 
ATOM     32  C   UNL     1     186.048 185.463 175.720  0.00  0.00     0.163 A 
ATOM     33  C   UNL     1     184.933 185.515 174.883  0.00  0.00     0.064 A 
BRANCH  30  34
ATOM     34  O   UNL     1     187.931 182.736 174.156  0.00  0.00    -0.503 OA
ATOM     35  H   UNL     1     187.579 182.043 173.571  0.00  0.00     0.292 HD
ENDBRANCH  30  34
BRANCH  31  36
ATOM     36  O   UNL     1     188.147 184.478 176.298  0.00  0.00    -0.501 OA
ATOM     37  H   UNL     1     188.735 185.220 176.074  0.00  0.00     0.292 HD
ENDBRANCH  31  36
BRANCH  32  38
ATOM     38  O   UNL     1     186.139 186.328 176.769  0.00  0.00    -0.503 OA
ATOM     39  H   UNL     1     186.228 185.819 177.593  0.00  0.00     0.292 HD
ENDBRANCH  32  38
ENDBRANCH  26  28
ENDBRANCH  25  26
ENDBRANCH   4  25
BRANCH   2  40
ATOM     40  O   UNL     1     181.554 179.184 172.702  0.00  0.00    -0.429 OA
BRANCH  40  41
ATOM     41  C   UNL     1     180.575 178.298 172.384  0.00  0.00     0.342 C 
ATOM     42  O   UNL     1     179.394 178.388 172.684  0.00  0.00    -0.245 OA
BRANCH  41  43
ATOM     43  C   UNL     1     181.130 177.166 171.599  0.00  0.00     0.066 A 
ATOM     44  C   UNL     1     180.292 176.139 171.167  0.00  0.00     0.064 A 
ATOM     45  C   UNL     1     180.816 175.074 170.431  0.00  0.00     0.163 A 
ATOM     46  C   UNL     1     182.176 175.038 170.128  0.00  0.00     0.201 A 
ATOM     47  C   UNL     1     183.014 176.067 170.560  0.00  0.00     0.163 A 
ATOM     48  C   UNL     1     182.492 177.130 171.296  0.00  0.00     0.064 A 
BRANCH  45  49
ATOM     49  O   UNL     1     179.985 174.077 170.016  0.00  0.00    -0.503 OA
ATOM     50  H   UNL     1     180.174 173.272 170.529  0.00  0.00     0.292 HD
ENDBRANCH  45  49
BRANCH  46  51
ATOM     51  O   UNL     1     182.686 173.999 169.409  0.00  0.00    -0.501 OA
ATOM     52  H   UNL     1     183.023 173.331 170.031  0.00  0.00     0.292 HD
ENDBRANCH  46  51
BRANCH  47  53
ATOM     53  O   UNL     1     184.345 176.042 170.271  0.00  0.00    -0.503 OA
ATOM     54  H   UNL     1     184.671 175.129 170.343  0.00  0.00     0.292 HD
ENDBRANCH  47  53
ENDBRANCH  41  43
ENDBRANCH  40  41
ENDBRANCH   2  40
BRANCH   3  55
ATOM     55  O   UNL     1     182.998 181.238 174.008  0.00  0.00    -0.382 OA
ATOM     56  H   UNL     1     183.745 181.850 174.119  0.00  0.00     0.210 HD
ENDBRANCH   3  55
TORSDOF 21
