REMARK VINA RESULT:      -8.2      4.860     10.019
REMARK  21 active torsions:
REMARK  status: ('A' for Active; 'I' for Inactive)
REMARK    1  A    between atoms: C_2  and  O_11 
REMARK    2  A    between atoms: C_3  and  O_7 
REMARK    3  A    between atoms: C_4  and  O_42 
REMARK    4  A    between atoms: C_5  and  O_9 
REMARK    5  A    between atoms: C_6  and  C_26 
REMARK    6  A    between atoms: O_11  and  C_12 
REMARK    7  A    between atoms: C_12  and  C_14 
REMARK    8  A    between atoms: C_16  and  O_20 
REMARK    9  A    between atoms: C_17  and  O_22 
REMARK   10  A    between atoms: C_18  and  O_24 
REMARK   11  A    between atoms: C_26  and  O_27 
REMARK   12  A    between atoms: O_27  and  C_28 
REMARK   13  A    between atoms: C_28  and  C_30 
REMARK   14  A    between atoms: C_32  and  O_36 
REMARK   15  A    between atoms: C_33  and  O_38 
REMARK   16  A    between atoms: C_34  and  O_40 
REMARK   17  A    between atoms: O_42  and  C_43 
REMARK   18  A    between atoms: C_43  and  C_45 
REMARK   19  A    between atoms: C_47  and  O_51 
REMARK   20  A    between atoms: C_48  and  O_53 
REMARK   21  A    between atoms: C_49  and  O_55 
ROOT
ATOM      1  O   UNL     1     180.879 180.426 171.495  0.00  0.00    -0.330 OA
ATOM      2  C   UNL     1     180.601 181.671 170.857  0.00  0.00     0.344 C 
ATOM      3  C   UNL     1     180.967 182.837 171.776  0.00  0.00     0.226 C 
ATOM      4  C   UNL     1     182.414 182.730 172.259  0.00  0.00     0.242 C 
ATOM      5  C   UNL     1     182.718 181.330 172.790  0.00  0.00     0.190 C 
ATOM      6  C   UNL     1     182.267 180.261 171.792  0.00  0.00     0.192 C 
ENDROOT
BRANCH   6   7
ATOM      7  C   UNL     1     182.453 178.854 172.349  0.00  0.00     0.266 C 
BRANCH   7   8
ATOM      8  O   UNL     1     181.253 178.461 172.991  0.00  0.00    -0.458 OA
BRANCH   8   9
ATOM      9  C   UNL     1     180.987 177.123 173.006  0.00  0.00     0.340 C 
ATOM     10  O   UNL     1     180.861 176.432 174.006  0.00  0.00    -0.245 OA
BRANCH   9  11
ATOM     11  C   UNL     1     180.869 176.588 171.626  0.00  0.00     0.066 A 
ATOM     12  C   UNL     1     181.827 175.699 171.138  0.00  0.00     0.064 A 
ATOM     13  C   UNL     1     181.715 175.195 169.844  0.00  0.00     0.163 A 
ATOM     14  C   UNL     1     180.645 175.577 169.036  0.00  0.00     0.201 A 
ATOM     15  C   UNL     1     179.686 176.465 169.524  0.00  0.00     0.163 A 
ATOM     16  C   UNL     1     179.798 176.970 170.819  0.00  0.00     0.064 A 
BRANCH  13  17
ATOM     17  O   UNL     1     182.658 174.328 169.378  0.00  0.00    -0.503 OA
ATOM     18  H   UNL     1     182.215 173.566 168.966  0.00  0.00     0.292 HD
ENDBRANCH  13  17
BRANCH  14  19
ATOM     19  O   UNL     1     180.535 175.085 167.769  0.00  0.00    -0.501 OA
ATOM     20  H   UNL     1     180.515 175.836 167.149  0.00  0.00     0.292 HD
ENDBRANCH  14  19
BRANCH  15  21
ATOM     21  O   UNL     1     178.634 176.847 168.746  0.00  0.00    -0.503 OA
ATOM     22  H   UNL     1     178.718 176.429 167.872  0.00  0.00     0.292 HD
ENDBRANCH  15  21
ENDBRANCH   9  11
ENDBRANCH   8   9
ENDBRANCH   7   8
ENDBRANCH   6   7
BRANCH   5  23
ATOM     23  O   UNL     1     184.120 181.205 173.013  0.00  0.00    -0.385 OA
ATOM     24  H   UNL     1     184.532 180.915 172.181  0.00  0.00     0.210 HD
ENDBRANCH   5  23
BRANCH   4  25
ATOM     25  O   UNL     1     182.629 183.662 173.320  0.00  0.00    -0.452 OA
BRANCH  25  26
ATOM     26  C   UNL     1     183.434 184.717 173.028  0.00  0.00     0.340 C 
ATOM     27  O   UNL     1     183.217 185.580 172.192  0.00  0.00    -0.245 OA
BRANCH  26  28
ATOM     28  C   UNL     1     184.654 184.690 173.874  0.00  0.00     0.066 A 
ATOM     29  C   UNL     1     184.773 185.563 174.954  0.00  0.00     0.064 A 
ATOM     30  C   UNL     1     185.918 185.536 175.751  0.00  0.00     0.163 A 
ATOM     31  C   UNL     1     186.945 184.637 175.465  0.00  0.00     0.201 A 
ATOM     32  C   UNL     1     186.827 183.763 174.383  0.00  0.00     0.163 A 
ATOM     33  C   UNL     1     185.681 183.790 173.587  0.00  0.00     0.064 A 
BRANCH  30  34
ATOM     34  O   UNL     1     186.022 186.394 176.805  0.00  0.00    -0.503 OA
ATOM     35  H   UNL     1     185.233 186.962 176.831  0.00  0.00     0.292 HD
ENDBRANCH  30  34
BRANCH  31  36
ATOM     36  O   UNL     1     188.066 184.611 176.242  0.00  0.00    -0.501 OA
ATOM     37  H   UNL     1     187.941 185.232 176.980  0.00  0.00     0.292 HD
ENDBRANCH  31  36
BRANCH  32  38
ATOM     38  O   UNL     1     187.823 182.880 174.093  0.00  0.00    -0.503 OA
ATOM     39  H   UNL     1     187.546 181.988 174.368  0.00  0.00     0.292 HD
ENDBRANCH  32  38
ENDBRANCH  26  28
ENDBRANCH  25  26
ENDBRANCH   4  25
BRANCH   2  40
ATOM     40  O   UNL     1     179.206 181.762 170.566  0.00  0.00    -0.429 OA
BRANCH  40  41
ATOM     41  C   UNL     1     178.748 180.928 169.596  0.00  0.00     0.342 C 
ATOM     42  O   UNL     1     179.167 180.854 168.451  0.00  0.00    -0.245 OA
BRANCH  41  43
ATOM     43  C   UNL     1     177.638 180.087 170.113  0.00  0.00     0.066 A 
ATOM     44  C   UNL     1     176.599 179.707 169.265  0.00  0.00     0.064 A 
ATOM     45  C   UNL     1     175.555 178.919 169.752  0.00  0.00     0.163 A 
ATOM     46  C   UNL     1     175.552 178.511 171.085  0.00  0.00     0.201 A 
ATOM     47  C   UNL     1     176.593 178.891 171.933  0.00  0.00     0.163 A 
ATOM     48  C   UNL     1     177.636 179.679 171.447  0.00  0.00     0.064 A 
BRANCH  45  49
ATOM     49  O   UNL     1     174.545 178.555 168.913  0.00  0.00    -0.503 OA
ATOM     50  H   UNL     1     174.159 177.719 169.223  0.00  0.00     0.292 HD
ENDBRANCH  45  49
BRANCH  46  51
ATOM     51  O   UNL     1     174.533 177.740 171.559  0.00  0.00    -0.501 OA
ATOM     52  H   UNL     1     174.727 177.511 172.485  0.00  0.00     0.292 HD
ENDBRANCH  46  51
BRANCH  47  53
ATOM     53  O   UNL     1     176.601 178.500 173.238  0.00  0.00    -0.503 OA
ATOM     54  H   UNL     1     177.402 177.975 173.408  0.00  0.00     0.292 HD
ENDBRANCH  47  53
ENDBRANCH  41  43
ENDBRANCH  40  41
ENDBRANCH   2  40
BRANCH   3  55
ATOM     55  O   UNL     1     180.800 184.052 171.044  0.00  0.00    -0.382 OA
ATOM     56  H   UNL     1     181.522 184.655 171.292  0.00  0.00     0.210 HD
ENDBRANCH   3  55
TORSDOF 21
