REMARK VINA RESULT:      -8.2      5.033     10.409
REMARK  21 active torsions:
REMARK  status: ('A' for Active; 'I' for Inactive)
REMARK    1  A    between atoms: C_2  and  O_11 
REMARK    2  A    between atoms: C_3  and  O_7 
REMARK    3  A    between atoms: C_4  and  O_42 
REMARK    4  A    between atoms: C_5  and  O_9 
REMARK    5  A    between atoms: C_6  and  C_26 
REMARK    6  A    between atoms: O_11  and  C_12 
REMARK    7  A    between atoms: C_12  and  C_14 
REMARK    8  A    between atoms: C_16  and  O_20 
REMARK    9  A    between atoms: C_17  and  O_22 
REMARK   10  A    between atoms: C_18  and  O_24 
REMARK   11  A    between atoms: C_26  and  O_27 
REMARK   12  A    between atoms: O_27  and  C_28 
REMARK   13  A    between atoms: C_28  and  C_30 
REMARK   14  A    between atoms: C_32  and  O_36 
REMARK   15  A    between atoms: C_33  and  O_38 
REMARK   16  A    between atoms: C_34  and  O_40 
REMARK   17  A    between atoms: O_42  and  C_43 
REMARK   18  A    between atoms: C_43  and  C_45 
REMARK   19  A    between atoms: C_47  and  O_51 
REMARK   20  A    between atoms: C_48  and  O_53 
REMARK   21  A    between atoms: C_49  and  O_55 
ROOT
ATOM      1  O   UNL     1     180.830 180.292 171.508  0.00  0.00    -0.330 OA
ATOM      2  C   UNL     1     180.546 181.570 170.942  0.00  0.00     0.344 C 
ATOM      3  C   UNL     1     180.926 182.684 171.918  0.00  0.00     0.226 C 
ATOM      4  C   UNL     1     182.379 182.550 172.376  0.00  0.00     0.242 C 
ATOM      5  C   UNL     1     182.688 181.123 172.827  0.00  0.00     0.190 C 
ATOM      6  C   UNL     1     182.221 180.110 171.778  0.00  0.00     0.192 C 
ENDROOT
BRANCH   6   7
ATOM      7  C   UNL     1     182.413 178.674 172.256  0.00  0.00     0.266 C 
BRANCH   7   8
ATOM      8  O   UNL     1     181.195 178.222 172.820  0.00  0.00    -0.458 OA
BRANCH   8   9
ATOM      9  C   UNL     1     180.966 176.878 172.764  0.00  0.00     0.340 C 
ATOM     10  O   UNL     1     181.566 176.024 173.399  0.00  0.00    -0.245 OA
BRANCH   9  11
ATOM     11  C   UNL     1     179.873 176.564 171.809  0.00  0.00     0.066 A 
ATOM     12  C   UNL     1     178.755 175.850 172.240  0.00  0.00     0.064 A 
ATOM     13  C   UNL     1     177.727 175.557 171.345  0.00  0.00     0.163 A 
ATOM     14  C   UNL     1     177.816 175.978 170.019  0.00  0.00     0.201 A 
ATOM     15  C   UNL     1     178.934 176.691 169.587  0.00  0.00     0.163 A 
ATOM     16  C   UNL     1     179.962 176.985 170.483  0.00  0.00     0.064 A 
BRANCH  13  17
ATOM     17  O   UNL     1     176.639 174.859 171.778  0.00  0.00    -0.503 OA
ATOM     18  H   UNL     1     175.831 175.310 171.477  0.00  0.00     0.292 HD
ENDBRANCH  13  17
BRANCH  14  19
ATOM     19  O   UNL     1     176.811 175.690 169.142  0.00  0.00    -0.501 OA
ATOM     20  H   UNL     1     176.294 174.948 169.501  0.00  0.00     0.292 HD
ENDBRANCH  14  19
BRANCH  15  21
ATOM     21  O   UNL     1     179.034 177.109 168.294  0.00  0.00    -0.503 OA
ATOM     22  H   UNL     1     178.254 176.804 167.801  0.00  0.00     0.292 HD
ENDBRANCH  15  21
ENDBRANCH   9  11
ENDBRANCH   8   9
ENDBRANCH   7   8
ENDBRANCH   6   7
BRANCH   5  23
ATOM     23  O   UNL     1     184.091 180.984 173.024  0.00  0.00    -0.385 OA
ATOM     24  H   UNL     1     184.325 181.435 173.854  0.00  0.00     0.210 HD
ENDBRANCH   5  23
BRANCH   4  25
ATOM     25  O   UNL     1     182.609 183.423 173.483  0.00  0.00    -0.452 OA
BRANCH  25  26
ATOM     26  C   UNL     1     183.350 184.531 173.220  0.00  0.00     0.340 C 
ATOM     27  O   UNL     1     183.053 185.430 172.448  0.00  0.00    -0.245 OA
BRANCH  26  28
ATOM     28  C   UNL     1     184.608 184.516 174.008  0.00  0.00     0.066 A 
ATOM     29  C   UNL     1     184.740 185.337 175.127  0.00  0.00     0.064 A 
ATOM     30  C   UNL     1     185.921 185.320 175.870  0.00  0.00     0.163 A 
ATOM     31  C   UNL     1     186.971 184.484 175.491  0.00  0.00     0.201 A 
ATOM     32  C   UNL     1     186.839 183.663 174.370  0.00  0.00     0.163 A 
ATOM     33  C   UNL     1     185.657 183.679 173.629  0.00  0.00     0.064 A 
BRANCH  30  34
ATOM     34  O   UNL     1     186.037 186.127 176.962  0.00  0.00    -0.503 OA
ATOM     35  H   UNL     1     185.227 186.657 177.054  0.00  0.00     0.292 HD
ENDBRANCH  30  34
BRANCH  31  36
ATOM     36  O   UNL     1     188.126 184.469 176.214  0.00  0.00    -0.501 OA
ATOM     37  H   UNL     1     188.010 185.045 176.990  0.00  0.00     0.292 HD
ENDBRANCH  31  36
BRANCH  32  38
ATOM     38  O   UNL     1     187.857 182.841 173.990  0.00  0.00    -0.503 OA
ATOM     39  H   UNL     1     187.632 181.925 174.228  0.00  0.00     0.292 HD
ENDBRANCH  32  38
ENDBRANCH  26  28
ENDBRANCH  25  26
ENDBRANCH   4  25
BRANCH   2  40
ATOM     40  O   UNL     1     179.149 181.678 170.674  0.00  0.00    -0.429 OA
BRANCH  40  41
ATOM     41  C   UNL     1     178.674 180.884 169.679  0.00  0.00     0.342 C 
ATOM     42  O   UNL     1     179.088 180.840 168.531  0.00  0.00    -0.245 OA
BRANCH  41  43
ATOM     43  C   UNL     1     177.551 180.046 170.173  0.00  0.00     0.066 A 
ATOM     44  C   UNL     1     177.528 179.621 171.500  0.00  0.00     0.064 A 
ATOM     45  C   UNL     1     176.474 178.831 171.962  0.00  0.00     0.163 A 
ATOM     46  C   UNL     1     175.443 178.469 171.097  0.00  0.00     0.201 A 
ATOM     47  C   UNL     1     175.466 178.895 169.768  0.00  0.00     0.163 A 
ATOM     48  C   UNL     1     176.519 179.683 169.306  0.00  0.00     0.064 A 
BRANCH  45  49
ATOM     49  O   UNL     1     176.466 178.422 173.262  0.00  0.00    -0.503 OA
ATOM     50  H   UNL     1     175.547 178.278 173.543  0.00  0.00     0.292 HD
ENDBRANCH  45  49
BRANCH  46  51
ATOM     51  O   UNL     1     174.413 177.699 171.548  0.00  0.00    -0.501 OA
ATOM     52  H   UNL     1     173.891 177.404 170.782  0.00  0.00     0.292 HD
ENDBRANCH  46  51
BRANCH  47  53
ATOM     53  O   UNL     1     174.465 178.547 168.912  0.00  0.00    -0.503 OA
ATOM     54  H   UNL     1     174.036 179.353 168.578  0.00  0.00     0.292 HD
ENDBRANCH  47  53
ENDBRANCH  41  43
ENDBRANCH  40  41
ENDBRANCH   2  40
BRANCH   3  55
ATOM     55  O   UNL     1     180.752 183.937 171.255  0.00  0.00    -0.382 OA
ATOM     56  H   UNL     1     181.478 184.525 171.526  0.00  0.00     0.210 HD
ENDBRANCH   3  55
TORSDOF 21
