MODEL 1
REMARK VINA RESULT:      -4.4      0.000      0.000
REMARK  4 active torsions:
REMARK  status: ('A' for Active; 'I' for Inactive)
REMARK    1  A    between atoms: C_2  and  C_12 
REMARK    2  A    between atoms: C_6  and  O_22 
REMARK    3  A    between atoms: C_8  and  O_20 
REMARK    4  A    between atoms: C_15  and  O_18 
ROOT
ATOM      1  O   UNL     1      -1.361   4.007   6.466  0.00  0.00    -0.454 OA
ATOM      2  C   UNL     1      -0.867   3.189   5.461  0.00  0.00     0.139 A 
ATOM      3  C   UNL     1       0.046   2.223   5.652  0.00  0.00     0.098 A 
ATOM      4  C   UNL     1       0.591   1.999   7.007  0.00  0.00     0.197 A 
ATOM      5  C   UNL     1       0.071   2.875   8.069  0.00  0.00     0.105 A 
ATOM      6  C   UNL     1       0.522   2.747   9.384  0.00  0.00     0.135 A 
ATOM      7  C   UNL     1       0.012   3.590  10.372  0.00  0.00     0.091 A 
ATOM      8  C   UNL     1      -0.944   4.554  10.045  0.00  0.00     0.124 A 
ATOM      9  C   UNL     1      -1.391   4.679   8.729  0.00  0.00     0.092 A 
ATOM     10  O   UNL     1       1.425   1.132   7.223  0.00  0.00    -0.287 OA
ATOM     11  C   UNL     1      -0.881   3.837   7.741  0.00  0.00     0.146 A 
ENDROOT
BRANCH   2  12
ATOM     12  C   UNL     1      -1.453   3.453   4.132  0.00  0.00     0.018 A 
ATOM     13  C   UNL     1      -2.112   2.434   3.441  0.00  0.00     0.015 A 
ATOM     14  C   UNL     1      -2.665   2.684   2.185  0.00  0.00     0.046 A 
ATOM     15  C   UNL     1      -2.561   3.953   1.616  0.00  0.00     0.117 A 
ATOM     16  C   UNL     1      -1.902   4.972   2.303  0.00  0.00     0.046 A 
ATOM     17  C   UNL     1      -1.349   4.724   3.559  0.00  0.00     0.015 A 
BRANCH  15  18
ATOM     18  O   UNL     1      -3.099   4.195   0.390  0.00  0.00    -0.507 OA
ATOM     19  H   UNL     1      -3.726   3.483   0.175  0.00  0.00     0.292 HD
ENDBRANCH  15  18
ENDBRANCH   2  12
BRANCH   6  20
ATOM     20  O   UNL     1       1.451   1.822   9.755  0.00  0.00    -0.506 OA
ATOM     21  H   UNL     1       1.465   1.083   9.127  0.00  0.00     0.292 HD
ENDBRANCH   6  20
BRANCH   8  22
ATOM     22  O   UNL     1      -1.439   5.374  11.012  0.00  0.00    -0.507 OA
ATOM     23  H   UNL     1      -2.259   5.786  10.688  0.00  0.00     0.292 HD
ENDBRANCH   8  22
TORSDOF 4
ENDMDL
MODEL 2
REMARK VINA RESULT:      -4.4      1.657      6.694
REMARK  4 active torsions:
REMARK  status: ('A' for Active; 'I' for Inactive)
REMARK    1  A    between atoms: C_2  and  C_12 
REMARK    2  A    between atoms: C_6  and  O_22 
REMARK    3  A    between atoms: C_8  and  O_20 
REMARK    4  A    between atoms: C_15  and  O_18 
ROOT
ATOM      1  O   UNL     1      -1.858   4.486   5.405  0.00  0.00    -0.454 OA
ATOM      2  C   UNL     1      -1.338   3.390   6.077  0.00  0.00     0.139 A 
ATOM      3  C   UNL     1      -1.118   2.192   5.513  0.00  0.00     0.098 A 
ATOM      4  C   UNL     1      -1.456   1.988   4.089  0.00  0.00     0.197 A 
ATOM      5  C   UNL     1      -2.018   3.150   3.383  0.00  0.00     0.105 A 
ATOM      6  C   UNL     1      -2.372   3.064   2.035  0.00  0.00     0.135 A 
ATOM      7  C   UNL     1      -2.901   4.182   1.389  0.00  0.00     0.091 A 
ATOM      8  C   UNL     1      -3.074   5.379   2.088  0.00  0.00     0.124 A 
ATOM      9  C   UNL     1      -2.718   5.461   3.434  0.00  0.00     0.092 A 
ATOM     10  O   UNL     1      -1.276   0.912   3.538  0.00  0.00    -0.287 OA
ATOM     11  C   UNL     1      -2.190   4.343   4.081  0.00  0.00     0.146 A 
ENDROOT
BRANCH   2  12
ATOM     12  C   UNL     1      -1.011   3.654   7.492  0.00  0.00     0.018 A 
ATOM     13  C   UNL     1      -0.022   2.908   8.136  0.00  0.00     0.015 A 
ATOM     14  C   UNL     1       0.286   3.157   9.473  0.00  0.00     0.046 A 
ATOM     15  C   UNL     1      -0.395   4.154  10.172  0.00  0.00     0.117 A 
ATOM     16  C   UNL     1      -1.385   4.901   9.533  0.00  0.00     0.046 A 
ATOM     17  C   UNL     1      -1.692   4.652   8.195  0.00  0.00     0.015 A 
BRANCH  15  18
ATOM     18  O   UNL     1      -0.096   4.396  11.477  0.00  0.00    -0.507 OA
ATOM     19  H   UNL     1      -0.055   3.549  11.953  0.00  0.00     0.292 HD
ENDBRANCH  15  18
ENDBRANCH   2  12
BRANCH   6  20
ATOM     20  O   UNL     1      -2.223   1.921   1.308  0.00  0.00    -0.506 OA
ATOM     21  H   UNL     1      -2.652   1.175   1.756  0.00  0.00     0.292 HD
ENDBRANCH   6  20
BRANCH   8  22
ATOM     22  O   UNL     1      -3.590   6.467   1.453  0.00  0.00    -0.507 OA
ATOM     23  H   UNL     1      -3.499   6.345   0.492  0.00  0.00     0.292 HD
ENDBRANCH   8  22
TORSDOF 4
ENDMDL
MODEL 3
REMARK VINA RESULT:      -4.3      1.417      2.158
REMARK  4 active torsions:
REMARK  status: ('A' for Active; 'I' for Inactive)
REMARK    1  A    between atoms: C_2  and  C_12 
REMARK    2  A    between atoms: C_6  and  O_22 
REMARK    3  A    between atoms: C_8  and  O_20 
REMARK    4  A    between atoms: C_15  and  O_18 
ROOT
ATOM      1  O   UNL     1      -1.506   4.104   7.756  0.00  0.00    -0.454 OA
ATOM      2  C   UNL     1      -0.723   3.127   7.160  0.00  0.00     0.139 A 
ATOM      3  C   UNL     1       0.297   2.501   7.769  0.00  0.00     0.098 A 
ATOM      4  C   UNL     1       0.644   2.863   9.159  0.00  0.00     0.197 A 
ATOM      5  C   UNL     1      -0.183   3.908   9.783  0.00  0.00     0.105 A 
ATOM      6  C   UNL     1       0.062   4.325  11.093  0.00  0.00     0.135 A 
ATOM      7  C   UNL     1      -0.738   5.316  11.661  0.00  0.00     0.091 A 
ATOM      8  C   UNL     1      -1.778   5.886  10.923  0.00  0.00     0.124 A 
ATOM      9  C   UNL     1      -2.020   5.466   9.615  0.00  0.00     0.092 A 
ATOM     10  O   UNL     1       1.567   2.321   9.748  0.00  0.00    -0.287 OA
ATOM     11  C   UNL     1      -1.219   4.475   9.045  0.00  0.00     0.146 A 
ENDROOT
BRANCH   2  12
ATOM     12  C   UNL     1      -1.121   2.800   5.777  0.00  0.00     0.018 A 
ATOM     13  C   UNL     1      -1.158   1.470   5.352  0.00  0.00     0.015 A 
ATOM     14  C   UNL     1      -1.534   1.163   4.045  0.00  0.00     0.046 A 
ATOM     15  C   UNL     1      -1.873   2.184   3.157  0.00  0.00     0.117 A 
ATOM     16  C   UNL     1      -1.835   3.513   3.577  0.00  0.00     0.046 A 
ATOM     17  C   UNL     1      -1.461   3.822   4.885  0.00  0.00     0.015 A 
BRANCH  15  18
ATOM     18  O   UNL     1      -2.238   1.883   1.882  0.00  0.00    -0.507 OA
ATOM     19  H   UNL     1      -3.207   1.812   1.840  0.00  0.00     0.292 HD
ENDBRANCH  15  18
ENDBRANCH   2  12
BRANCH   6  20
ATOM     20  O   UNL     1       1.063   3.800  11.855  0.00  0.00    -0.506 OA
ATOM     21  H   UNL     1       1.652   4.503  12.172  0.00  0.00     0.292 HD
ENDBRANCH   6  20
BRANCH   8  22
ATOM     22  O   UNL     1      -2.558   6.852  11.482  0.00  0.00    -0.507 OA
ATOM     23  H   UNL     1      -1.986   7.569  11.809  0.00  0.00     0.292 HD
ENDBRANCH   8  22
TORSDOF 4
ENDMDL
MODEL 4
REMARK VINA RESULT:      -4.2      1.501      3.274
REMARK  4 active torsions:
REMARK  status: ('A' for Active; 'I' for Inactive)
REMARK    1  A    between atoms: C_2  and  C_12 
REMARK    2  A    between atoms: C_6  and  O_22 
REMARK    3  A    between atoms: C_8  and  O_20 
REMARK    4  A    between atoms: C_15  and  O_18 
ROOT
ATOM      1  O   UNL     1      -0.094   2.866   7.609  0.00  0.00    -0.454 OA
ATOM      2  C   UNL     1      -1.129   3.552   6.993  0.00  0.00     0.139 A 
ATOM      3  C   UNL     1      -1.821   4.550   7.566  0.00  0.00     0.098 A 
ATOM      4  C   UNL     1      -1.494   4.958   8.948  0.00  0.00     0.197 A 
ATOM      5  C   UNL     1      -0.402   4.220   9.601  0.00  0.00     0.105 A 
ATOM      6  C   UNL     1      -0.014   4.526  10.907  0.00  0.00     0.135 A 
ATOM      7  C   UNL     1       1.026   3.811  11.502  0.00  0.00     0.091 A 
ATOM      8  C   UNL     1       1.675   2.797  10.794  0.00  0.00     0.124 A 
ATOM      9  C   UNL     1       1.284   2.495   9.489  0.00  0.00     0.092 A 
ATOM     10  O   UNL     1      -2.102   5.858   9.508  0.00  0.00    -0.287 OA
ATOM     11  C   UNL     1       0.244   3.208   8.894  0.00  0.00     0.146 A 
ENDROOT
BRANCH   2  12
ATOM     12  C   UNL     1      -1.405   3.108   5.612  0.00  0.00     0.018 A 
ATOM     13  C   UNL     1      -1.698   4.045   4.619  0.00  0.00     0.015 A 
ATOM     14  C   UNL     1      -1.959   3.625   3.315  0.00  0.00     0.046 A 
ATOM     15  C   UNL     1      -1.930   2.266   3.000  0.00  0.00     0.117 A 
ATOM     16  C   UNL     1      -1.639   1.328   3.990  0.00  0.00     0.046 A 
ATOM     17  C   UNL     1      -1.377   1.747   5.294  0.00  0.00     0.015 A 
BRANCH  15  18
ATOM     18  O   UNL     1      -2.186   1.857   1.728  0.00  0.00    -0.507 OA
ATOM     19  H   UNL     1      -1.370   1.929   1.203  0.00  0.00     0.292 HD
ENDBRANCH  15  18
ENDBRANCH   2  12
BRANCH   6  20
ATOM     20  O   UNL     1      -0.614   5.506  11.641  0.00  0.00    -0.506 OA
ATOM     21  H   UNL     1      -0.820   5.185  12.532  0.00  0.00     0.292 HD
ENDBRANCH   6  20
BRANCH   8  22
ATOM     22  O   UNL     1       2.690   2.103  11.379  0.00  0.00    -0.507 OA
ATOM     23  H   UNL     1       3.126   2.674  12.034  0.00  0.00     0.292 HD
ENDBRANCH   8  22
TORSDOF 4
ENDMDL
MODEL 5
REMARK VINA RESULT:      -4.2      1.746      6.804
REMARK  4 active torsions:
REMARK  status: ('A' for Active; 'I' for Inactive)
REMARK    1  A    between atoms: C_2  and  C_12 
REMARK    2  A    between atoms: C_6  and  O_22 
REMARK    3  A    between atoms: C_8  and  O_20 
REMARK    4  A    between atoms: C_15  and  O_18 
ROOT
ATOM      1  O   UNL     1      -2.045   4.552   4.924  0.00  0.00    -0.454 OA
ATOM      2  C   UNL     1      -1.468   3.291   4.949  0.00  0.00     0.139 A 
ATOM      3  C   UNL     1      -1.524   2.413   3.935  0.00  0.00     0.098 A 
ATOM      4  C   UNL     1      -2.252   2.776   2.702  0.00  0.00     0.197 A 
ATOM      5  C   UNL     1      -2.872   4.110   2.683  0.00  0.00     0.105 A 
ATOM      6  C   UNL     1      -3.585   4.551   1.566  0.00  0.00     0.135 A 
ATOM      7  C   UNL     1      -4.162   5.821   1.574  0.00  0.00     0.091 A 
ATOM      8  C   UNL     1      -4.025   6.646   2.693  0.00  0.00     0.124 A 
ATOM      9  C   UNL     1      -3.311   6.202   3.806  0.00  0.00     0.092 A 
ATOM     10  O   UNL     1      -2.330   2.005   1.757  0.00  0.00    -0.287 OA
ATOM     11  C   UNL     1      -2.735   4.932   3.800  0.00  0.00     0.146 A 
ENDROOT
BRANCH   2  12
ATOM     12  C   UNL     1      -0.746   2.988   6.201  0.00  0.00     0.018 A 
ATOM     13  C   UNL     1      -0.973   3.755   7.346  0.00  0.00     0.015 A 
ATOM     14  C   UNL     1      -0.291   3.468   8.528  0.00  0.00     0.046 A 
ATOM     15  C   UNL     1       0.621   2.413   8.569  0.00  0.00     0.117 A 
ATOM     16  C   UNL     1       0.850   1.645   7.428  0.00  0.00     0.046 A 
ATOM     17  C   UNL     1       0.168   1.932   6.245  0.00  0.00     0.015 A 
BRANCH  15  18
ATOM     18  O   UNL     1       1.286   2.134   9.723  0.00  0.00    -0.507 OA
ATOM     19  H   UNL     1       1.005   2.764  10.409  0.00  0.00     0.292 HD
ENDBRANCH  15  18
ENDBRANCH   2  12
BRANCH   6  20
ATOM     20  O   UNL     1      -3.747   3.786   0.450  0.00  0.00    -0.506 OA
ATOM     21  H   UNL     1      -4.445   4.153  -0.115  0.00  0.00     0.292 HD
ENDBRANCH   6  20
BRANCH   8  22
ATOM     22  O   UNL     1      -4.588   7.885   2.696  0.00  0.00    -0.507 OA
ATOM     23  H   UNL     1      -4.868   8.107   1.791  0.00  0.00     0.292 HD
ENDBRANCH   8  22
TORSDOF 4
ENDMDL
MODEL 6
REMARK VINA RESULT:      -4.1      9.679     12.570
REMARK  4 active torsions:
REMARK  status: ('A' for Active; 'I' for Inactive)
REMARK    1  A    between atoms: C_2  and  C_12 
REMARK    2  A    between atoms: C_6  and  O_22 
REMARK    3  A    between atoms: C_8  and  O_20 
REMARK    4  A    between atoms: C_15  and  O_18 
ROOT
ATOM      1  O   UNL     1      -1.677  -7.649   8.088  0.00  0.00    -0.454 OA
ATOM      2  C   UNL     1      -1.948  -6.500   8.814  0.00  0.00     0.139 A 
ATOM      3  C   UNL     1      -2.051  -5.273   8.278  0.00  0.00     0.098 A 
ATOM      4  C   UNL     1      -1.853  -5.099   6.825  0.00  0.00     0.197 A 
ATOM      5  C   UNL     1      -1.556  -6.319   6.059  0.00  0.00     0.105 A 
ATOM      6  C   UNL     1      -1.350  -6.264   4.679  0.00  0.00     0.135 A 
ATOM      7  C   UNL     1      -1.071  -7.437   3.977  0.00  0.00     0.091 A 
ATOM      8  C   UNL     1      -0.999  -8.657   4.652  0.00  0.00     0.124 A 
ATOM      9  C   UNL     1      -1.205  -8.708   6.031  0.00  0.00     0.092 A 
ATOM     10  O   UNL     1      -1.934  -3.999   6.298  0.00  0.00    -0.287 OA
ATOM     11  C   UNL     1      -1.483  -7.536   6.734  0.00  0.00     0.146 A 
ENDROOT
BRANCH   2  12
ATOM     12  C   UNL     1      -2.145  -6.736  10.258  0.00  0.00     0.018 A 
ATOM     13  C   UNL     1      -1.332  -7.646  10.938  0.00  0.00     0.015 A 
ATOM     14  C   UNL     1      -1.519  -7.869  12.302  0.00  0.00     0.046 A 
ATOM     15  C   UNL     1      -2.519  -7.184  12.991  0.00  0.00     0.117 A 
ATOM     16  C   UNL     1      -3.333  -6.275  12.316  0.00  0.00     0.046 A 
ATOM     17  C   UNL     1      -3.147  -6.051  10.951  0.00  0.00     0.015 A 
BRANCH  15  18
ATOM     18  O   UNL     1      -2.701  -7.402  14.322  0.00  0.00    -0.507 OA
ATOM     19  H   UNL     1      -3.543  -7.873  14.451  0.00  0.00     0.292 HD
ENDBRANCH  15  18
ENDBRANCH   2  12
BRANCH   6  20
ATOM     20  O   UNL     1      -1.411  -5.100   3.973  0.00  0.00    -0.506 OA
ATOM     21  H   UNL     1      -1.967  -4.452   4.433  0.00  0.00     0.292 HD
ENDBRANCH   6  20
BRANCH   8  22
ATOM     22  O   UNL     1      -0.727  -9.800   3.962  0.00  0.00    -0.507 OA
ATOM     23  H   UNL     1      -1.243 -10.530   4.346  0.00  0.00     0.292 HD
ENDBRANCH   8  22
TORSDOF 4
ENDMDL
MODEL 7
REMARK VINA RESULT:      -4.1      1.729      7.256
REMARK  4 active torsions:
REMARK  status: ('A' for Active; 'I' for Inactive)
REMARK    1  A    between atoms: C_2  and  C_12 
REMARK    2  A    between atoms: C_6  and  O_22 
REMARK    3  A    between atoms: C_8  and  O_20 
REMARK    4  A    between atoms: C_15  and  O_18 
ROOT
ATOM      1  O   UNL     1      -1.637   3.036   4.396  0.00  0.00    -0.454 OA
ATOM      2  C   UNL     1      -1.464   3.909   5.459  0.00  0.00     0.139 A 
ATOM      3  C   UNL     1      -1.961   5.156   5.502  0.00  0.00     0.098 A 
ATOM      4  C   UNL     1      -2.736   5.667   4.352  0.00  0.00     0.197 A 
ATOM      5  C   UNL     1      -2.909   4.740   3.223  0.00  0.00     0.105 A 
ATOM      6  C   UNL     1      -3.624   5.126   2.086  0.00  0.00     0.135 A 
ATOM      7  C   UNL     1      -3.774   4.227   1.030  0.00  0.00     0.091 A 
ATOM      8  C   UNL     1      -3.213   2.950   1.111  0.00  0.00     0.124 A 
ATOM      9  C   UNL     1      -2.500   2.570   2.248  0.00  0.00     0.092 A 
ATOM     10  O   UNL     1      -3.202   6.797   4.350  0.00  0.00    -0.287 OA
ATOM     11  C   UNL     1      -2.348   3.468   3.304  0.00  0.00     0.146 A 
ENDROOT
BRANCH   2  12
ATOM     12  C   UNL     1      -0.690   3.342   6.580  0.00  0.00     0.018 A 
ATOM     13  C   UNL     1      -0.764   3.921   7.849  0.00  0.00     0.015 A 
ATOM     14  C   UNL     1      -0.033   3.385   8.908  0.00  0.00     0.046 A 
ATOM     15  C   UNL     1       0.776   2.267   8.703  0.00  0.00     0.117 A 
ATOM     16  C   UNL     1       0.853   1.686   7.437  0.00  0.00     0.046 A 
ATOM     17  C   UNL     1       0.121   2.222   6.378  0.00  0.00     0.015 A 
BRANCH  15  18
ATOM     18  O   UNL     1       1.490   1.745   9.736  0.00  0.00    -0.507 OA
ATOM     19  H   UNL     1       1.511   0.777   9.647  0.00  0.00     0.292 HD
ENDBRANCH  15  18
ENDBRANCH   2  12
BRANCH   6  20
ATOM     20  O   UNL     1      -4.191   6.358   1.959  0.00  0.00    -0.506 OA
ATOM     21  H   UNL     1      -3.880   6.950   2.661  0.00  0.00     0.292 HD
ENDBRANCH   6  20
BRANCH   8  22
ATOM     22  O   UNL     1      -3.363   2.076   0.077  0.00  0.00    -0.507 OA
ATOM     23  H   UNL     1      -2.646   2.221  -0.565  0.00  0.00     0.292 HD
ENDBRANCH   8  22
TORSDOF 4
ENDMDL
MODEL 8
REMARK VINA RESULT:      -4.0      2.039      7.286
REMARK  4 active torsions:
REMARK  status: ('A' for Active; 'I' for Inactive)
REMARK    1  A    between atoms: C_2  and  C_12 
REMARK    2  A    between atoms: C_6  and  O_22 
REMARK    3  A    between atoms: C_8  and  O_20 
REMARK    4  A    between atoms: C_15  and  O_18 
ROOT
ATOM      1  O   UNL     1      -0.376   2.736   7.672  0.00  0.00    -0.454 OA
ATOM      2  C   UNL     1      -0.401   3.792   8.570  0.00  0.00     0.139 A 
ATOM      3  C   UNL     1      -0.879   5.014   8.287  0.00  0.00     0.098 A 
ATOM      4  C   UNL     1      -1.407   5.290   6.935  0.00  0.00     0.197 A 
ATOM      5  C   UNL     1      -1.369   4.170   5.982  0.00  0.00     0.105 A 
ATOM      6  C   UNL     1      -1.843   4.326   4.678  0.00  0.00     0.135 A 
ATOM      7  C   UNL     1      -1.797   3.247   3.795  0.00  0.00     0.091 A 
ATOM      8  C   UNL     1      -1.281   2.019   4.215  0.00  0.00     0.124 A 
ATOM      9  C   UNL     1      -0.809   1.868   5.519  0.00  0.00     0.092 A 
ATOM     10  O   UNL     1      -1.847   6.390   6.635  0.00  0.00    -0.287 OA
ATOM     11  C   UNL     1      -0.854   2.946   6.403  0.00  0.00     0.146 A 
ENDROOT
BRANCH   2  12
ATOM     12  C   UNL     1       0.130   3.455   9.906  0.00  0.00     0.018 A 
ATOM     13  C   UNL     1      -0.612   3.749  11.051  0.00  0.00     0.015 A 
ATOM     14  C   UNL     1      -0.109   3.431  12.313  0.00  0.00     0.046 A 
ATOM     15  C   UNL     1       1.138   2.818  12.433  0.00  0.00     0.117 A 
ATOM     16  C   UNL     1       1.883   2.524  11.291  0.00  0.00     0.046 A 
ATOM     17  C   UNL     1       1.380   2.841  10.029  0.00  0.00     0.015 A 
BRANCH  15  18
ATOM     18  O   UNL     1       1.629   2.510  13.664  0.00  0.00    -0.507 OA
ATOM     19  H   UNL     1       2.541   2.841  13.731  0.00  0.00     0.292 HD
ENDBRANCH  15  18
ENDBRANCH   2  12
BRANCH   6  20
ATOM     20  O   UNL     1      -2.357   5.502   4.219  0.00  0.00    -0.506 OA
ATOM     21  H   UNL     1      -2.076   5.661   3.304  0.00  0.00     0.292 HD
ENDBRANCH   6  20
BRANCH   8  22
ATOM     22  O   UNL     1      -1.239   0.968   3.350  0.00  0.00    -0.507 OA
ATOM     23  H   UNL     1      -1.787   0.246   3.704  0.00  0.00     0.292 HD
ENDBRANCH   8  22
TORSDOF 4
ENDMDL
MODEL 9
REMARK VINA RESULT:      -4.0      9.094      9.857
REMARK  4 active torsions:
REMARK  status: ('A' for Active; 'I' for Inactive)
REMARK    1  A    between atoms: C_2  and  C_12 
REMARK    2  A    between atoms: C_6  and  O_22 
REMARK    3  A    between atoms: C_8  and  O_20 
REMARK    4  A    between atoms: C_15  and  O_18 
ROOT
ATOM      1  O   UNL     1      -3.851  -4.513   9.225  0.00  0.00    -0.454 OA
ATOM      2  C   UNL     1      -2.733  -5.322   9.357  0.00  0.00     0.139 A 
ATOM      3  C   UNL     1      -2.164  -5.640  10.530  0.00  0.00     0.098 A 
ATOM      4  C   UNL     1      -2.731  -5.096  11.781  0.00  0.00     0.197 A 
ATOM      5  C   UNL     1      -3.911  -4.229  11.636  0.00  0.00     0.105 A 
ATOM      6  C   UNL     1      -4.523  -3.662  12.756  0.00  0.00     0.135 A 
ATOM      7  C   UNL     1      -5.642  -2.845  12.590  0.00  0.00     0.091 A 
ATOM      8  C   UNL     1      -6.145  -2.597  11.311  0.00  0.00     0.124 A 
ATOM      9  C   UNL     1      -5.530  -3.166  10.195  0.00  0.00     0.092 A 
ATOM     10  O   UNL     1      -2.241  -5.357  12.870  0.00  0.00    -0.287 OA
ATOM     11  C   UNL     1      -4.411  -3.982  10.360  0.00  0.00     0.146 A 
ENDROOT
BRANCH   2  12
ATOM     12  C   UNL     1      -2.216  -5.843   8.076  0.00  0.00     0.018 A 
ATOM     13  C   UNL     1      -2.131  -7.221   7.861  0.00  0.00     0.015 A 
ATOM     14  C   UNL     1      -1.641  -7.712   6.651  0.00  0.00     0.046 A 
ATOM     15  C   UNL     1      -1.235  -6.828   5.652  0.00  0.00     0.117 A 
ATOM     16  C   UNL     1      -1.318  -5.452   5.863  0.00  0.00     0.046 A 
ATOM     17  C   UNL     1      -1.808  -4.960   7.073  0.00  0.00     0.015 A 
BRANCH  15  18
ATOM     18  O   UNL     1      -0.757  -7.308   4.472  0.00  0.00    -0.507 OA
ATOM     19  H   UNL     1      -0.454  -6.561   3.927  0.00  0.00     0.292 HD
ENDBRANCH  15  18
ENDBRANCH   2  12
BRANCH   6  20
ATOM     20  O   UNL     1      -4.073  -3.873  14.025  0.00  0.00    -0.506 OA
ATOM     21  H   UNL     1      -3.276  -3.347  14.194  0.00  0.00     0.292 HD
ENDBRANCH   6  20
BRANCH   8  22
ATOM     22  O   UNL     1      -7.237  -1.800  11.153  0.00  0.00    -0.507 OA
ATOM     23  H   UNL     1      -7.723  -2.083  10.359  0.00  0.00     0.292 HD
ENDBRANCH   8  22
TORSDOF 4
ENDMDL
MODEL 10
REMARK VINA RESULT:      -3.9      9.995     11.428
REMARK  4 active torsions:
REMARK  status: ('A' for Active; 'I' for Inactive)
REMARK    1  A    between atoms: C_2  and  C_12 
REMARK    2  A    between atoms: C_6  and  O_22 
REMARK    3  A    between atoms: C_8  and  O_20 
REMARK    4  A    between atoms: C_15  and  O_18 
ROOT
ATOM      1  O   UNL     1      -1.112  -8.012   7.065  0.00  0.00    -0.454 OA
ATOM      2  C   UNL     1      -0.877  -7.280   5.911  0.00  0.00     0.139 A 
ATOM      3  C   UNL     1      -1.231  -5.995   5.746  0.00  0.00     0.098 A 
ATOM      4  C   UNL     1      -1.932  -5.291   6.839  0.00  0.00     0.197 A 
ATOM      5  C   UNL     1      -2.189  -6.075   8.057  0.00  0.00     0.105 A 
ATOM      6  C   UNL     1      -2.846  -5.503   9.149  0.00  0.00     0.135 A 
ATOM      7  C   UNL     1      -3.075  -6.269  10.292  0.00  0.00     0.091 A 
ATOM      8  C   UNL     1      -2.648  -7.598  10.343  0.00  0.00     0.124 A 
ATOM      9  C   UNL     1      -1.991  -8.164   9.250  0.00  0.00     0.092 A 
ATOM     10  O   UNL     1      -2.276  -4.123   6.727  0.00  0.00    -0.287 OA
ATOM     11  C   UNL     1      -1.763  -7.400   8.106  0.00  0.00     0.146 A 
ENDROOT
BRANCH   2  12
ATOM     12  C   UNL     1      -0.166  -8.032   4.858  0.00  0.00     0.018 A 
ATOM     13  C   UNL     1       0.880  -8.893   5.194  0.00  0.00     0.015 A 
ATOM     14  C   UNL     1       1.551  -9.603   4.199  0.00  0.00     0.046 A 
ATOM     15  C   UNL     1       1.178  -9.453   2.863  0.00  0.00     0.117 A 
ATOM     16  C   UNL     1       0.134  -8.593   2.523  0.00  0.00     0.046 A 
ATOM     17  C   UNL     1      -0.538  -7.884   3.518  0.00  0.00     0.015 A 
BRANCH  15  18
ATOM     18  O   UNL     1       1.834 -10.145   1.892  0.00  0.00    -0.507 OA
ATOM     19  H   UNL     1       1.258 -10.862   1.573  0.00  0.00     0.292 HD
ENDBRANCH  15  18
ENDBRANCH   2  12
BRANCH   6  20
ATOM     20  O   UNL     1      -3.282  -4.212   9.150  0.00  0.00    -0.506 OA
ATOM     21  H   UNL     1      -3.817  -4.035   9.939  0.00  0.00     0.292 HD
ENDBRANCH   6  20
BRANCH   8  22
ATOM     22  O   UNL     1      -2.873  -8.341  11.462  0.00  0.00    -0.507 OA
ATOM     23  H   UNL     1      -2.672  -7.800  12.245  0.00  0.00     0.292 HD
ENDBRANCH   8  22
TORSDOF 4
ENDMDL
