REMARK VINA RESULT:      -8.9      3.014      9.801
REMARK  13 active torsions:
REMARK  status: ('A' for Active; 'I' for Inactive)
REMARK    1  A    between atoms: C_4  and  O_5 
REMARK    2  A    between atoms: C_17  and  O_18 
REMARK    3  A    between atoms: C_30  and  O_31 
REMARK    4  A    between atoms: C_43  and  C_44 
REMARK    5  A    between atoms: O_5  and  C_6 
REMARK    6  A    between atoms: C_6  and  C_8 
REMARK    7  A    between atoms: O_18  and  C_19 
REMARK    8  A    between atoms: C_19  and  C_21 
REMARK    9  A    between atoms: O_31  and  C_32 
REMARK   10  A    between atoms: C_32  and  C_34 
REMARK   11  A    between atoms: C_44  and  O_45 
REMARK   12  A    between atoms: O_45  and  C_46 
REMARK   13  A    between atoms: C_46  and  C_48 
ROOT
ATOM      1  O   LIG     1     179.436 176.388 168.308  0.00  0.00    -0.320 OA
ATOM      2  C   LIG     1     178.821 177.674 168.525  0.00  0.00     0.313 C 
ATOM      3  O   LIG     1     179.387 178.556 167.564  0.00  0.00    -0.186 OA
ATOM      4  C   LIG     1     177.275 177.596 168.368  0.00  0.00     0.271 C 
ATOM      5  C   LIG     1     176.720 176.495 169.321  0.00  0.00     0.256 C 
ATOM      6  C   LIG     1     177.469 175.144 169.121  0.00  0.00     0.243 C 
ATOM      7  C   LIG     1     179.014 175.355 169.226  0.00  0.00     0.205 C 
ENDROOT
BRANCH   7   8
ATOM      8  C   LIG     1     179.809 174.065 168.896  0.00  0.00     0.242 C 
BRANCH   8   9
ATOM      9  O   LIG     1     180.543 173.573 170.031  0.00  0.00    -0.443 OA
BRANCH   9  10
ATOM     10  C   LIG     1     181.848 173.872 170.343  0.00  0.00     0.341 C 
ATOM     11  O   LIG     1     182.728 172.996 170.154  0.00  0.00    -0.245 OA
BRANCH  10  12
ATOM     12  C   LIG     1     182.204 175.154 170.853  0.00  0.00     0.082 A 
ATOM     13  C   LIG     1     181.479 175.732 171.924  0.00  0.00     0.052 A 
ATOM     14  C   LIG     1     181.802 177.011 172.418  0.00  0.00     0.238 A 
ATOM     15  O   LIG     1     181.053 177.524 173.427  0.00  0.00    -0.283 OA
ATOM     16  C   LIG     1     182.881 177.732 171.864  0.00  0.00     0.273 A 
ATOM     17  O   LIG     1     183.193 178.960 172.358  0.00  0.00    -0.280 OA
ATOM     18  C   LIG     1     183.621 177.171 170.803  0.00  0.00     0.238 A 
ATOM     19  O   LIG     1     184.658 177.861 170.263  0.00  0.00    -0.283 OA
ATOM     20  C   LIG     1     183.280 175.898 170.304  0.00  0.00     0.052 A 
ENDBRANCH  10  12
ENDBRANCH   9  10
ENDBRANCH   8   9
ENDBRANCH   7   8
BRANCH   6  21
ATOM     21  O   LIG     1     177.037 174.214 170.133  0.00  0.00    -0.443 OA
BRANCH  21  22
ATOM     22  C   LIG     1     176.450 172.984 170.007  0.00  0.00     0.341 C 
ATOM     23  O   LIG     1     176.183 172.665 168.826  0.00  0.00    -0.245 OA
BRANCH  22  24
ATOM     24  C   LIG     1     176.077 172.115 171.066  0.00  0.00     0.082 A 
ATOM     25  C   LIG     1     176.576 172.299 172.375  0.00  0.00     0.052 A 
ATOM     26  C   LIG     1     176.172 171.469 173.439  0.00  0.00     0.238 A 
ATOM     27  C   LIG     1     175.235 170.446 173.204  0.00  0.00     0.273 A 
ATOM     28  O   LIG     1     176.674 171.651 174.689  0.00  0.00    -0.283 OA
ATOM     29  C   LIG     1     174.733 170.236 171.904  0.00  0.00     0.238 A 
ATOM     30  O   LIG     1     174.816 169.671 174.232  0.00  0.00    -0.280 OA
ATOM     31  O   LIG     1     173.848 169.235 171.672  0.00  0.00    -0.283 OA
ATOM     32  C   LIG     1     175.154 171.065 170.844  0.00  0.00     0.052 A 
ENDBRANCH  22  24
ENDBRANCH  21  22
ENDBRANCH   6  21
BRANCH   5  33
ATOM     33  O   LIG     1     175.320 176.252 169.097  0.00  0.00    -0.441 OA
BRANCH  33  34
ATOM     34  C   LIG     1     174.370 175.993 170.041  0.00  0.00     0.342 C 
ATOM     35  O   LIG     1     174.536 176.576 171.136  0.00  0.00    -0.245 OA
BRANCH  34  36
ATOM     36  C   LIG     1     173.194 175.233 169.794  0.00  0.00     0.082 A 
ATOM     37  C   LIG     1     172.959 174.047 170.608  0.00  0.00     0.052 A 
ATOM     38  C   LIG     1     171.752 173.339 170.430  0.00  0.00     0.238 A 
ATOM     39  O   LIG     1     171.516 172.246 171.197  0.00  0.00    -0.283 OA
ATOM     40  C   LIG     1     170.777 173.739 169.487  0.00  0.00     0.273 A 
ATOM     41  O   LIG     1     169.627 173.025 169.372  0.00  0.00    -0.280 OA
ATOM     42  C   LIG     1     171.056 174.904 168.665  0.00  0.00     0.238 A 
ATOM     43  C   LIG     1     172.281 175.713 168.773  0.00  0.00     0.052 A 
ATOM     44  O   LIG     1     170.034 175.183 167.752  0.00  0.00    -0.283 OA
ENDBRANCH  34  36
ENDBRANCH  33  34
ENDBRANCH   5  33
BRANCH   4  45
ATOM     45  O   LIG     1     176.636 178.849 168.680  0.00  0.00    -0.440 OA
BRANCH  45  46
ATOM     46  C   LIG     1     176.693 179.539 169.859  0.00  0.00     0.342 C 
ATOM     47  O   LIG     1     175.673 179.439 170.578  0.00  0.00    -0.245 OA
BRANCH  46  48
ATOM     48  C   LIG     1     177.760 180.407 170.228  0.00  0.00     0.082 A 
ATOM     49  C   LIG     1     178.032 181.590 169.502  0.00  0.00     0.052 A 
ATOM     50  C   LIG     1     179.067 182.467 169.883  0.00  0.00     0.238 A 
ATOM     51  O   LIG     1     179.293 183.596 169.165  0.00  0.00    -0.283 OA
ATOM     52  C   LIG     1     179.859 182.172 171.013  0.00  0.00     0.273 A 
ATOM     53  O   LIG     1     180.841 183.016 171.425  0.00  0.00    -0.280 OA
ATOM     54  C   LIG     1     179.621 180.987 171.737  0.00  0.00     0.238 A 
ATOM     55  O   LIG     1     180.385 180.660 172.812  0.00  0.00    -0.283 OA
ATOM     56  C   LIG     1     178.578 180.123 171.352  0.00  0.00     0.052 A 
ENDBRANCH  46  48
ENDBRANCH  45  46
ENDBRANCH   4  45
TORSDOF 13
