REMARK VINA RESULT:      -9.0      0.798      8.721
REMARK  13 active torsions:
REMARK  status: ('A' for Active; 'I' for Inactive)
REMARK    1  A    between atoms: C_4  and  O_5 
REMARK    2  A    between atoms: C_17  and  O_18 
REMARK    3  A    between atoms: C_30  and  O_31 
REMARK    4  A    between atoms: C_43  and  C_44 
REMARK    5  A    between atoms: O_5  and  C_6 
REMARK    6  A    between atoms: C_6  and  C_8 
REMARK    7  A    between atoms: O_18  and  C_19 
REMARK    8  A    between atoms: C_19  and  C_21 
REMARK    9  A    between atoms: O_31  and  C_32 
REMARK   10  A    between atoms: C_32  and  C_34 
REMARK   11  A    between atoms: C_44  and  O_45 
REMARK   12  A    between atoms: O_45  and  C_46 
REMARK   13  A    between atoms: C_46  and  C_48 
ROOT
ATOM      1  O   LIG     1     173.009 171.578 173.054  0.00  0.00    -0.320 OA
ATOM      2  C   LIG     1     172.586 171.840 171.701  0.00  0.00     0.313 C 
ATOM      3  O   LIG     1     171.211 172.197 171.773  0.00  0.00    -0.186 OA
ATOM      4  C   LIG     1     173.425 172.982 171.057  0.00  0.00     0.271 C 
ATOM      5  C   LIG     1     174.938 172.622 171.155  0.00  0.00     0.256 C 
ATOM      6  C   LIG     1     175.338 172.258 172.616  0.00  0.00     0.243 C 
ATOM      7  C   LIG     1     174.385 171.157 173.185  0.00  0.00     0.205 C 
ENDROOT
BRANCH   7   8
ATOM      8  C   LIG     1     174.657 170.860 174.683  0.00  0.00     0.242 C 
BRANCH   8   9
ATOM      9  O   LIG     1     174.953 169.472 174.917  0.00  0.00    -0.443 OA
BRANCH   9  10
ATOM     10  C   LIG     1     176.132 168.968 175.411  0.00  0.00     0.341 C 
ATOM     11  O   LIG     1     176.917 168.387 174.621  0.00  0.00    -0.245 OA
BRANCH  10  12
ATOM     12  C   LIG     1     176.472 169.114 176.787  0.00  0.00     0.082 A 
ATOM     13  C   LIG     1     177.740 168.705 177.266  0.00  0.00     0.052 A 
ATOM     14  C   LIG     1     178.077 168.816 178.628  0.00  0.00     0.238 A 
ATOM     15  O   LIG     1     179.299 168.381 179.032  0.00  0.00    -0.283 OA
ATOM     16  C   LIG     1     177.155 169.366 179.544  0.00  0.00     0.273 A 
ATOM     17  O   LIG     1     177.496 169.482 180.855  0.00  0.00    -0.280 OA
ATOM     18  C   LIG     1     175.889 169.787 179.087  0.00  0.00     0.238 A 
ATOM     19  O   LIG     1     174.995 170.313 179.962  0.00  0.00    -0.283 OA
ATOM     20  C   LIG     1     175.554 169.656 177.723  0.00  0.00     0.052 A 
ENDBRANCH  10  12
ENDBRANCH   9  10
ENDBRANCH   8   9
ENDBRANCH   7   8
BRANCH   6  21
ATOM     21  O   LIG     1     176.695 171.774 172.624  0.00  0.00    -0.443 OA
BRANCH  21  22
ATOM     22  C   LIG     1     177.789 172.228 173.308  0.00  0.00     0.341 C 
ATOM     23  O   LIG     1     178.269 171.398 174.113  0.00  0.00    -0.245 OA
BRANCH  22  24
ATOM     24  C   LIG     1     178.353 173.530 173.230  0.00  0.00     0.082 A 
ATOM     25  C   LIG     1     179.695 173.724 172.836  0.00  0.00     0.052 A 
ATOM     26  C   LIG     1     180.245 175.015 172.711  0.00  0.00     0.238 A 
ATOM     27  C   LIG     1     179.439 176.140 172.963  0.00  0.00     0.273 A 
ATOM     28  O   LIG     1     181.544 175.183 172.344  0.00  0.00    -0.283 OA
ATOM     29  C   LIG     1     178.100 175.970 173.370  0.00  0.00     0.238 A 
ATOM     30  O   LIG     1     179.953 177.383 172.807  0.00  0.00    -0.280 OA
ATOM     31  O   LIG     1     177.329 177.054 173.636  0.00  0.00    -0.283 OA
ATOM     32  C   LIG     1     177.564 174.673 173.504  0.00  0.00     0.052 A 
ENDBRANCH  22  24
ENDBRANCH  21  22
ENDBRANCH   6  21
BRANCH   5  33
ATOM     33  O   LIG     1     175.774 173.715 170.737  0.00  0.00    -0.441 OA
BRANCH  33  34
ATOM     34  C   LIG     1     176.622 173.738 169.669  0.00  0.00     0.342 C 
ATOM     35  O   LIG     1     176.351 172.922 168.758  0.00  0.00    -0.245 OA
BRANCH  34  36
ATOM     36  C   LIG     1     177.663 174.692 169.502  0.00  0.00     0.082 A 
ATOM     37  C   LIG     1     177.346 176.098 169.719  0.00  0.00     0.052 A 
ATOM     38  C   LIG     1     178.392 177.041 169.644  0.00  0.00     0.238 A 
ATOM     39  O   LIG     1     178.111 178.349 169.863  0.00  0.00    -0.283 OA
ATOM     40  C   LIG     1     179.725 176.665 169.356  0.00  0.00     0.273 A 
ATOM     41  O   LIG     1     180.692 177.618 169.312  0.00  0.00    -0.280 OA
ATOM     42  C   LIG     1     180.003 175.260 169.109  0.00  0.00     0.238 A 
ATOM     43  C   LIG     1     178.986 174.198 169.167  0.00  0.00     0.052 A 
ATOM     44  O   LIG     1     181.346 175.016 168.808  0.00  0.00    -0.283 OA
ENDBRANCH  34  36
ENDBRANCH  33  34
ENDBRANCH   5  33
BRANCH   4  45
ATOM     45  O   LIG     1     173.083 173.189 169.673  0.00  0.00    -0.440 OA
BRANCH  45  46
ATOM     46  C   LIG     1     172.507 174.297 169.117  0.00  0.00     0.342 C 
ATOM     47  O   LIG     1     171.403 174.096 168.563  0.00  0.00    -0.245 OA
BRANCH  46  48
ATOM     48  C   LIG     1     173.131 175.576 169.051  0.00  0.00     0.082 A 
ATOM     49  C   LIG     1     173.595 176.229 170.217  0.00  0.00     0.052 A 
ATOM     50  C   LIG     1     174.242 177.480 170.153  0.00  0.00     0.238 A 
ATOM     51  O   LIG     1     174.679 178.072 171.292  0.00  0.00    -0.283 OA
ATOM     52  C   LIG     1     174.437 178.107 168.904  0.00  0.00     0.273 A 
ATOM     53  O   LIG     1     175.088 179.297 168.808  0.00  0.00    -0.280 OA
ATOM     54  C   LIG     1     173.962 177.486 167.732  0.00  0.00     0.238 A 
ATOM     55  O   LIG     1     174.110 178.077 166.519  0.00  0.00    -0.283 OA
ATOM     56  C   LIG     1     173.326 176.231 167.809  0.00  0.00     0.052 A 
ENDBRANCH  46  48
ENDBRANCH  45  46
ENDBRANCH   4  45
TORSDOF 13
