REMARK VINA RESULT:      -9.5      0.000      0.000
REMARK  13 active torsions:
REMARK  status: ('A' for Active; 'I' for Inactive)
REMARK    1  A    between atoms: C_4  and  O_5 
REMARK    2  A    between atoms: C_17  and  O_18 
REMARK    3  A    between atoms: C_30  and  O_31 
REMARK    4  A    between atoms: C_43  and  C_44 
REMARK    5  A    between atoms: O_5  and  C_6 
REMARK    6  A    between atoms: C_6  and  C_8 
REMARK    7  A    between atoms: O_18  and  C_19 
REMARK    8  A    between atoms: C_19  and  C_21 
REMARK    9  A    between atoms: O_31  and  C_32 
REMARK   10  A    between atoms: C_32  and  C_34 
REMARK   11  A    between atoms: C_44  and  O_45 
REMARK   12  A    between atoms: O_45  and  C_46 
REMARK   13  A    between atoms: C_46  and  C_48 
ROOT
ATOM      1  O   LIG     1     172.837 171.358 173.059  0.00  0.00    -0.320 OA
ATOM      2  C   LIG     1     173.505 171.183 174.325  0.00  0.00     0.313 C 
ATOM      3  O   LIG     1     172.858 170.095 174.972  0.00  0.00    -0.186 OA
ATOM      4  C   LIG     1     175.022 170.896 174.131  0.00  0.00     0.271 C 
ATOM      5  C   LIG     1     175.651 172.032 173.270  0.00  0.00     0.256 C 
ATOM      6  C   LIG     1     174.851 172.252 171.951  0.00  0.00     0.243 C 
ATOM      7  C   LIG     1     173.333 172.456 172.262  0.00  0.00     0.205 C 
ENDROOT
BRANCH   7   8
ATOM      8  C   LIG     1     172.474 172.541 170.974  0.00  0.00     0.242 C 
BRANCH   8   9
ATOM      9  O   LIG     1     172.099 173.894 170.658  0.00  0.00    -0.443 OA
BRANCH   9  10
ATOM     10  C   LIG     1     172.237 174.508 169.436  0.00  0.00     0.341 C 
ATOM     11  O   LIG     1     171.651 174.010 168.442  0.00  0.00    -0.245 OA
BRANCH  10  12
ATOM     12  C   LIG     1     173.013 175.695 169.296  0.00  0.00     0.082 A 
ATOM     13  C   LIG     1     173.571 176.331 170.431  0.00  0.00     0.052 A 
ATOM     14  C   LIG     1     174.314 177.521 170.310  0.00  0.00     0.238 A 
ATOM     15  O   LIG     1     174.800 178.099 171.438  0.00  0.00    -0.283 OA
ATOM     16  C   LIG     1     174.537 178.090 169.038  0.00  0.00     0.273 A 
ATOM     17  O   LIG     1     175.269 179.231 168.931  0.00  0.00    -0.280 OA
ATOM     18  C   LIG     1     173.998 177.468 167.894  0.00  0.00     0.238 A 
ATOM     19  O   LIG     1     174.206 178.012 166.668  0.00  0.00    -0.283 OA
ATOM     20  C   LIG     1     173.240 176.286 168.027  0.00  0.00     0.052 A 
ENDBRANCH  10  12
ENDBRANCH   9  10
ENDBRANCH   8   9
ENDBRANCH   7   8
BRANCH   6  21
ATOM     21  O   LIG     1     175.368 173.414 171.277  0.00  0.00    -0.443 OA
BRANCH  21  22
ATOM     22  C   LIG     1     175.977 173.527 170.057  0.00  0.00     0.341 C 
ATOM     23  O   LIG     1     175.414 172.882 169.144  0.00  0.00    -0.245 OA
BRANCH  22  24
ATOM     24  C   LIG     1     177.179 174.230 169.775  0.00  0.00     0.082 A 
ATOM     25  C   LIG     1     177.194 175.638 169.657  0.00  0.00     0.052 A 
ATOM     26  C   LIG     1     178.391 176.344 169.426  0.00  0.00     0.238 A 
ATOM     27  C   LIG     1     179.604 175.639 169.330  0.00  0.00     0.273 A 
ATOM     28  O   LIG     1     178.384 177.698 169.301  0.00  0.00    -0.283 OA
ATOM     29  C   LIG     1     179.612 174.233 169.431  0.00  0.00     0.238 A 
ATOM     30  O   LIG     1     180.762 176.316 169.145  0.00  0.00    -0.280 OA
ATOM     31  O   LIG     1     180.779 173.551 169.315  0.00  0.00    -0.283 OA
ATOM     32  C   LIG     1     178.407 173.536 169.651  0.00  0.00     0.052 A 
ENDBRANCH  22  24
ENDBRANCH  21  22
ENDBRANCH   6  21
BRANCH   5  33
ATOM     33  O   LIG     1     177.011 171.735 172.906  0.00  0.00    -0.441 OA
BRANCH  33  34
ATOM     34  C   LIG     1     178.142 172.230 173.485  0.00  0.00     0.342 C 
ATOM     35  O   LIG     1     178.868 171.378 174.048  0.00  0.00    -0.245 OA
BRANCH  34  36
ATOM     36  C   LIG     1     178.569 173.580 173.364  0.00  0.00     0.082 A 
ATOM     37  C   LIG     1     179.958 173.831 172.997  0.00  0.00     0.052 A 
ATOM     38  C   LIG     1     180.366 175.165 172.788  0.00  0.00     0.238 A 
ATOM     39  O   LIG     1     181.651 175.407 172.428  0.00  0.00    -0.283 OA
ATOM     40  C   LIG     1     179.478 176.255 172.932  0.00  0.00     0.273 A 
ATOM     41  O   LIG     1     179.926 177.517 172.702  0.00  0.00    -0.280 OA
ATOM     42  C   LIG     1     178.109 175.976 173.334  0.00  0.00     0.238 A 
ATOM     43  C   LIG     1     177.582 174.623 173.573  0.00  0.00     0.052 A 
ATOM     44  O   LIG     1     177.335 177.133 173.470  0.00  0.00    -0.283 OA
ENDBRANCH  34  36
ENDBRANCH  33  34
ENDBRANCH   5  33
BRANCH   4  45
ATOM     45  O   LIG     1     175.722 170.818 175.387  0.00  0.00    -0.440 OA
BRANCH  45  46
ATOM     46  C   LIG     1     176.416 169.751 175.886  0.00  0.00     0.342 C 
ATOM     47  O   LIG     1     176.530 168.783 175.101  0.00  0.00    -0.245 OA
BRANCH  46  48
ATOM     48  C   LIG     1     176.890 169.660 177.227  0.00  0.00     0.082 A 
ATOM     49  C   LIG     1     176.231 170.326 178.286  0.00  0.00     0.052 A 
ATOM     50  C   LIG     1     176.678 170.213 179.618  0.00  0.00     0.238 A 
ATOM     51  O   LIG     1     176.016 170.861 180.609  0.00  0.00    -0.283 OA
ATOM     52  C   LIG     1     177.808 169.422 179.916  0.00  0.00     0.273 A 
ATOM     53  O   LIG     1     178.241 169.266 181.195  0.00  0.00    -0.280 OA
ATOM     54  C   LIG     1     178.493 168.769 178.873  0.00  0.00     0.238 A 
ATOM     55  O   LIG     1     179.600 168.023 179.123  0.00  0.00    -0.283 OA
ATOM     56  C   LIG     1     178.031 168.882 177.547  0.00  0.00     0.052 A 
ENDBRANCH  46  48
ENDBRANCH  45  46
ENDBRANCH   4  45
TORSDOF 13
