REMARK VINA RESULT:      -8.8      8.084     12.740
REMARK  13 active torsions:
REMARK  status: ('A' for Active; 'I' for Inactive)
REMARK    1  A    between atoms: C_4  and  O_5 
REMARK    2  A    between atoms: C_17  and  O_18 
REMARK    3  A    between atoms: C_30  and  O_31 
REMARK    4  A    between atoms: C_43  and  C_44 
REMARK    5  A    between atoms: O_5  and  C_6 
REMARK    6  A    between atoms: C_6  and  C_8 
REMARK    7  A    between atoms: O_18  and  C_19 
REMARK    8  A    between atoms: C_19  and  C_21 
REMARK    9  A    between atoms: O_31  and  C_32 
REMARK   10  A    between atoms: C_32  and  C_34 
REMARK   11  A    between atoms: C_44  and  O_45 
REMARK   12  A    between atoms: O_45  and  C_46 
REMARK   13  A    between atoms: C_46  and  C_48 
ROOT
ATOM      1  O   LIG     1     180.457 184.434 170.008  0.00  0.00    -0.320 OA
ATOM      2  C   LIG     1     179.499 183.497 169.477  0.00  0.00     0.313 C 
ATOM      3  O   LIG     1     179.292 183.862 168.118  0.00  0.00    -0.186 OA
ATOM      4  C   LIG     1     180.016 182.033 169.588  0.00  0.00     0.271 C 
ATOM      5  C   LIG     1     180.391 181.736 171.072  0.00  0.00     0.256 C 
ATOM      6  C   LIG     1     181.358 182.818 171.639  0.00  0.00     0.243 C 
ATOM      7  C   LIG     1     180.772 184.248 171.406  0.00  0.00     0.205 C 
ENDROOT
BRANCH   7   8
ATOM      8  C   LIG     1     181.760 185.366 171.829  0.00  0.00     0.242 C 
BRANCH   8   9
ATOM      9  O   LIG     1     182.535 185.855 170.720  0.00  0.00    -0.443 OA
BRANCH   9  10
ATOM     10  C   LIG     1     182.481 187.123 170.192  0.00  0.00     0.341 C 
ATOM     11  O   LIG     1     181.357 187.619 169.931  0.00  0.00    -0.245 OA
BRANCH  10  12
ATOM     12  C   LIG     1     183.671 187.871 169.959  0.00  0.00     0.082 A 
ATOM     13  C   LIG     1     183.654 189.017 169.128  0.00  0.00     0.052 A 
ATOM     14  C   LIG     1     184.828 189.748 168.866  0.00  0.00     0.238 A 
ATOM     15  O   LIG     1     184.753 190.822 168.038  0.00  0.00    -0.283 OA
ATOM     16  C   LIG     1     186.050 189.359 169.455  0.00  0.00     0.273 A 
ATOM     17  O   LIG     1     187.176 190.080 169.206  0.00  0.00    -0.280 OA
ATOM     18  C   LIG     1     186.089 188.226 170.293  0.00  0.00     0.238 A 
ATOM     19  O   LIG     1     187.261 187.844 170.860  0.00  0.00    -0.283 OA
ATOM     20  C   LIG     1     184.910 187.490 170.535  0.00  0.00     0.052 A 
ENDBRANCH  10  12
ENDBRANCH   9  10
ENDBRANCH   8   9
ENDBRANCH   7   8
BRANCH   6  21
ATOM     21  O   LIG     1     181.538 182.592 173.050  0.00  0.00    -0.443 OA
BRANCH  21  22
ATOM     22  C   LIG     1     182.683 182.388 173.770  0.00  0.00     0.341 C 
ATOM     23  O   LIG     1     182.723 181.287 174.365  0.00  0.00    -0.245 OA
BRANCH  22  24
ATOM     24  C   LIG     1     183.748 183.312 173.942  0.00  0.00     0.082 A 
ATOM     25  C   LIG     1     184.827 183.364 173.031  0.00  0.00     0.052 A 
ATOM     26  C   LIG     1     185.862 184.310 173.170  0.00  0.00     0.238 A 
ATOM     27  C   LIG     1     185.814 185.240 174.224  0.00  0.00     0.273 A 
ATOM     28  O   LIG     1     186.900 184.336 172.292  0.00  0.00    -0.283 OA
ATOM     29  C   LIG     1     184.754 185.200 175.152  0.00  0.00     0.238 A 
ATOM     30  O   LIG     1     186.786 186.176 174.338  0.00  0.00    -0.280 OA
ATOM     31  O   LIG     1     184.720 186.081 176.182  0.00  0.00    -0.283 OA
ATOM     32  C   LIG     1     183.731 184.240 175.010  0.00  0.00     0.052 A 
ENDBRANCH  22  24
ENDBRANCH  21  22
ENDBRANCH   6  21
BRANCH   5  33
ATOM     33  O   LIG     1     181.040 180.459 171.212  0.00  0.00    -0.441 OA
BRANCH  33  34
ATOM     34  C   LIG     1     180.540 179.346 171.820  0.00  0.00     0.342 C 
ATOM     35  O   LIG     1     179.444 179.507 172.405  0.00  0.00    -0.245 OA
BRANCH  34  36
ATOM     36  C   LIG     1     181.118 178.052 171.707  0.00  0.00     0.082 A 
ATOM     37  C   LIG     1     180.422 176.932 172.327  0.00  0.00     0.052 A 
ATOM     38  C   LIG     1     180.942 175.634 172.143  0.00  0.00     0.238 A 
ATOM     39  O   LIG     1     180.291 174.583 172.700  0.00  0.00    -0.283 OA
ATOM     40  C   LIG     1     182.114 175.392 171.389  0.00  0.00     0.273 A 
ATOM     41  O   LIG     1     182.558 174.118 171.235  0.00  0.00    -0.280 OA
ATOM     42  C   LIG     1     182.806 176.534 170.814  0.00  0.00     0.238 A 
ATOM     43  C   LIG     1     182.346 177.925 170.943  0.00  0.00     0.052 A 
ATOM     44  O   LIG     1     183.964 176.173 170.117  0.00  0.00    -0.283 OA
ENDBRANCH  34  36
ENDBRANCH  33  34
ENDBRANCH   5  33
BRANCH   4  45
ATOM     45  O   LIG     1     179.030 181.077 169.155  0.00  0.00    -0.440 OA
BRANCH  45  46
ATOM     46  C   LIG     1     179.203 180.050 168.269  0.00  0.00     0.342 C 
ATOM     47  O   LIG     1     179.469 180.403 167.098  0.00  0.00    -0.245 OA
BRANCH  46  48
ATOM     48  C   LIG     1     178.996 178.676 168.585  0.00  0.00     0.082 A 
ATOM     49  C   LIG     1     179.866 177.671 168.104  0.00  0.00     0.052 A 
ATOM     50  C   LIG     1     179.683 176.315 168.440  0.00  0.00     0.238 A 
ATOM     51  O   LIG     1     180.543 175.380 167.965  0.00  0.00    -0.283 OA
ATOM     52  C   LIG     1     178.610 175.936 169.275  0.00  0.00     0.273 A 
ATOM     53  O   LIG     1     178.428 174.641 169.645  0.00  0.00    -0.280 OA
ATOM     54  C   LIG     1     177.716 176.918 169.746  0.00  0.00     0.238 A 
ATOM     55  O   LIG     1     176.658 176.582 170.529  0.00  0.00    -0.283 OA
ATOM     56  C   LIG     1     177.916 178.272 169.411  0.00  0.00     0.052 A 
ENDBRANCH  46  48
ENDBRANCH  45  46
ENDBRANCH   4  45
TORSDOF 13
