MODEL 1
REMARK VINA RESULT:      -6.8      0.000      0.000
REMARK  Name = 2162
REMARK  14 active torsions:
REMARK  status: ('A' for Active; 'I' for Inactive)
REMARK    1  A    between atoms: O_2  and  C_15
REMARK    2  A    between atoms: O_2  and  C_24
REMARK    3  A    between atoms: O_3  and  C_16
REMARK    4  A    between atoms: O_3  and  C_25
REMARK    5  A    between atoms: O_4  and  C_18
REMARK    6  A    between atoms: O_4  and  C_27
REMARK    7  A    between atoms: N_8  and  C_26
REMARK    8  A    between atoms: C_9  and  C_14
REMARK    9  A    between atoms: C_10  and  C_16
REMARK   10  A    between atoms: C_11  and  C_18
REMARK   11  A    between atoms: C_12  and  C_15
REMARK   12  A    between atoms: C_13  and  C_17
REMARK   13  A    between atoms: C_24  and  C_26
REMARK   14  A    between atoms: C_25  and  C_28
REMARK                            x       y       z     vdW  Elec       q    Type
REMARK                         _______ _______ _______ _____ _____    ______ ____
ROOT
ATOM      1  C   UNL     1     151.198 148.531 142.544  0.00  0.00    +0.097 C 
ATOM      2  C   UNL     1     150.918 149.965 143.003  0.00  0.00    +0.065 C 
ATOM      3  C   UNL     1     149.653 150.414 143.168  0.00  0.00    +0.016 C 
ATOM      4  C   UNL     1     149.270 151.782 143.663  0.00  0.00    +0.061 C 
ATOM      5  N   UNL     1     148.588 149.582 142.864  0.00  0.00    -0.319 N 
ATOM      6  H   UNL     1     147.654 149.949 143.008  0.00  0.00    +0.152 HD
ATOM      7  C   UNL     1     148.704 148.319 142.305  0.00  0.00    +0.045 C 
ATOM      8  C   UNL     1     149.931 147.781 142.120  0.00  0.00    +0.068 C 
ENDROOT
BRANCH   1  15
ATOM      9 CL   UNL     1     154.161 147.784 142.109  0.00  0.00    -0.083 Cl
ATOM     10  C   UNL     1     153.240 147.396 143.515  0.00  0.00    +0.045 A 
ATOM     11  C   UNL     1     153.859 146.692 144.548  0.00  0.00    +0.020 A 
ATOM     12  C   UNL     1     153.141 146.364 145.698  0.00  0.00    +0.001 A 
ATOM     13  C   UNL     1     151.802 146.741 145.815  0.00  0.00    +0.000 A 
ATOM     14  C   UNL     1     151.184 147.444 144.782  0.00  0.00    +0.006 A 
ATOM     15  C   UNL     1     151.902 147.772 143.633  0.00  0.00    -0.017 A 
ENDBRANCH   1  15
BRANCH   2  16
ATOM     16  C   UNL     1     152.090 150.833 143.206  0.00  0.00    +0.337 C 
ATOM     17  O   UNL     1     152.830 151.181 142.304  0.00  0.00    -0.245 OA
BRANCH  16  18
ATOM     18  O   UNL     1     152.168 151.145 144.523  0.00  0.00    -0.465 OA
ATOM     19  C   UNL     1     153.364 150.711 145.178  0.00  0.00    +0.280 C 
ENDBRANCH  16  18
ENDBRANCH   2  16
BRANCH   8  20
ATOM     20  C   UNL     1     150.124 146.486 141.447  0.00  0.00    +0.338 C 
ATOM     21  O   UNL     1     150.529 146.381 140.303  0.00  0.00    -0.245 OA
BRANCH  20  22
ATOM     22  O   UNL     1     149.782 145.500 142.310  0.00  0.00    -0.462 OA
BRANCH  22  23
ATOM     23  C   UNL     1     150.405 144.235 142.064  0.00  0.00    +0.229 C 
ATOM     24  C   UNL     1     151.617 144.100 142.960  0.00  0.00    +0.048 C 
ENDBRANCH  22  23
ENDBRANCH  20  22
ENDBRANCH   8  20
BRANCH   7  25
ATOM     25  C   UNL     1     147.398 147.654 141.961  0.00  0.00    +0.211 C 
BRANCH  25  26
ATOM     26  O   UNL     1     147.049 147.962 140.627  0.00  0.00    -0.373 OA
BRANCH  26  27
ATOM     27  C   UNL     1     146.243 146.944 140.042  0.00  0.00    +0.175 C 
BRANCH  27  28
ATOM     28  C   UNL     1     147.154 145.879 139.450  0.00  0.00    +0.106 C 
BRANCH  28  29
ATOM     29  N   UNL     1     148.049 146.460 138.461  0.00  0.00    -0.328 NA
ATOM     30  H   UNL     1     147.572 147.221 137.979  0.00  0.00    +0.118 HD
ATOM     31  H   UNL     1     148.273 145.766 137.750  0.00  0.00    +0.118 HD
ENDBRANCH  28  29
ENDBRANCH  27  28
ENDBRANCH  26  27
ENDBRANCH  25  26
ENDBRANCH   7  25
TORSDOF 11
ENDMDL
MODEL 2
REMARK VINA RESULT:      -6.5      1.365      1.706
REMARK  Name = 2162
REMARK  14 active torsions:
REMARK  status: ('A' for Active; 'I' for Inactive)
REMARK    1  A    between atoms: O_2  and  C_15
REMARK    2  A    between atoms: O_2  and  C_24
REMARK    3  A    between atoms: O_3  and  C_16
REMARK    4  A    between atoms: O_3  and  C_25
REMARK    5  A    between atoms: O_4  and  C_18
REMARK    6  A    between atoms: O_4  and  C_27
REMARK    7  A    between atoms: N_8  and  C_26
REMARK    8  A    between atoms: C_9  and  C_14
REMARK    9  A    between atoms: C_10  and  C_16
REMARK   10  A    between atoms: C_11  and  C_18
REMARK   11  A    between atoms: C_12  and  C_15
REMARK   12  A    between atoms: C_13  and  C_17
REMARK   13  A    between atoms: C_24  and  C_26
REMARK   14  A    between atoms: C_25  and  C_28
REMARK                            x       y       z     vdW  Elec       q    Type
REMARK                         _______ _______ _______ _____ _____    ______ ____
ROOT
ATOM      1  C   UNL     1     150.184 147.867 142.794  0.00  0.00    +0.097 C 
ATOM      2  C   UNL     1     149.381 149.006 143.430  0.00  0.00    +0.065 C 
ATOM      3  C   UNL     1     148.051 148.891 143.646  0.00  0.00    +0.016 C 
ATOM      4  C   UNL     1     147.181 149.924 144.308  0.00  0.00    +0.061 C 
ATOM      5  N   UNL     1     147.389 147.745 143.234  0.00  0.00    -0.319 N 
ATOM      6  H   UNL     1     146.394 147.690 143.420  0.00  0.00    +0.152 HD
ATOM      7  C   UNL     1     147.969 146.709 142.521  0.00  0.00    +0.045 C 
ATOM      8  C   UNL     1     149.299 146.730 142.273  0.00  0.00    +0.068 C 
ENDROOT
BRANCH   1  15
ATOM      9 CL   UNL     1     153.157 147.807 141.967  0.00  0.00    -0.083 Cl
ATOM     10  C   UNL     1     152.543 147.267 143.486  0.00  0.00    +0.045 A 
ATOM     11  C   UNL     1     153.438 146.762 144.429  0.00  0.00    +0.020 A 
ATOM     12  C   UNL     1     152.971 146.318 145.666  0.00  0.00    +0.001 A 
ATOM     13  C   UNL     1     151.609 146.380 145.961  0.00  0.00    +0.000 A 
ATOM     14  C   UNL     1     150.714 146.886 145.019  0.00  0.00    +0.006 A 
ATOM     15  C   UNL     1     151.181 147.329 143.781  0.00  0.00    -0.017 A 
ENDBRANCH   1  15
BRANCH   2  16
ATOM     16  C   UNL     1     150.122 150.239 143.746  0.00  0.00    +0.337 C 
ATOM     17  O   UNL     1     150.554 150.495 144.854  0.00  0.00    -0.245 OA
BRANCH  16  18
ATOM     18  O   UNL     1     150.216 150.982 142.616  0.00  0.00    -0.465 OA
ATOM     19  C   UNL     1     151.538 151.113 142.085  0.00  0.00    +0.280 C 
ENDBRANCH  16  18
ENDBRANCH   2  16
BRANCH   8  20
ATOM     20  C   UNL     1     149.957 145.708 141.443  0.00  0.00    +0.338 C 
ATOM     21  O   UNL     1     150.320 145.909 140.299  0.00  0.00    -0.245 OA
BRANCH  20  22
ATOM     22  O   UNL     1     150.069 144.572 142.171  0.00  0.00    -0.462 OA
BRANCH  22  23
ATOM     23  C   UNL     1     151.197 143.753 141.848  0.00  0.00    +0.229 C 
ATOM     24  C   UNL     1     152.084 143.631 143.069  0.00  0.00    +0.048 C 
ENDBRANCH  22  23
ENDBRANCH  20  22
ENDBRANCH   8  20
BRANCH   7  25
ATOM     25  C   UNL     1     147.019 145.624 142.090  0.00  0.00    +0.211 C 
BRANCH  25  26
ATOM     26  O   UNL     1     145.866 146.206 141.515  0.00  0.00    -0.373 OA
BRANCH  26  27
ATOM     27  C   UNL     1     146.142 146.781 140.242  0.00  0.00    +0.175 C 
BRANCH  27  28
ATOM     28  C   UNL     1     146.842 145.744 139.379  0.00  0.00    +0.106 C 
BRANCH  28  29
ATOM     29  N   UNL     1     147.867 146.368 138.555  0.00  0.00    -0.328 NA
ATOM     30  H   UNL     1     147.485 147.204 138.116  0.00  0.00    +0.118 HD
ATOM     31  H   UNL     1     148.129 145.740 137.797  0.00  0.00    +0.118 HD
ENDBRANCH  28  29
ENDBRANCH  27  28
ENDBRANCH  26  27
ENDBRANCH  25  26
ENDBRANCH   7  25
TORSDOF 11
ENDMDL
MODEL 3
REMARK VINA RESULT:      -6.5      2.494      4.524
REMARK  Name = 2162
REMARK  14 active torsions:
REMARK  status: ('A' for Active; 'I' for Inactive)
REMARK    1  A    between atoms: O_2  and  C_15
REMARK    2  A    between atoms: O_2  and  C_24
REMARK    3  A    between atoms: O_3  and  C_16
REMARK    4  A    between atoms: O_3  and  C_25
REMARK    5  A    between atoms: O_4  and  C_18
REMARK    6  A    between atoms: O_4  and  C_27
REMARK    7  A    between atoms: N_8  and  C_26
REMARK    8  A    between atoms: C_9  and  C_14
REMARK    9  A    between atoms: C_10  and  C_16
REMARK   10  A    between atoms: C_11  and  C_18
REMARK   11  A    between atoms: C_12  and  C_15
REMARK   12  A    between atoms: C_13  and  C_17
REMARK   13  A    between atoms: C_24  and  C_26
REMARK   14  A    between atoms: C_25  and  C_28
REMARK                            x       y       z     vdW  Elec       q    Type
REMARK                         _______ _______ _______ _____ _____    ______ ____
ROOT
ATOM      1  C   UNL     1     150.067 147.692 144.435  0.00  0.00    +0.097 C 
ATOM      2  C   UNL     1     151.038 146.522 144.249  0.00  0.00    +0.065 C 
ATOM      3  C   UNL     1     150.748 145.496 143.417  0.00  0.00    +0.016 C 
ATOM      4  C   UNL     1     151.650 144.328 143.123  0.00  0.00    +0.061 C 
ATOM      5  N   UNL     1     149.527 145.470 142.763  0.00  0.00    -0.319 N 
ATOM      6  H   UNL     1     149.347 144.690 142.141  0.00  0.00    +0.152 HD
ATOM      7  C   UNL     1     148.507 146.388 142.956  0.00  0.00    +0.045 C 
ATOM      8  C   UNL     1     148.713 147.458 143.757  0.00  0.00    +0.068 C 
ENDROOT
BRANCH   1  15
ATOM      9 CL   UNL     1     150.536 149.996 146.434  0.00  0.00    -0.083 Cl
ATOM     10  C   UNL     1     150.932 150.048 144.755  0.00  0.00    +0.045 A 
ATOM     11  C   UNL     1     151.509 151.207 144.239  0.00  0.00    +0.020 A 
ATOM     12  C   UNL     1     151.840 151.279 142.886  0.00  0.00    +0.001 A 
ATOM     13  C   UNL     1     151.595 150.190 142.049  0.00  0.00    +0.000 A 
ATOM     14  C   UNL     1     151.018 149.031 142.566  0.00  0.00    +0.006 A 
ATOM     15  C   UNL     1     150.686 148.959 143.919  0.00  0.00    -0.017 A 
ENDBRANCH   1  15
BRANCH   2  16
ATOM     16  C   UNL     1     152.271 146.553 145.054  0.00  0.00    +0.337 C 
ATOM     17  O   UNL     1     152.296 146.319 146.249  0.00  0.00    -0.245 OA
BRANCH  16  18
ATOM     18  O   UNL     1     153.305 146.875 144.240  0.00  0.00    -0.465 OA
ATOM     19  C   UNL     1     154.090 147.991 144.671  0.00  0.00    +0.280 C 
ENDBRANCH  16  18
ENDBRANCH   2  16
BRANCH   8  20
ATOM     20  C   UNL     1     147.642 148.416 144.076  0.00  0.00    +0.338 C 
ATOM     21  O   UNL     1     146.989 148.372 145.103  0.00  0.00    -0.245 OA
BRANCH  20  22
ATOM     22  O   UNL     1     147.540 149.300 143.055  0.00  0.00    -0.462 OA
BRANCH  22  23
ATOM     23  C   UNL     1     146.213 149.763 142.783  0.00  0.00    +0.229 C 
ATOM     24  C   UNL     1     145.849 149.407 141.358  0.00  0.00    +0.048 C 
ENDBRANCH  22  23
ENDBRANCH  20  22
ENDBRANCH   8  20
BRANCH   7  25
ATOM     25  C   UNL     1     147.232 146.086 142.214  0.00  0.00    +0.211 C 
BRANCH  25  26
ATOM     26  O   UNL     1     147.439 144.991 141.345  0.00  0.00    -0.373 OA
BRANCH  26  27
ATOM     27  C   UNL     1     146.735 145.149 140.117  0.00  0.00    +0.175 C 
BRANCH  27  28
ATOM     28  C   UNL     1     147.052 146.521 139.544  0.00  0.00    +0.106 C 
BRANCH  28  29
ATOM     29  N   UNL     1     148.121 146.433 138.561  0.00  0.00    -0.328 NA
ATOM     30  H   UNL     1     147.757 146.683 137.642  0.00  0.00    +0.118 HD
ATOM     31  H   UNL     1     148.444 145.470 138.489  0.00  0.00    +0.118 HD
ENDBRANCH  28  29
ENDBRANCH  27  28
ENDBRANCH  26  27
ENDBRANCH  25  26
ENDBRANCH   7  25
TORSDOF 11
ENDMDL
MODEL 4
REMARK VINA RESULT:      -6.5      3.140      5.171
REMARK  Name = 2162
REMARK  14 active torsions:
REMARK  status: ('A' for Active; 'I' for Inactive)
REMARK    1  A    between atoms: O_2  and  C_15
REMARK    2  A    between atoms: O_2  and  C_24
REMARK    3  A    between atoms: O_3  and  C_16
REMARK    4  A    between atoms: O_3  and  C_25
REMARK    5  A    between atoms: O_4  and  C_18
REMARK    6  A    between atoms: O_4  and  C_27
REMARK    7  A    between atoms: N_8  and  C_26
REMARK    8  A    between atoms: C_9  and  C_14
REMARK    9  A    between atoms: C_10  and  C_16
REMARK   10  A    between atoms: C_11  and  C_18
REMARK   11  A    between atoms: C_12  and  C_15
REMARK   12  A    between atoms: C_13  and  C_17
REMARK   13  A    between atoms: C_24  and  C_26
REMARK   14  A    between atoms: C_25  and  C_28
REMARK                            x       y       z     vdW  Elec       q    Type
REMARK                         _______ _______ _______ _____ _____    ______ ____
ROOT
ATOM      1  C   UNL     1     150.985 150.092 143.632  0.00  0.00    +0.097 C 
ATOM      2  C   UNL     1     152.205 150.910 144.066  0.00  0.00    +0.065 C 
ATOM      3  C   UNL     1     152.109 151.853 145.031  0.00  0.00    +0.016 C 
ATOM      4  C   UNL     1     153.251 152.673 145.566  0.00  0.00    +0.061 C 
ATOM      5  N   UNL     1     150.876 152.125 145.601  0.00  0.00    -0.319 N 
ATOM      6  H   UNL     1     150.844 152.831 146.328  0.00  0.00    +0.152 HD
ATOM      7  C   UNL     1     149.676 151.561 145.199  0.00  0.00    +0.045 C 
ATOM      8  C   UNL     1     149.676 150.596 144.250  0.00  0.00    +0.068 C 
ENDROOT
BRANCH   1  15
ATOM      9 CL   UNL     1     151.007 148.042 141.325  0.00  0.00    -0.083 Cl
ATOM     10  C   UNL     1     151.213 147.654 142.994  0.00  0.00    +0.045 A 
ATOM     11  C   UNL     1     151.406 146.321 143.353  0.00  0.00    +0.020 A 
ATOM     12  C   UNL     1     151.575 145.977 144.694  0.00  0.00    +0.001 A 
ATOM     13  C   UNL     1     151.552 146.967 145.677  0.00  0.00    +0.000 A 
ATOM     14  C   UNL     1     151.359 148.300 145.318  0.00  0.00    +0.006 A 
ATOM     15  C   UNL     1     151.189 148.644 143.976  0.00  0.00    -0.017 A 
ENDBRANCH   1  15
BRANCH   2  16
ATOM     16  C   UNL     1     153.463 150.650 143.346  0.00  0.00    +0.337 C 
ATOM     17  O   UNL     1     153.721 151.125 142.256  0.00  0.00    -0.245 OA
BRANCH  16  18
ATOM     18  O   UNL     1     154.225 149.824 144.104  0.00  0.00    -0.465 OA
ATOM     19  C   UNL     1     154.658 148.629 143.448  0.00  0.00    +0.280 C 
ENDBRANCH  16  18
ENDBRANCH   2  16
BRANCH   8  20
ATOM     20  C   UNL     1     148.430 150.026 143.714  0.00  0.00    +0.338 C 
ATOM     21  O   UNL     1     147.961 150.339 142.635  0.00  0.00    -0.245 OA
BRANCH  20  22
ATOM     22  O   UNL     1     147.945 149.136 144.612  0.00  0.00    -0.462 OA
BRANCH  22  23
ATOM     23  C   UNL     1     147.049 148.158 144.074  0.00  0.00    +0.229 C 
ATOM     24  C   UNL     1     147.809 146.872 143.833  0.00  0.00    +0.048 C 
ENDBRANCH  22  23
ENDBRANCH  20  22
ENDBRANCH   8  20
BRANCH   7  25
ATOM     25  C   UNL     1     148.456 152.099 145.896  0.00  0.00    +0.211 C 
BRANCH  25  26
ATOM     26  O   UNL     1     148.824 152.625 147.155  0.00  0.00    -0.373 OA
BRANCH  26  27
ATOM     27  C   UNL     1     148.380 153.968 147.319  0.00  0.00    +0.175 C 
BRANCH  27  28
ATOM     28  C   UNL     1     146.864 153.998 147.207  0.00  0.00    +0.106 C 
BRANCH  28  29
ATOM     29  N   UNL     1     146.249 153.433 148.398  0.00  0.00    -0.328 NA
ATOM     30  H   UNL     1     146.976 153.100 149.029  0.00  0.00    +0.118 HD
ATOM     31  H   UNL     1     145.694 152.617 148.145  0.00  0.00    +0.118 HD
ENDBRANCH  28  29
ENDBRANCH  27  28
ENDBRANCH  26  27
ENDBRANCH  25  26
ENDBRANCH   7  25
TORSDOF 11
ENDMDL
MODEL 5
REMARK VINA RESULT:      -6.4      2.262      4.439
REMARK  Name = 2162
REMARK  14 active torsions:
REMARK  status: ('A' for Active; 'I' for Inactive)
REMARK    1  A    between atoms: O_2  and  C_15
REMARK    2  A    between atoms: O_2  and  C_24
REMARK    3  A    between atoms: O_3  and  C_16
REMARK    4  A    between atoms: O_3  and  C_25
REMARK    5  A    between atoms: O_4  and  C_18
REMARK    6  A    between atoms: O_4  and  C_27
REMARK    7  A    between atoms: N_8  and  C_26
REMARK    8  A    between atoms: C_9  and  C_14
REMARK    9  A    between atoms: C_10  and  C_16
REMARK   10  A    between atoms: C_11  and  C_18
REMARK   11  A    between atoms: C_12  and  C_15
REMARK   12  A    between atoms: C_13  and  C_17
REMARK   13  A    between atoms: C_24  and  C_26
REMARK   14  A    between atoms: C_25  and  C_28
REMARK                            x       y       z     vdW  Elec       q    Type
REMARK                         _______ _______ _______ _____ _____    ______ ____
ROOT
ATOM      1  C   UNL     1     149.901 147.963 143.182  0.00  0.00    +0.097 C 
ATOM      2  C   UNL     1     150.480 147.070 142.079  0.00  0.00    +0.065 C 
ATOM      3  C   UNL     1     149.821 146.880 140.914  0.00  0.00    +0.016 C 
ATOM      4  C   UNL     1     150.323 146.069 139.750  0.00  0.00    +0.061 C 
ATOM      5  N   UNL     1     148.574 147.456 140.731  0.00  0.00    -0.319 N 
ATOM      6  H   UNL     1     148.114 147.299 139.841  0.00  0.00    +0.152 HD
ATOM      7  C   UNL     1     147.879 148.162 141.700  0.00  0.00    +0.045 C 
ATOM      8  C   UNL     1     148.465 148.416 142.891  0.00  0.00    +0.068 C 
ENDROOT
BRANCH   1  15
ATOM      9 CL   UNL     1     151.270 148.297 145.927  0.00  0.00    -0.083 Cl
ATOM     10  C   UNL     1     151.439 149.386 144.599  0.00  0.00    +0.045 A 
ATOM     11  C   UNL     1     152.251 150.508 144.753  0.00  0.00    +0.020 A 
ATOM     12  C   UNL     1     152.408 151.406 143.698  0.00  0.00    +0.001 A 
ATOM     13  C   UNL     1     151.752 151.181 142.487  0.00  0.00    +0.000 A 
ATOM     14  C   UNL     1     150.940 150.058 142.333  0.00  0.00    +0.006 A 
ATOM     15  C   UNL     1     150.784 149.160 143.389  0.00  0.00    -0.017 A 
ENDBRANCH   1  15
BRANCH   2  16
ATOM     16  C   UNL     1     151.757 146.400 142.376  0.00  0.00    +0.337 C 
ATOM     17  O   UNL     1     151.833 145.331 142.953  0.00  0.00    -0.245 OA
BRANCH  16  18
ATOM     18  O   UNL     1     152.765 147.174 141.905  0.00  0.00    -0.465 OA
ATOM     19  C   UNL     1     153.871 147.337 142.796  0.00  0.00    +0.280 C 
ENDBRANCH  16  18
ENDBRANCH   2  16
BRANCH   8  20
ATOM     20  C   UNL     1     147.747 149.078 143.993  0.00  0.00    +0.338 C 
ATOM     21  O   UNL     1     147.106 148.472 144.832  0.00  0.00    -0.245 OA
BRANCH  20  22
ATOM     22  O   UNL     1     147.937 150.414 143.885  0.00  0.00    -0.462 OA
BRANCH  22  23
ATOM     23  C   UNL     1     148.098 151.106 145.128  0.00  0.00    +0.229 C 
ATOM     24  C   UNL     1     148.998 152.304 144.912  0.00  0.00    +0.048 C 
ENDBRANCH  22  23
ENDBRANCH  20  22
ENDBRANCH   8  20
BRANCH   7  25
ATOM     25  C   UNL     1     146.494 148.594 141.299  0.00  0.00    +0.211 C 
BRANCH  25  26
ATOM     26  O   UNL     1     145.921 147.618 140.452  0.00  0.00    -0.373 OA
BRANCH  26  27
ATOM     27  C   UNL     1     145.472 146.480 141.182  0.00  0.00    +0.175 C 
BRANCH  27  28
ATOM     28  C   UNL     1     145.738 145.233 140.355  0.00  0.00    +0.106 C 
BRANCH  28  29
ATOM     29  N   UNL     1     146.588 145.543 139.215  0.00  0.00    -0.328 NA
ATOM     30  H   UNL     1     146.872 144.677 138.759  0.00  0.00    +0.118 HD
ATOM     31  H   UNL     1     147.444 145.991 139.537  0.00  0.00    +0.118 HD
ENDBRANCH  28  29
ENDBRANCH  27  28
ENDBRANCH  26  27
ENDBRANCH  25  26
ENDBRANCH   7  25
TORSDOF 11
ENDMDL
MODEL 6
REMARK VINA RESULT:      -6.3      2.850      6.469
REMARK  Name = 2162
REMARK  14 active torsions:
REMARK  status: ('A' for Active; 'I' for Inactive)
REMARK    1  A    between atoms: O_2  and  C_15
REMARK    2  A    between atoms: O_2  and  C_24
REMARK    3  A    between atoms: O_3  and  C_16
REMARK    4  A    between atoms: O_3  and  C_25
REMARK    5  A    between atoms: O_4  and  C_18
REMARK    6  A    between atoms: O_4  and  C_27
REMARK    7  A    between atoms: N_8  and  C_26
REMARK    8  A    between atoms: C_9  and  C_14
REMARK    9  A    between atoms: C_10  and  C_16
REMARK   10  A    between atoms: C_11  and  C_18
REMARK   11  A    between atoms: C_12  and  C_15
REMARK   12  A    between atoms: C_13  and  C_17
REMARK   13  A    between atoms: C_24  and  C_26
REMARK   14  A    between atoms: C_25  and  C_28
REMARK                            x       y       z     vdW  Elec       q    Type
REMARK                         _______ _______ _______ _____ _____    ______ ____
ROOT
ATOM      1  C   UNL     1     151.244 148.097 142.830  0.00  0.00    +0.097 C 
ATOM      2  C   UNL     1     152.061 146.813 143.001  0.00  0.00    +0.065 C 
ATOM      3  C   UNL     1     153.334 146.848 143.456  0.00  0.00    +0.016 C 
ATOM      4  C   UNL     1     154.204 145.647 143.709  0.00  0.00    +0.061 C 
ATOM      5  N   UNL     1     153.933 148.069 143.719  0.00  0.00    -0.319 N 
ATOM      6  H   UNL     1     154.885 148.056 144.067  0.00  0.00    +0.152 HD
ATOM      7  C   UNL     1     153.355 149.304 143.470  0.00  0.00    +0.045 C 
ATOM      8  C   UNL     1     152.078 149.368 143.030  0.00  0.00    +0.068 C 
ENDROOT
BRANCH   1  15
ATOM      9 CL   UNL     1     148.399 148.197 141.637  0.00  0.00    -0.083 Cl
ATOM     10  C   UNL     1     148.762 148.138 143.323  0.00  0.00    +0.045 A 
ATOM     11  C   UNL     1     147.708 148.133 144.236  0.00  0.00    +0.020 A 
ATOM     12  C   UNL     1     147.970 148.086 145.605  0.00  0.00    +0.001 A 
ATOM     13  C   UNL     1     149.287 148.043 146.061  0.00  0.00    +0.000 A 
ATOM     14  C   UNL     1     150.342 148.047 145.149  0.00  0.00    +0.006 A 
ATOM     15  C   UNL     1     150.079 148.095 143.780  0.00  0.00    -0.017 A 
ENDBRANCH   1  15
BRANCH   2  16
ATOM     16  C   UNL     1     151.405 145.556 142.602  0.00  0.00    +0.337 C 
ATOM     17  O   UNL     1     151.058 144.701 143.395  0.00  0.00    -0.245 OA
BRANCH  16  18
ATOM     18  O   UNL     1     151.279 145.551 141.252  0.00  0.00    -0.465 OA
ATOM     19  C   UNL     1     150.039 145.031 140.762  0.00  0.00    +0.280 C 
ENDBRANCH  16  18
ENDBRANCH   2  16
BRANCH   8  20
ATOM     20  C   UNL     1     151.440 150.641 142.659  0.00  0.00    +0.338 C 
ATOM     21  O   UNL     1     151.477 151.104 141.533  0.00  0.00    -0.245 OA
BRANCH  20  22
ATOM     22  O   UNL     1     150.841 151.157 143.758  0.00  0.00    -0.462 OA
BRANCH  22  23
ATOM     23  C   UNL     1     149.503 151.623 143.558  0.00  0.00    +0.229 C 
ATOM     24  C   UNL     1     148.788 151.658 144.891  0.00  0.00    +0.048 C 
ENDBRANCH  22  23
ENDBRANCH  20  22
ENDBRANCH   8  20
BRANCH   7  25
ATOM     25  C   UNL     1     154.246 150.487 143.735  0.00  0.00    +0.211 C 
BRANCH  25  26
ATOM     26  O   UNL     1     153.921 151.052 144.990  0.00  0.00    -0.373 OA
BRANCH  26  27
ATOM     27  C   UNL     1     154.014 152.473 144.971  0.00  0.00    +0.175 C 
BRANCH  27  28
ATOM     28  C   UNL     1     152.927 153.046 145.865  0.00  0.00    +0.106 C 
BRANCH  28  29
ATOM     29  N   UNL     1     152.069 151.987 146.374  0.00  0.00    -0.328 NA
ATOM     30  H   UNL     1     152.627 151.331 146.918  0.00  0.00    +0.118 HD
ATOM     31  H   UNL     1     151.680 151.456 145.597  0.00  0.00    +0.118 HD
ENDBRANCH  28  29
ENDBRANCH  27  28
ENDBRANCH  26  27
ENDBRANCH  25  26
ENDBRANCH   7  25
TORSDOF 11
ENDMDL
MODEL 7
REMARK VINA RESULT:      -6.2      3.440      6.844
REMARK  Name = 2162
REMARK  14 active torsions:
REMARK  status: ('A' for Active; 'I' for Inactive)
REMARK    1  A    between atoms: O_2  and  C_15
REMARK    2  A    between atoms: O_2  and  C_24
REMARK    3  A    between atoms: O_3  and  C_16
REMARK    4  A    between atoms: O_3  and  C_25
REMARK    5  A    between atoms: O_4  and  C_18
REMARK    6  A    between atoms: O_4  and  C_27
REMARK    7  A    between atoms: N_8  and  C_26
REMARK    8  A    between atoms: C_9  and  C_14
REMARK    9  A    between atoms: C_10  and  C_16
REMARK   10  A    between atoms: C_11  and  C_18
REMARK   11  A    between atoms: C_12  and  C_15
REMARK   12  A    between atoms: C_13  and  C_17
REMARK   13  A    between atoms: C_24  and  C_26
REMARK   14  A    between atoms: C_25  and  C_28
REMARK                            x       y       z     vdW  Elec       q    Type
REMARK                         _______ _______ _______ _____ _____    ______ ____
ROOT
ATOM      1  C   UNL     1     150.335 149.935 145.568  0.00  0.00    +0.097 C 
ATOM      2  C   UNL     1     149.151 149.370 144.777  0.00  0.00    +0.065 C 
ATOM      3  C   UNL     1     148.045 150.112 144.544  0.00  0.00    +0.016 C 
ATOM      4  C   UNL     1     146.853 149.673 143.739  0.00  0.00    +0.061 C 
ATOM      5  N   UNL     1     147.953 151.388 145.077  0.00  0.00    -0.319 N 
ATOM      6  H   UNL     1     147.114 151.918 144.874  0.00  0.00    +0.152 HD
ATOM      7  C   UNL     1     148.887 151.960 145.926  0.00  0.00    +0.045 C 
ATOM      8  C   UNL     1     150.033 151.298 146.202  0.00  0.00    +0.068 C 
ENDROOT
BRANCH   1  15
ATOM      9 CL   UNL     1     152.629 147.916 145.996  0.00  0.00    -0.083 Cl
ATOM     10  C   UNL     1     152.623 149.167 144.808  0.00  0.00    +0.045 A 
ATOM     11  C   UNL     1     153.725 149.295 143.964  0.00  0.00    +0.020 A 
ATOM     12  C   UNL     1     153.748 150.296 142.993  0.00  0.00    +0.001 A 
ATOM     13  C   UNL     1     152.668 151.169 142.866  0.00  0.00    +0.000 A 
ATOM     14  C   UNL     1     151.565 151.041 143.709  0.00  0.00    +0.006 A 
ATOM     15  C   UNL     1     151.542 150.040 144.680  0.00  0.00    -0.017 A 
ENDBRANCH   1  15
BRANCH   2  16
ATOM     16  C   UNL     1     149.265 147.971 144.332  0.00  0.00    +0.337 C 
ATOM     17  O   UNL     1     149.052 147.017 145.058  0.00  0.00    -0.245 OA
BRANCH  16  18
ATOM     18  O   UNL     1     149.632 147.967 143.027  0.00  0.00    -0.465 OA
ATOM     19  C   UNL     1     150.563 146.943 142.663  0.00  0.00    +0.280 C 
ENDBRANCH  16  18
ENDBRANCH   2  16
BRANCH   8  20
ATOM     20  C   UNL     1     151.020 151.809 147.168  0.00  0.00    +0.338 C 
ATOM     21  O   UNL     1     151.011 151.517 148.350  0.00  0.00    -0.245 OA
BRANCH  20  22
ATOM     22  O   UNL     1     151.884 152.617 146.510  0.00  0.00    -0.462 OA
BRANCH  22  23
ATOM     23  C   UNL     1     153.127 152.850 147.180  0.00  0.00    +0.229 C 
ATOM     24  C   UNL     1     154.127 151.802 146.742  0.00  0.00    +0.048 C 
ENDBRANCH  22  23
ENDBRANCH  20  22
ENDBRANCH   8  20
BRANCH   7  25
ATOM     25  C   UNL     1     148.511 153.315 146.463  0.00  0.00    +0.211 C 
BRANCH  25  26
ATOM     26  O   UNL     1     147.757 153.161 147.649  0.00  0.00    -0.373 OA
BRANCH  26  27
ATOM     27  C   UNL     1     146.533 153.888 147.596  0.00  0.00    +0.175 C 
BRANCH  27  28
ATOM     28  C   UNL     1     146.389 154.696 148.876  0.00  0.00    +0.106 C 
BRANCH  28  29
ATOM     29  N   UNL     1     147.122 154.069 149.965  0.00  0.00    -0.328 NA
ATOM     30  H   UNL     1     146.465 153.619 150.601  0.00  0.00    +0.118 HD
ATOM     31  H   UNL     1     147.606 154.781 150.509  0.00  0.00    +0.118 HD
ENDBRANCH  28  29
ENDBRANCH  27  28
ENDBRANCH  26  27
ENDBRANCH  25  26
ENDBRANCH   7  25
TORSDOF 11
ENDMDL
MODEL 8
REMARK VINA RESULT:      -6.2      8.729     12.856
REMARK  Name = 2162
REMARK  14 active torsions:
REMARK  status: ('A' for Active; 'I' for Inactive)
REMARK    1  A    between atoms: O_2  and  C_15
REMARK    2  A    between atoms: O_2  and  C_24
REMARK    3  A    between atoms: O_3  and  C_16
REMARK    4  A    between atoms: O_3  and  C_25
REMARK    5  A    between atoms: O_4  and  C_18
REMARK    6  A    between atoms: O_4  and  C_27
REMARK    7  A    between atoms: N_8  and  C_26
REMARK    8  A    between atoms: C_9  and  C_14
REMARK    9  A    between atoms: C_10  and  C_16
REMARK   10  A    between atoms: C_11  and  C_18
REMARK   11  A    between atoms: C_12  and  C_15
REMARK   12  A    between atoms: C_13  and  C_17
REMARK   13  A    between atoms: C_24  and  C_26
REMARK   14  A    between atoms: C_25  and  C_28
REMARK                            x       y       z     vdW  Elec       q    Type
REMARK                         _______ _______ _______ _____ _____    ______ ____
ROOT
ATOM      1  C   UNL     1     150.990 155.396 150.032  0.00  0.00    +0.097 C 
ATOM      2  C   UNL     1     151.762 154.307 150.783  0.00  0.00    +0.065 C 
ATOM      3  C   UNL     1     152.520 154.603 151.863  0.00  0.00    +0.016 C 
ATOM      4  C   UNL     1     153.273 153.607 152.701  0.00  0.00    +0.061 C 
ATOM      5  N   UNL     1     152.647 155.922 152.268  0.00  0.00    -0.319 N 
ATOM      6  H   UNL     1     153.215 156.106 153.087  0.00  0.00    +0.152 HD
ATOM      7  C   UNL     1     152.120 157.012 151.593  0.00  0.00    +0.045 C 
ATOM      8  C   UNL     1     151.335 156.811 150.510  0.00  0.00    +0.068 C 
ENDROOT
BRANCH   1  15
ATOM      9 CL   UNL     1     149.341 155.086 147.442  0.00  0.00    -0.083 Cl
ATOM     10  C   UNL     1     148.695 155.007 149.040  0.00  0.00    +0.045 A 
ATOM     11  C   UNL     1     147.328 154.787 149.199  0.00  0.00    +0.020 A 
ATOM     12  C   UNL     1     146.777 154.718 150.479  0.00  0.00    +0.001 A 
ATOM     13  C   UNL     1     147.594 154.868 151.599  0.00  0.00    +0.000 A 
ATOM     14  C   UNL     1     148.961 155.089 151.440  0.00  0.00    +0.006 A 
ATOM     15  C   UNL     1     149.512 155.158 150.160  0.00  0.00    -0.017 A 
ENDBRANCH   1  15
BRANCH   2  16
ATOM     16  C   UNL     1     151.674 152.941 150.239  0.00  0.00    +0.337 C 
ATOM     17  O   UNL     1     150.958 152.078 150.712  0.00  0.00    -0.245 OA
BRANCH  16  18
ATOM     18  O   UNL     1     152.502 152.853 149.170  0.00  0.00    -0.465 OA
ATOM     19  C   UNL     1     151.909 152.308 147.988  0.00  0.00    +0.280 C 
ENDBRANCH  16  18
ENDBRANCH   2  16
BRANCH   8  20
ATOM     20  C   UNL     1     150.823 157.925 149.696  0.00  0.00    +0.338 C 
ATOM     21  O   UNL     1     151.291 158.234 148.615  0.00  0.00    -0.245 OA
BRANCH  20  22
ATOM     22  O   UNL     1     149.788 158.498 150.356  0.00  0.00    -0.462 OA
BRANCH  22  23
ATOM     23  C   UNL     1     148.609 158.706 149.573  0.00  0.00    +0.229 C 
ATOM     24  C   UNL     1     147.393 158.434 150.431  0.00  0.00    +0.048 C 
ENDBRANCH  22  23
ENDBRANCH  20  22
ENDBRANCH   8  20
BRANCH   7  25
ATOM     25  C   UNL     1     152.488 158.353 152.167  0.00  0.00    +0.211 C 
BRANCH  25  26
ATOM     26  O   UNL     1     153.400 159.003 151.304  0.00  0.00    -0.373 OA
BRANCH  26  27
ATOM     27  C   UNL     1     154.594 158.247 151.131  0.00  0.00    +0.175 C 
BRANCH  27  28
ATOM     28  C   UNL     1     155.387 158.280 152.427  0.00  0.00    +0.106 C 
BRANCH  28  29
ATOM     29  N   UNL     1     155.778 156.936 152.825  0.00  0.00    -0.328 NA
ATOM     30  H   UNL     1     156.683 156.711 152.414  0.00  0.00    +0.118 HD
ATOM     31  H   UNL     1     155.116 156.259 152.449  0.00  0.00    +0.118 HD
ENDBRANCH  28  29
ENDBRANCH  27  28
ENDBRANCH  26  27
ENDBRANCH  25  26
ENDBRANCH   7  25
TORSDOF 11
ENDMDL
MODEL 9
REMARK VINA RESULT:      -6.1      2.971      5.481
REMARK  Name = 2162
REMARK  14 active torsions:
REMARK  status: ('A' for Active; 'I' for Inactive)
REMARK    1  A    between atoms: O_2  and  C_15
REMARK    2  A    between atoms: O_2  and  C_24
REMARK    3  A    between atoms: O_3  and  C_16
REMARK    4  A    between atoms: O_3  and  C_25
REMARK    5  A    between atoms: O_4  and  C_18
REMARK    6  A    between atoms: O_4  and  C_27
REMARK    7  A    between atoms: N_8  and  C_26
REMARK    8  A    between atoms: C_9  and  C_14
REMARK    9  A    between atoms: C_10  and  C_16
REMARK   10  A    between atoms: C_11  and  C_18
REMARK   11  A    between atoms: C_12  and  C_15
REMARK   12  A    between atoms: C_13  and  C_17
REMARK   13  A    between atoms: C_24  and  C_26
REMARK   14  A    between atoms: C_25  and  C_28
REMARK                            x       y       z     vdW  Elec       q    Type
REMARK                         _______ _______ _______ _____ _____    ______ ____
ROOT
ATOM      1  C   UNL     1     149.896 148.145 144.460  0.00  0.00    +0.097 C 
ATOM      2  C   UNL     1     149.087 149.440 144.583  0.00  0.00    +0.065 C 
ATOM      3  C   UNL     1     149.645 150.571 145.071  0.00  0.00    +0.016 C 
ATOM      4  C   UNL     1     148.958 151.904 145.185  0.00  0.00    +0.061 C 
ATOM      5  N   UNL     1     150.955 150.548 145.521  0.00  0.00    -0.319 N 
ATOM      6  H   UNL     1     151.343 151.417 145.871  0.00  0.00    +0.152 HD
ATOM      7  C   UNL     1     151.746 149.412 145.598  0.00  0.00    +0.045 C 
ATOM      8  C   UNL     1     151.277 148.238 145.118  0.00  0.00    +0.068 C 
ENDROOT
BRANCH   1  15
ATOM      9 CL   UNL     1     148.090 145.897 143.359  0.00  0.00    -0.083 Cl
ATOM     10  C   UNL     1     149.265 146.762 142.437  0.00  0.00    +0.045 A 
ATOM     11  C   UNL     1     149.429 146.440 141.091  0.00  0.00    +0.020 A 
ATOM     12  C   UNL     1     150.371 147.122 140.320  0.00  0.00    +0.001 A 
ATOM     13  C   UNL     1     151.148 148.127 140.897  0.00  0.00    +0.000 A 
ATOM     14  C   UNL     1     150.984 148.449 142.243  0.00  0.00    +0.006 A 
ATOM     15  C   UNL     1     150.042 147.767 143.014  0.00  0.00    -0.017 A 
ENDBRANCH   1  15
BRANCH   2  16
ATOM     16  C   UNL     1     147.669 149.372 144.190  0.00  0.00    +0.337 C 
ATOM     17  O   UNL     1     146.804 148.876 144.889  0.00  0.00    -0.245 OA
BRANCH  16  18
ATOM     18  O   UNL     1     147.537 149.939 142.967  0.00  0.00    -0.465 OA
ATOM     19  C   UNL     1     146.528 149.359 142.136  0.00  0.00    +0.280 C 
ENDBRANCH  16  18
ENDBRANCH   2  16
BRANCH   8  20
ATOM     20  C   UNL     1     152.029 146.980 145.256  0.00  0.00    +0.338 C 
ATOM     21  O   UNL     1     151.862 146.199 146.175  0.00  0.00    -0.245 OA
BRANCH  20  22
ATOM     22  O   UNL     1     152.887 146.878 144.213  0.00  0.00    -0.462 OA
BRANCH  22  23
ATOM     23  C   UNL     1     153.343 145.552 143.930  0.00  0.00    +0.229 C 
ATOM     24  C   UNL     1     152.250 144.800 143.201  0.00  0.00    +0.048 C 
ENDBRANCH  22  23
ENDBRANCH  20  22
ENDBRANCH   8  20
BRANCH   7  25
ATOM     25  C   UNL     1     153.097 149.621 146.226  0.00  0.00    +0.211 C 
BRANCH  25  26
ATOM     26  O   UNL     1     154.090 149.624 145.219  0.00  0.00    -0.373 OA
BRANCH  26  27
ATOM     27  C   UNL     1     154.004 150.780 144.393  0.00  0.00    +0.175 C 
BRANCH  27  28
ATOM     28  C   UNL     1     154.218 150.365 142.946  0.00  0.00    +0.106 C 
BRANCH  28  29
ATOM     29  N   UNL     1     154.599 148.963 142.865  0.00  0.00    -0.328 NA
ATOM     30  H   UNL     1     154.304 148.482 143.714  0.00  0.00    +0.118 HD
ATOM     31  H   UNL     1     155.614 148.884 142.830  0.00  0.00    +0.118 HD
ENDBRANCH  28  29
ENDBRANCH  27  28
ENDBRANCH  26  27
ENDBRANCH  25  26
ENDBRANCH   7  25
TORSDOF 11
ENDMDL
MODEL 10
REMARK VINA RESULT:      -6.1      8.938     12.644
REMARK  Name = 2162
REMARK  14 active torsions:
REMARK  status: ('A' for Active; 'I' for Inactive)
REMARK    1  A    between atoms: O_2  and  C_15
REMARK    2  A    between atoms: O_2  and  C_24
REMARK    3  A    between atoms: O_3  and  C_16
REMARK    4  A    between atoms: O_3  and  C_25
REMARK    5  A    between atoms: O_4  and  C_18
REMARK    6  A    between atoms: O_4  and  C_27
REMARK    7  A    between atoms: N_8  and  C_26
REMARK    8  A    between atoms: C_9  and  C_14
REMARK    9  A    between atoms: C_10  and  C_16
REMARK   10  A    between atoms: C_11  and  C_18
REMARK   11  A    between atoms: C_12  and  C_15
REMARK   12  A    between atoms: C_13  and  C_17
REMARK   13  A    between atoms: C_24  and  C_26
REMARK   14  A    between atoms: C_25  and  C_28
REMARK                            x       y       z     vdW  Elec       q    Type
REMARK                         _______ _______ _______ _____ _____    ______ ____
ROOT
ATOM      1  C   UNL     1     150.401 155.287 150.719  0.00  0.00    +0.097 C 
ATOM      2  C   UNL     1     148.945 155.686 150.463  0.00  0.00    +0.065 C 
ATOM      3  C   UNL     1     148.581 156.985 150.363  0.00  0.00    +0.016 C 
ATOM      4  C   UNL     1     147.194 157.483 150.063  0.00  0.00    +0.061 C 
ATOM      5  N   UNL     1     149.531 157.977 150.552  0.00  0.00    -0.319 N 
ATOM      6  H   UNL     1     149.224 158.939 150.460  0.00  0.00    +0.152 HD
ATOM      7  C   UNL     1     150.845 157.753 150.930  0.00  0.00    +0.045 C 
ATOM      8  C   UNL     1     151.303 156.485 151.038  0.00  0.00    +0.068 C 
ENDROOT
BRANCH   1  15
ATOM      9 CL   UNL     1     151.256 152.349 151.128  0.00  0.00    -0.083 Cl
ATOM     10  C   UNL     1     151.352 153.208 149.634  0.00  0.00    +0.045 A 
ATOM     11  C   UNL     1     151.850 152.547 148.512  0.00  0.00    +0.020 A 
ATOM     12  C   UNL     1     151.939 153.215 147.291  0.00  0.00    +0.001 A 
ATOM     13  C   UNL     1     151.530 154.544 147.192  0.00  0.00    +0.000 A 
ATOM     14  C   UNL     1     151.033 155.206 148.314  0.00  0.00    +0.006 A 
ATOM     15  C   UNL     1     150.943 154.538 149.535  0.00  0.00    -0.017 A 
ENDBRANCH   1  15
BRANCH   2  16
ATOM     16  C   UNL     1     147.965 154.590 150.381  0.00  0.00    +0.337 C 
ATOM     17  O   UNL     1     147.478 154.053 151.359  0.00  0.00    -0.245 OA
BRANCH  16  18
ATOM     18  O   UNL     1     147.734 154.321 149.073  0.00  0.00    -0.465 OA
ATOM     19  C   UNL     1     146.362 154.098 148.733  0.00  0.00    +0.280 C 
ENDBRANCH  16  18
ENDBRANCH   2  16
BRANCH   8  20
ATOM     20  C   UNL     1     152.658 156.180 151.524  0.00  0.00    +0.338 C 
ATOM     21  O   UNL     1     153.652 156.257 150.826  0.00  0.00    -0.245 OA
BRANCH  20  22
ATOM     22  O   UNL     1     152.574 155.821 152.827  0.00  0.00    -0.462 OA
BRANCH  22  23
ATOM     23  C   UNL     1     153.261 154.612 153.169  0.00  0.00    +0.229 C 
ATOM     24  C   UNL     1     153.461 154.566 154.668  0.00  0.00    +0.048 C 
ENDBRANCH  22  23
ENDBRANCH  20  22
ENDBRANCH   8  20
BRANCH   7  25
ATOM     25  C   UNL     1     151.654 158.997 151.180  0.00  0.00    +0.211 C 
BRANCH  25  26
ATOM     26  O   UNL     1     151.027 159.776 152.179  0.00  0.00    -0.373 OA
BRANCH  26  27
ATOM     27  C   UNL     1     150.970 161.153 151.819  0.00  0.00    +0.175 C 
BRANCH  27  28
ATOM     28  C   UNL     1     149.534 161.508 151.469  0.00  0.00    +0.106 C 
BRANCH  28  29
ATOM     29  N   UNL     1     148.603 160.772 152.310  0.00  0.00    -0.328 NA
ATOM     30  H   UNL     1     147.877 161.404 152.646  0.00  0.00    +0.118 HD
ATOM     31  H   UNL     1     149.086 160.426 153.137  0.00  0.00    +0.118 HD
ENDBRANCH  28  29
ENDBRANCH  27  28
ENDBRANCH  26  27
ENDBRANCH  25  26
ENDBRANCH   7  25
TORSDOF 11
ENDMDL
