MODEL 1
REMARK VINA RESULT:    -9.493      0.000      0.000
REMARK INTER + INTRA:         -14.003
REMARK INTER:                 -12.823
REMARK INTRA:                  -1.180
REMARK UNBOUND:                -1.180
REMARK  Name = 5316673
REMARK  10 active torsions:
REMARK  status: ('A' for Active; 'I' for Inactive)
REMARK    1  A    between atoms: O_2  and  C_15
REMARK    2  A    between atoms: O_2  and  C_17
REMARK    3  A    between atoms: O_3  and  C_11
REMARK    4  A    between atoms: O_4  and  C_12
REMARK    5  A    between atoms: O_5  and  C_13
REMARK    6  A    between atoms: O_8  and  C_23
REMARK    7  A    between atoms: O_9  and  C_28
REMARK    8  A    between atoms: O_10  and  C_31
REMARK    9  A    between atoms: C_14  and  C_16
REMARK   10  A    between atoms: C_18  and  C_22
REMARK                            x       y       z     vdW  Elec       q    Type
REMARK                         _______ _______ _______ _____ _____    ______ ____
ROOT
ATOM      1  O   UNL     1      80.142  91.713 111.616  0.00  0.00    +0.000 OA
ATOM      2  O   UNL     1      77.427  91.407 114.641  0.00  0.00    +0.000 OA
ATOM      3  C   UNL     1      78.067  92.452 112.614  0.00  0.00    +0.000 A 
ATOM      4  C   UNL     1      79.005  92.506 111.651  0.00  0.00    +0.000 A 
ATOM      5  C   UNL     1      78.247  91.500 113.736  0.00  0.00    +0.000 A 
ATOM      6  C   UNL     1      79.461  90.671 113.700  0.00  0.00    +0.000 A 
ATOM      7  C   UNL     1      80.348  90.821 112.637  0.00  0.00    +0.000 A 
ATOM      8  C   UNL     1      79.723  89.744 114.713  0.00  0.00    +0.000 A 
ATOM      9  C   UNL     1      81.506  90.045 112.579  0.00  0.00    +0.000 A 
ATOM     10  C   UNL     1      80.882  88.969 114.653  0.00  0.00    +0.000 A 
ATOM     11  C   UNL     1      81.772  89.119 113.588  0.00  0.00    +0.000 A 
ENDROOT
BRANCH   4  12
ATOM     12  C   UNL     1      78.904  93.416 110.497  0.00  0.00    +0.000 A 
ATOM     13  C   UNL     1      79.258  94.760 110.635  0.00  0.00    +0.000 A 
ATOM     14  C   UNL     1      78.455  92.937 109.267  0.00  0.00    +0.000 A 
ATOM     15  C   UNL     1      79.162  95.622 109.541  0.00  0.00    +0.000 A 
ATOM     16  C   UNL     1      78.360  93.798 108.174  0.00  0.00    +0.000 A 
ATOM     17  C   UNL     1      78.713  95.141 108.311  0.00  0.00    +0.000 A 
BRANCH  17  18
ATOM     18  O   UNL     1      78.620  95.981 107.245  0.00  0.00    +0.000 OA
ATOM     19  H   UNL     1      78.506  95.452 106.437  0.00  0.00    +0.000 HD
ENDBRANCH  17  18
ENDBRANCH   4  12
BRANCH   8  20
ATOM     20  O   UNL     1      78.888  89.558 115.773  0.00  0.00    +0.000 OA
ATOM     21  H   UNL     1      78.935  88.631 116.064  0.00  0.00    +0.000 HD
ENDBRANCH   8  20
BRANCH  11  22
ATOM     22  O   UNL     1      82.902  88.361 113.534  0.00  0.00    +0.000 OA
ATOM     23  H   UNL     1      82.692  87.460 113.835  0.00  0.00    +0.000 HD
ENDBRANCH  11  22
BRANCH   3  24
ATOM     24  O   UNL     1      76.931  93.233 112.602  0.00  0.00    +0.000 OA
BRANCH  24  30
ATOM     25  O   UNL     1      75.388  93.008 110.814  0.00  0.00    +0.000 OA
ATOM     26  C   UNL     1      74.071  93.996 113.165  0.00  0.00    +0.000 C 
ATOM     27  C   UNL     1      73.709  94.507 111.771  0.00  0.00    +0.000 C 
ATOM     28  C   UNL     1      74.659  92.585 113.097  0.00  0.00    +0.000 C 
ATOM     29  C   UNL     1      74.910  94.356 110.827  0.00  0.00    +0.000 C 
ATOM     30  C   UNL     1      75.808  92.522 112.093  0.00  0.00    +0.000 C 
ATOM     31  C   UNL     1      74.553  94.716 109.387  0.00  0.00    +0.000 C 
BRANCH  26  32
ATOM     32  O   UNL     1      72.903  93.997 113.983  0.00  0.00    +0.000 OA
ATOM     33  H   UNL     1      73.122  94.454 114.813  0.00  0.00    +0.000 HD
ENDBRANCH  26  32
BRANCH  27  34
ATOM     34  O   UNL     1      73.338  95.879 111.884  0.00  0.00    +0.000 OA
ATOM     35  H   UNL     1      72.491  95.924 112.358  0.00  0.00    +0.000 HD
ENDBRANCH  27  34
BRANCH  28  36
ATOM     36  O   UNL     1      73.657  91.661 112.672  0.00  0.00    +0.000 OA
ATOM     37  H   UNL     1      72.802  91.981 113.007  0.00  0.00    +0.000 HD
ENDBRANCH  28  36
ENDBRANCH  24  30
ENDBRANCH   3  24
TORSDOF 9
ENDMDL
MODEL 2
REMARK VINA RESULT:    -9.451      1.358      1.601
REMARK INTER + INTRA:         -13.946
REMARK INTER:                 -12.706
REMARK INTRA:                  -1.240
REMARK UNBOUND:                -1.180
REMARK  Name = 5316673
REMARK  10 active torsions:
REMARK  status: ('A' for Active; 'I' for Inactive)
REMARK    1  A    between atoms: O_2  and  C_15
REMARK    2  A    between atoms: O_2  and  C_17
REMARK    3  A    between atoms: O_3  and  C_11
REMARK    4  A    between atoms: O_4  and  C_12
REMARK    5  A    between atoms: O_5  and  C_13
REMARK    6  A    between atoms: O_8  and  C_23
REMARK    7  A    between atoms: O_9  and  C_28
REMARK    8  A    between atoms: O_10  and  C_31
REMARK    9  A    between atoms: C_14  and  C_16
REMARK   10  A    between atoms: C_18  and  C_22
REMARK                            x       y       z     vdW  Elec       q    Type
REMARK                         _______ _______ _______ _____ _____    ______ ____
ROOT
ATOM      1  O   UNL     1      81.398  91.692 111.082  0.00  0.00    +0.000 OA
ATOM      2  O   UNL     1      79.224  90.588 114.348  0.00  0.00    +0.000 OA
ATOM      3  C   UNL     1      79.410  91.966 112.430  0.00  0.00    +0.000 A 
ATOM      4  C   UNL     1      80.181  92.286 111.375  0.00  0.00    +0.000 A 
ATOM      5  C   UNL     1      79.882  90.921 113.370  0.00  0.00    +0.000 A 
ATOM      6  C   UNL     1      81.180  90.303 113.061  0.00  0.00    +0.000 A 
ATOM      7  C   UNL     1      81.873  90.722 111.928  0.00  0.00    +0.000 A 
ATOM      8  C   UNL     1      81.713  89.310 113.887  0.00  0.00    +0.000 A 
ATOM      9  C   UNL     1      83.105  90.151 111.612  0.00  0.00    +0.000 A 
ATOM     10  C   UNL     1      82.946  88.739 113.569  0.00  0.00    +0.000 A 
ATOM     11  C   UNL     1      83.641  89.159 112.434  0.00  0.00    +0.000 A 
ENDROOT
BRANCH   4  12
ATOM     12  C   UNL     1      79.787  93.307 110.388  0.00  0.00    +0.000 A 
ATOM     13  C   UNL     1      80.019  94.658 110.650  0.00  0.00    +0.000 A 
ATOM     14  C   UNL     1      79.184  92.923 109.191  0.00  0.00    +0.000 A 
ATOM     15  C   UNL     1      79.646  95.624 109.715  0.00  0.00    +0.000 A 
ATOM     16  C   UNL     1      78.811  93.889 108.255  0.00  0.00    +0.000 A 
ATOM     17  C   UNL     1      79.042  95.239 108.517  0.00  0.00    +0.000 A 
BRANCH  17  18
ATOM     18  O   UNL     1      78.680  96.182 107.605  0.00  0.00    +0.000 OA
ATOM     19  H   UNL     1      78.031  95.793 106.993  0.00  0.00    +0.000 HD
ENDBRANCH  17  18
ENDBRANCH   4  12
BRANCH   8  20
ATOM     20  O   UNL     1      81.076  88.864 115.005  0.00  0.00    +0.000 OA
ATOM     21  H   UNL     1      81.568  89.149 115.794  0.00  0.00    +0.000 HD
ENDBRANCH   8  20
BRANCH  11  22
ATOM     22  O   UNL     1      84.845  88.600 112.128  0.00  0.00    +0.000 OA
ATOM     23  H   UNL     1      85.432  89.288 111.772  0.00  0.00    +0.000 HD
ENDBRANCH  11  22
BRANCH   3  24
ATOM     24  O   UNL     1      78.188  92.555 112.675  0.00  0.00    +0.000 OA
BRANCH  24  30
ATOM     25  O   UNL     1      76.518  92.051 111.067  0.00  0.00    +0.000 OA
ATOM     26  C   UNL     1      75.326  93.042 113.483  0.00  0.00    +0.000 C 
ATOM     27  C   UNL     1      74.778  93.420 112.108  0.00  0.00    +0.000 C 
ATOM     28  C   UNL     1      76.060  91.701 113.432  0.00  0.00    +0.000 C 
ATOM     29  C   UNL     1      75.894  93.339 111.056  0.00  0.00    +0.000 C 
ATOM     30  C   UNL     1      77.109  91.696 112.322  0.00  0.00    +0.000 C 
ATOM     31  C   UNL     1      75.364  93.565 109.642  0.00  0.00    +0.000 C 
BRANCH  26  32
ATOM     32  O   UNL     1      74.248  92.970 114.414  0.00  0.00    +0.000 OA
ATOM     33  H   UNL     1      74.618  93.092 115.305  0.00  0.00    +0.000 HD
ENDBRANCH  26  32
BRANCH  27  34
ATOM     34  O   UNL     1      74.267  94.749 112.183  0.00  0.00    +0.000 OA
ATOM     35  H   UNL     1      73.620  94.782 112.908  0.00  0.00    +0.000 HD
ENDBRANCH  27  34
BRANCH  28  36
ATOM     36  O   UNL     1      75.133  90.649 113.160  0.00  0.00    +0.000 OA
ATOM     37  H   UNL     1      75.073  90.098 113.958  0.00  0.00    +0.000 HD
ENDBRANCH  28  36
ENDBRANCH  24  30
ENDBRANCH   3  24
TORSDOF 9
ENDMDL
MODEL 3
REMARK VINA RESULT:    -9.316      8.253     13.152
REMARK INTER + INTRA:         -13.764
REMARK INTER:                 -12.847
REMARK INTRA:                  -0.917
REMARK UNBOUND:                -1.180
REMARK  Name = 5316673
REMARK  10 active torsions:
REMARK  status: ('A' for Active; 'I' for Inactive)
REMARK    1  A    between atoms: O_2  and  C_15
REMARK    2  A    between atoms: O_2  and  C_17
REMARK    3  A    between atoms: O_3  and  C_11
REMARK    4  A    between atoms: O_4  and  C_12
REMARK    5  A    between atoms: O_5  and  C_13
REMARK    6  A    between atoms: O_8  and  C_23
REMARK    7  A    between atoms: O_9  and  C_28
REMARK    8  A    between atoms: O_10  and  C_31
REMARK    9  A    between atoms: C_14  and  C_16
REMARK   10  A    between atoms: C_18  and  C_22
REMARK                            x       y       z     vdW  Elec       q    Type
REMARK                         _______ _______ _______ _____ _____    ______ ____
ROOT
ATOM      1  O   UNL     1      88.263  87.956 110.727  0.00  0.00    +0.000 OA
ATOM      2  O   UNL     1      89.748  84.386 112.015  0.00  0.00    +0.000 OA
ATOM      3  C   UNL     1      88.163  86.122 112.300  0.00  0.00    +0.000 A 
ATOM      4  C   UNL     1      87.727  87.304 111.827  0.00  0.00    +0.000 A 
ATOM      5  C   UNL     1      89.307  85.460 111.628  0.00  0.00    +0.000 A 
ATOM      6  C   UNL     1      89.880  86.164 110.471  0.00  0.00    +0.000 A 
ATOM      7  C   UNL     1      89.325  87.380 110.079  0.00  0.00    +0.000 A 
ATOM      8  C   UNL     1      90.963  85.624 109.771  0.00  0.00    +0.000 A 
ATOM      9  C   UNL     1      89.850  88.066 108.984  0.00  0.00    +0.000 A 
ATOM     10  C   UNL     1      91.485  86.312 108.676  0.00  0.00    +0.000 A 
ATOM     11  C   UNL     1      90.930  87.531 108.283  0.00  0.00    +0.000 A 
ENDROOT
BRANCH   4  12
ATOM     12  C   UNL     1      86.592  88.027 112.427  0.00  0.00    +0.000 A 
ATOM     13  C   UNL     1      85.285  87.619 112.162  0.00  0.00    +0.000 A 
ATOM     14  C   UNL     1      86.825  89.120 113.262  0.00  0.00    +0.000 A 
ATOM     15  C   UNL     1      84.210  88.304 112.731  0.00  0.00    +0.000 A 
ATOM     16  C   UNL     1      85.751  89.805 113.832  0.00  0.00    +0.000 A 
ATOM     17  C   UNL     1      84.444  89.397 113.566  0.00  0.00    +0.000 A 
BRANCH  17  18
ATOM     18  O   UNL     1      83.396  90.064 114.122  0.00  0.00    +0.000 OA
ATOM     19  H   UNL     1      83.514  90.086 115.087  0.00  0.00    +0.000 HD
ENDBRANCH  17  18
ENDBRANCH   4  12
BRANCH   8  20
ATOM     20  O   UNL     1      91.540  84.439 110.113  0.00  0.00    +0.000 OA
ATOM     21  H   UNL     1      92.504  84.554 110.173  0.00  0.00    +0.000 HD
ENDBRANCH   8  20
BRANCH  11  22
ATOM     22  O   UNL     1      91.445  88.199 107.213  0.00  0.00    +0.000 OA
ATOM     23  H   UNL     1      90.837  88.917 106.967  0.00  0.00    +0.000 HD
ENDBRANCH  11  22
BRANCH   3  24
ATOM     24  O   UNL     1      87.585  85.484 113.377  0.00  0.00    +0.000 OA
BRANCH  24  30
ATOM     25  O   UNL     1      88.728  84.389 115.145  0.00  0.00    +0.000 OA
ATOM     26  C   UNL     1      86.394  85.738 116.133  0.00  0.00    +0.000 C 
ATOM     27  C   UNL     1      86.819  84.373 116.675  0.00  0.00    +0.000 C 
ATOM     28  C   UNL     1      87.593  86.500 115.566  0.00  0.00    +0.000 C 
ATOM     29  C   UNL     1      87.621  83.610 115.610  0.00  0.00    +0.000 C 
ATOM     30  C   UNL     1      88.359  85.643 114.561  0.00  0.00    +0.000 C 
ATOM     31  C   UNL     1      88.193  82.304 116.154  0.00  0.00    +0.000 C 
BRANCH  26  32
ATOM     32  O   UNL     1      85.790  86.492 117.182  0.00  0.00    +0.000 OA
ATOM     33  H   UNL     1      85.774  85.933 117.977  0.00  0.00    +0.000 HD
ENDBRANCH  26  32
BRANCH  27  34
ATOM     34  O   UNL     1      85.641  83.647 117.020  0.00  0.00    +0.000 OA
ATOM     35  H   UNL     1      85.200  83.379 116.197  0.00  0.00    +0.000 HD
ENDBRANCH  27  34
BRANCH  28  36
ATOM     36  O   UNL     1      88.493  86.844 116.621  0.00  0.00    +0.000 OA
ATOM     37  H   UNL     1      89.152  86.134 116.687  0.00  0.00    +0.000 HD
ENDBRANCH  28  36
ENDBRANCH  24  30
ENDBRANCH   3  24
TORSDOF 9
ENDMDL
MODEL 4
REMARK VINA RESULT:    -9.176      1.986      2.519
REMARK INTER + INTRA:         -13.575
REMARK INTER:                 -12.470
REMARK INTRA:                  -1.105
REMARK UNBOUND:                -1.180
REMARK  Name = 5316673
REMARK  10 active torsions:
REMARK  status: ('A' for Active; 'I' for Inactive)
REMARK    1  A    between atoms: O_2  and  C_15
REMARK    2  A    between atoms: O_2  and  C_17
REMARK    3  A    between atoms: O_3  and  C_11
REMARK    4  A    between atoms: O_4  and  C_12
REMARK    5  A    between atoms: O_5  and  C_13
REMARK    6  A    between atoms: O_8  and  C_23
REMARK    7  A    between atoms: O_9  and  C_28
REMARK    8  A    between atoms: O_10  and  C_31
REMARK    9  A    between atoms: C_14  and  C_16
REMARK   10  A    between atoms: C_18  and  C_22
REMARK                            x       y       z     vdW  Elec       q    Type
REMARK                         _______ _______ _______ _____ _____    ______ ____
ROOT
ATOM      1  O   UNL     1      78.408  91.653 111.458  0.00  0.00    +0.000 OA
ATOM      2  O   UNL     1      75.548  92.147 114.320  0.00  0.00    +0.000 OA
ATOM      3  C   UNL     1      76.199  92.431 112.061  0.00  0.00    +0.000 A 
ATOM      4  C   UNL     1      77.188  92.243 111.168  0.00  0.00    +0.000 A 
ATOM      5  C   UNL     1      76.411  92.001 113.464  0.00  0.00    +0.000 A 
ATOM      6  C   UNL     1      77.712  91.387 113.769  0.00  0.00    +0.000 A 
ATOM      7  C   UNL     1      78.646  91.244 112.745  0.00  0.00    +0.000 A 
ATOM      8  C   UNL     1      78.011  90.952 115.063  0.00  0.00    +0.000 A 
ATOM      9  C   UNL     1      79.886  90.664 113.009  0.00  0.00    +0.000 A 
ATOM     10  C   UNL     1      79.253  90.371 115.324  0.00  0.00    +0.000 A 
ATOM     11  C   UNL     1      80.189  90.228 114.299  0.00  0.00    +0.000 A 
ENDROOT
BRANCH   4  12
ATOM     12  C   UNL     1      77.060  92.632 109.752  0.00  0.00    +0.000 A 
ATOM     13  C   UNL     1      76.571  91.717 108.818  0.00  0.00    +0.000 A 
ATOM     14  C   UNL     1      77.427  93.915 109.345  0.00  0.00    +0.000 A 
ATOM     15  C   UNL     1      76.451  92.087 107.477  0.00  0.00    +0.000 A 
ATOM     16  C   UNL     1      77.305  94.284 108.005  0.00  0.00    +0.000 A 
ATOM     17  C   UNL     1      76.817  93.370 107.072  0.00  0.00    +0.000 A 
BRANCH  17  18
ATOM     18  O   UNL     1      76.699  93.730 105.765  0.00  0.00    +0.000 OA
ATOM     19  H   UNL     1      77.583  93.924 105.410  0.00  0.00    +0.000 HD
ENDBRANCH  17  18
ENDBRANCH   4  12
BRANCH   8  20
ATOM     20  O   UNL     1      77.133  91.068 116.098  0.00  0.00    +0.000 OA
ATOM     21  H   UNL     1      76.709  90.208 116.261  0.00  0.00    +0.000 HD
ENDBRANCH   8  20
BRANCH  11  22
ATOM     22  O   UNL     1      81.400  89.661 114.559  0.00  0.00    +0.000 OA
ATOM     23  H   UNL     1      81.315  89.075 115.330  0.00  0.00    +0.000 HD
ENDBRANCH  11  22
BRANCH   3  24
ATOM     24  O   UNL     1      74.984  92.992 111.731  0.00  0.00    +0.000 OA
BRANCH  24  30
ATOM     25  O   UNL     1      73.552  91.635 110.412  0.00  0.00    +0.000 OA
ATOM     26  C   UNL     1      72.054  93.696 111.735  0.00  0.00    +0.000 C 
ATOM     27  C   UNL     1      71.729  93.263 110.306  0.00  0.00    +0.000 C 
ATOM     28  C   UNL     1      72.738  92.566 112.508  0.00  0.00    +0.000 C 
ATOM     29  C   UNL     1      72.985  92.691 109.631  0.00  0.00    +0.000 C 
ATOM     30  C   UNL     1      73.938  92.026 111.734  0.00  0.00    +0.000 C 
ATOM     31  C   UNL     1      72.678  92.110 108.253  0.00  0.00    +0.000 C 
BRANCH  26  32
ATOM     32  O   UNL     1      70.848  94.075 112.395  0.00  0.00    +0.000 OA
ATOM     33  H   UNL     1      71.036  94.125 113.348  0.00  0.00    +0.000 HD
ENDBRANCH  26  32
BRANCH  27  34
ATOM     34  O   UNL     1      71.262  94.405 109.592  0.00  0.00    +0.000 OA
ATOM     35  H   UNL     1      70.794  94.094 108.799  0.00  0.00    +0.000 HD
ENDBRANCH  27  34
BRANCH  28  36
ATOM     36  O   UNL     1      71.823  91.487 112.703  0.00  0.00    +0.000 OA
ATOM     37  H   UNL     1      71.754  91.005 111.862  0.00  0.00    +0.000 HD
ENDBRANCH  28  36
ENDBRANCH  24  30
ENDBRANCH   3  24
TORSDOF 9
ENDMDL
MODEL 5
REMARK VINA RESULT:    -9.100      2.636      6.162
REMARK INTER + INTRA:         -13.472
REMARK INTER:                 -12.894
REMARK INTRA:                  -0.578
REMARK UNBOUND:                -1.180
REMARK  Name = 5316673
REMARK  10 active torsions:
REMARK  status: ('A' for Active; 'I' for Inactive)
REMARK    1  A    between atoms: O_2  and  C_15
REMARK    2  A    between atoms: O_2  and  C_17
REMARK    3  A    between atoms: O_3  and  C_11
REMARK    4  A    between atoms: O_4  and  C_12
REMARK    5  A    between atoms: O_5  and  C_13
REMARK    6  A    between atoms: O_8  and  C_23
REMARK    7  A    between atoms: O_9  and  C_28
REMARK    8  A    between atoms: O_10  and  C_31
REMARK    9  A    between atoms: C_14  and  C_16
REMARK   10  A    between atoms: C_18  and  C_22
REMARK                            x       y       z     vdW  Elec       q    Type
REMARK                         _______ _______ _______ _____ _____    ______ ____
ROOT
ATOM      1  O   UNL     1      78.160  93.808 107.685  0.00  0.00    +0.000 OA
ATOM      2  O   UNL     1      76.089  91.021 109.820  0.00  0.00    +0.000 OA
ATOM      3  C   UNL     1      77.873  92.577 109.747  0.00  0.00    +0.000 A 
ATOM      4  C   UNL     1      78.516  93.481 108.984  0.00  0.00    +0.000 A 
ATOM      5  C   UNL     1      76.712  91.854 109.175  0.00  0.00    +0.000 A 
ATOM      6  C   UNL     1      76.347  92.196 107.792  0.00  0.00    +0.000 A 
ATOM      7  C   UNL     1      77.094  93.160 107.117  0.00  0.00    +0.000 A 
ATOM      8  C   UNL     1      75.270  91.569 107.161  0.00  0.00    +0.000 A 
ATOM      9  C   UNL     1      76.767  93.503 105.805  0.00  0.00    +0.000 A 
ATOM     10  C   UNL     1      74.945  91.914 105.849  0.00  0.00    +0.000 A 
ATOM     11  C   UNL     1      75.692  92.879 105.172  0.00  0.00    +0.000 A 
ENDROOT
BRANCH   4  12
ATOM     12  C   UNL     1      79.674  94.249 109.474  0.00  0.00    +0.000 A 
ATOM     13  C   UNL     1      80.759  93.586 110.048  0.00  0.00    +0.000 A 
ATOM     14  C   UNL     1      79.685  95.639 109.364  0.00  0.00    +0.000 A 
ATOM     15  C   UNL     1      81.856  94.315 110.512  0.00  0.00    +0.000 A 
ATOM     16  C   UNL     1      80.782  96.368 109.827  0.00  0.00    +0.000 A 
ATOM     17  C   UNL     1      81.867  95.706 110.400  0.00  0.00    +0.000 A 
BRANCH  17  18
ATOM     18  O   UNL     1      82.936  96.415 110.851  0.00  0.00    +0.000 OA
ATOM     19  H   UNL     1      83.112  96.167 111.776  0.00  0.00    +0.000 HD
ENDBRANCH  17  18
ENDBRANCH   4  12
BRANCH   8  20
ATOM     20  O   UNL     1      74.508  90.622 107.777  0.00  0.00    +0.000 OA
ATOM     21  H   UNL     1      73.568  90.801 107.607  0.00  0.00    +0.000 HD
ENDBRANCH   8  20
BRANCH  11  22
ATOM     22  O   UNL     1      75.371  93.212 103.891  0.00  0.00    +0.000 OA
ATOM     23  H   UNL     1      74.403  93.224 103.801  0.00  0.00    +0.000 HD
ENDBRANCH  11  22
BRANCH   3  24
ATOM     24  O   UNL     1      78.234  92.299 111.048  0.00  0.00    +0.000 OA
BRANCH  24  30
ATOM     25  O   UNL     1      78.696  93.605 112.974  0.00  0.00    +0.000 OA
ATOM     26  C   UNL     1      76.668  91.653 113.541  0.00  0.00    +0.000 C 
ATOM     27  C   UNL     1      77.744  92.010 114.566  0.00  0.00    +0.000 C 
ATOM     28  C   UNL     1      76.431  92.812 112.569  0.00  0.00    +0.000 C 
ATOM     29  C   UNL     1      79.005  92.517 113.851  0.00  0.00    +0.000 C 
ATOM     30  C   UNL     1      77.746  93.284 111.953  0.00  0.00    +0.000 C 
ATOM     31  C   UNL     1      80.055  93.024 114.836  0.00  0.00    +0.000 C 
BRANCH  26  32
ATOM     32  O   UNL     1      75.457  91.336 114.223  0.00  0.00    +0.000 OA
ATOM     33  H   UNL     1      75.317  92.012 114.907  0.00  0.00    +0.000 HD
ENDBRANCH  26  32
BRANCH  27  34
ATOM     34  O   UNL     1      78.042  90.838 115.321  0.00  0.00    +0.000 OA
ATOM     35  H   UNL     1      77.707  90.968 116.224  0.00  0.00    +0.000 HD
ENDBRANCH  27  34
BRANCH  28  36
ATOM     36  O   UNL     1      75.853  93.918 113.264  0.00  0.00    +0.000 OA
ATOM     37  H   UNL     1      76.415  94.106 114.035  0.00  0.00    +0.000 HD
ENDBRANCH  28  36
ENDBRANCH  24  30
ENDBRANCH   3  24
TORSDOF 9
ENDMDL
MODEL 6
REMARK VINA RESULT:    -9.085      1.545      4.709
REMARK INTER + INTRA:         -13.452
REMARK INTER:                 -12.290
REMARK INTRA:                  -1.162
REMARK UNBOUND:                -1.180
REMARK  Name = 5316673
REMARK  10 active torsions:
REMARK  status: ('A' for Active; 'I' for Inactive)
REMARK    1  A    between atoms: O_2  and  C_15
REMARK    2  A    between atoms: O_2  and  C_17
REMARK    3  A    between atoms: O_3  and  C_11
REMARK    4  A    between atoms: O_4  and  C_12
REMARK    5  A    between atoms: O_5  and  C_13
REMARK    6  A    between atoms: O_8  and  C_23
REMARK    7  A    between atoms: O_9  and  C_28
REMARK    8  A    between atoms: O_10  and  C_31
REMARK    9  A    between atoms: C_14  and  C_16
REMARK   10  A    between atoms: C_18  and  C_22
REMARK                            x       y       z     vdW  Elec       q    Type
REMARK                         _______ _______ _______ _____ _____    ______ ____
ROOT
ATOM      1  O   UNL     1      77.611  91.061 114.133  0.00  0.00    +0.000 OA
ATOM      2  O   UNL     1      80.027  90.834 110.859  0.00  0.00    +0.000 OA
ATOM      3  C   UNL     1      77.943  91.484 111.776  0.00  0.00    +0.000 A 
ATOM      4  C   UNL     1      77.195  91.522 112.894  0.00  0.00    +0.000 A 
ATOM      5  C   UNL     1      79.302  90.896 111.843  0.00  0.00    +0.000 A 
ATOM      6  C   UNL     1      79.733  90.397 113.158  0.00  0.00    +0.000 A 
ATOM      7  C   UNL     1      78.861  90.506 114.239  0.00  0.00    +0.000 A 
ATOM      8  C   UNL     1      80.996  89.822 113.325  0.00  0.00    +0.000 A 
ATOM      9  C   UNL     1      79.246  90.041 115.496  0.00  0.00    +0.000 A 
ATOM     10  C   UNL     1      81.379  89.358 114.584  0.00  0.00    +0.000 A 
ATOM     11  C   UNL     1      80.506  89.467 115.667  0.00  0.00    +0.000 A 
ENDROOT
BRANCH   4  12
ATOM     12  C   UNL     1      75.838  92.094 112.920  0.00  0.00    +0.000 A 
ATOM     13  C   UNL     1      75.559  93.192 113.736  0.00  0.00    +0.000 A 
ATOM     14  C   UNL     1      74.832  91.540 112.129  0.00  0.00    +0.000 A 
ATOM     15  C   UNL     1      74.273  93.734 113.759  0.00  0.00    +0.000 A 
ATOM     16  C   UNL     1      73.546  92.082 112.152  0.00  0.00    +0.000 A 
ATOM     17  C   UNL     1      73.267  93.179 112.968  0.00  0.00    +0.000 A 
BRANCH  17  18
ATOM     18  O   UNL     1      72.014  93.708 112.990  0.00  0.00    +0.000 OA
ATOM     19  H   UNL     1      71.607  93.516 113.853  0.00  0.00    +0.000 HD
ENDBRANCH  17  18
ENDBRANCH   4  12
BRANCH   8  20
ATOM     20  O   UNL     1      81.885  89.693 112.302  0.00  0.00    +0.000 OA
ATOM     21  H   UNL     1      81.656  88.911 111.770  0.00  0.00    +0.000 HD
ENDBRANCH   8  20
BRANCH  11  22
ATOM     22  O   UNL     1      80.885  89.012 116.894  0.00  0.00    +0.000 OA
ATOM     23  H   UNL     1      81.826  88.771 116.865  0.00  0.00    +0.000 HD
ENDBRANCH  11  22
BRANCH   3  24
ATOM     24  O   UNL     1      77.511  91.982 110.565  0.00  0.00    +0.000 OA
BRANCH  24  30
ATOM     25  O   UNL     1      76.593  94.166 110.439  0.00  0.00    +0.000 OA
ATOM     26  C   UNL     1      77.746  93.409 107.922  0.00  0.00    +0.000 C 
ATOM     27  C   UNL     1      76.448  94.212 107.998  0.00  0.00    +0.000 C 
ATOM     28  C   UNL     1      78.599  93.626 109.173  0.00  0.00    +0.000 C 
ATOM     29  C   UNL     1      75.729  93.926 109.324  0.00  0.00    +0.000 C 
ATOM     30  C   UNL     1      77.784  93.373 110.439  0.00  0.00    +0.000 C 
ATOM     31  C   UNL     1      74.502  94.815 109.511  0.00  0.00    +0.000 C 
BRANCH  26  32
ATOM     32  O   UNL     1      78.475  93.804 106.762  0.00  0.00    +0.000 OA
ATOM     33  H   UNL     1      78.898  94.658 106.955  0.00  0.00    +0.000 HD
ENDBRANCH  26  32
BRANCH  27  34
ATOM     34  O   UNL     1      75.626  93.831 106.897  0.00  0.00    +0.000 OA
ATOM     35  H   UNL     1      74.802  93.456 107.252  0.00  0.00    +0.000 HD
ENDBRANCH  27  34
BRANCH  28  36
ATOM     36  O   UNL     1      79.064  94.976 109.216  0.00  0.00    +0.000 OA
ATOM     37  H   UNL     1      79.362  95.154 110.124  0.00  0.00    +0.000 HD
ENDBRANCH  28  36
ENDBRANCH  24  30
ENDBRANCH   3  24
TORSDOF 9
ENDMDL
MODEL 7
REMARK VINA RESULT:    -8.975      1.837      6.476
REMARK INTER + INTRA:         -13.303
REMARK INTER:                 -12.039
REMARK INTRA:                  -1.264
REMARK UNBOUND:                -1.180
REMARK  Name = 5316673
REMARK  10 active torsions:
REMARK  status: ('A' for Active; 'I' for Inactive)
REMARK    1  A    between atoms: O_2  and  C_15
REMARK    2  A    between atoms: O_2  and  C_17
REMARK    3  A    between atoms: O_3  and  C_11
REMARK    4  A    between atoms: O_4  and  C_12
REMARK    5  A    between atoms: O_5  and  C_13
REMARK    6  A    between atoms: O_8  and  C_23
REMARK    7  A    between atoms: O_9  and  C_28
REMARK    8  A    between atoms: O_10  and  C_31
REMARK    9  A    between atoms: C_14  and  C_16
REMARK   10  A    between atoms: C_18  and  C_22
REMARK                            x       y       z     vdW  Elec       q    Type
REMARK                         _______ _______ _______ _____ _____    ______ ____
ROOT
ATOM      1  O   UNL     1      75.631  94.128 110.605  0.00  0.00    +0.000 OA
ATOM      2  O   UNL     1      74.810  91.126 113.237  0.00  0.00    +0.000 OA
ATOM      3  C   UNL     1      76.443  92.384 112.071  0.00  0.00    +0.000 A 
ATOM      4  C   UNL     1      76.642  93.383 111.191  0.00  0.00    +0.000 A 
ATOM      5  C   UNL     1      75.053  92.025 112.443  0.00  0.00    +0.000 A 
ATOM      6  C   UNL     1      73.984  92.810 111.808  0.00  0.00    +0.000 A 
ATOM      7  C   UNL     1      74.331  93.825 110.919  0.00  0.00    +0.000 A 
ATOM      8  C   UNL     1      72.641  92.548 112.090  0.00  0.00    +0.000 A 
ATOM      9  C   UNL     1      73.335  94.585 110.305  0.00  0.00    +0.000 A 
ATOM     10  C   UNL     1      71.647  93.310 111.475  0.00  0.00    +0.000 A 
ATOM     11  C   UNL     1      71.993  94.326 110.584  0.00  0.00    +0.000 A 
ENDROOT
BRANCH   4  12
ATOM     12  C   UNL     1      77.988  93.811 110.771  0.00  0.00    +0.000 A 
ATOM     13  C   UNL     1      78.446  95.090 111.092  0.00  0.00    +0.000 A 
ATOM     14  C   UNL     1      78.806  92.938 110.053  0.00  0.00    +0.000 A 
ATOM     15  C   UNL     1      79.721  95.495 110.695  0.00  0.00    +0.000 A 
ATOM     16  C   UNL     1      80.081  93.343 109.657  0.00  0.00    +0.000 A 
ATOM     17  C   UNL     1      80.539  94.621 109.977  0.00  0.00    +0.000 A 
BRANCH  17  18
ATOM     18  O   UNL     1      81.782  95.016 109.591  0.00  0.00    +0.000 OA
ATOM     19  H   UNL     1      82.365  95.025 110.369  0.00  0.00    +0.000 HD
ENDBRANCH  17  18
ENDBRANCH   4  12
BRANCH   8  20
ATOM     20  O   UNL     1      72.250  91.568 112.952  0.00  0.00    +0.000 OA
ATOM     21  H   UNL     1      71.282  91.476 112.920  0.00  0.00    +0.000 HD
ENDBRANCH   8  20
BRANCH  11  22
ATOM     22  O   UNL     1      71.019  95.067 109.986  0.00  0.00    +0.000 OA
ATOM     23  H   UNL     1      71.301  95.997 109.959  0.00  0.00    +0.000 HD
ENDBRANCH  11  22
BRANCH   3  24
ATOM     24  O   UNL     1      77.474  91.684 112.661  0.00  0.00    +0.000 OA
BRANCH  24  30
ATOM     25  O   UNL     1      79.184  92.976 113.677  0.00  0.00    +0.000 OA
ATOM     26  C   UNL     1      79.162  90.312 114.746  0.00  0.00    +0.000 C 
ATOM     27  C   UNL     1      80.469  91.058 114.485  0.00  0.00    +0.000 C 
ATOM     28  C   UNL     1      78.009  91.291 114.981  0.00  0.00    +0.000 C 
ATOM     29  C   UNL     1      80.271  92.097 113.372  0.00  0.00    +0.000 C 
ATOM     30  C   UNL     1      77.926  92.316 113.853  0.00  0.00    +0.000 C 
ATOM     31  C   UNL     1      81.508  92.969 113.176  0.00  0.00    +0.000 C 
BRANCH  26  32
ATOM     32  O   UNL     1      79.322  89.468 115.883  0.00  0.00    +0.000 OA
ATOM     33  H   UNL     1      78.954  88.596 115.659  0.00  0.00    +0.000 HD
ENDBRANCH  26  32
BRANCH  27  34
ATOM     34  O   UNL     1      81.456  90.104 114.100  0.00  0.00    +0.000 OA
ATOM     35  H   UNL     1      81.956  89.850 114.894  0.00  0.00    +0.000 HD
ENDBRANCH  27  34
BRANCH  28  36
ATOM     36  O   UNL     1      78.217  92.002 116.202  0.00  0.00    +0.000 OA
ATOM     37  H   UNL     1      77.987  92.932 116.043  0.00  0.00    +0.000 HD
ENDBRANCH  28  36
ENDBRANCH  24  30
ENDBRANCH   3  24
TORSDOF 9
ENDMDL
MODEL 8
REMARK VINA RESULT:    -8.962      1.971      5.045
REMARK INTER + INTRA:         -13.286
REMARK INTER:                 -11.979
REMARK INTRA:                  -1.307
REMARK UNBOUND:                -1.180
REMARK  Name = 5316673
REMARK  10 active torsions:
REMARK  status: ('A' for Active; 'I' for Inactive)
REMARK    1  A    between atoms: O_2  and  C_15
REMARK    2  A    between atoms: O_2  and  C_17
REMARK    3  A    between atoms: O_3  and  C_11
REMARK    4  A    between atoms: O_4  and  C_12
REMARK    5  A    between atoms: O_5  and  C_13
REMARK    6  A    between atoms: O_8  and  C_23
REMARK    7  A    between atoms: O_9  and  C_28
REMARK    8  A    between atoms: O_10  and  C_31
REMARK    9  A    between atoms: C_14  and  C_16
REMARK   10  A    between atoms: C_18  and  C_22
REMARK                            x       y       z     vdW  Elec       q    Type
REMARK                         _______ _______ _______ _____ _____    ______ ____
ROOT
ATOM      1  O   UNL     1      76.749  91.890 113.478  0.00  0.00    +0.000 OA
ATOM      2  O   UNL     1      78.845  90.994 110.100  0.00  0.00    +0.000 OA
ATOM      3  C   UNL     1      76.833  91.788 111.064  0.00  0.00    +0.000 A 
ATOM      4  C   UNL     1      76.196  92.057 112.218  0.00  0.00    +0.000 A 
ATOM      5  C   UNL     1      78.216  91.258 111.117  0.00  0.00    +0.000 A 
ATOM      6  C   UNL     1      78.793  91.070 112.456  0.00  0.00    +0.000 A 
ATOM      7  C   UNL     1      78.025  91.398 113.572  0.00  0.00    +0.000 A 
ATOM      8  C   UNL     1      80.089  90.573 112.614  0.00  0.00    +0.000 A 
ATOM      9  C   UNL     1      78.549  91.230 114.853  0.00  0.00    +0.000 A 
ATOM     10  C   UNL     1      80.611  90.406 113.897  0.00  0.00    +0.000 A 
ATOM     11  C   UNL     1      79.843  90.734 115.015  0.00  0.00    +0.000 A 
ENDROOT
BRANCH   4  12
ATOM     12  C   UNL     1      74.824  92.593 112.259  0.00  0.00    +0.000 A 
ATOM     13  C   UNL     1      73.754  91.806 111.832  0.00  0.00    +0.000 A 
ATOM     14  C   UNL     1      74.594  93.888 112.724  0.00  0.00    +0.000 A 
ATOM     15  C   UNL     1      72.454  92.314 111.870  0.00  0.00    +0.000 A 
ATOM     16  C   UNL     1      73.295  94.396 112.763  0.00  0.00    +0.000 A 
ATOM     17  C   UNL     1      72.225  93.609 112.337  0.00  0.00    +0.000 A 
BRANCH  17  18
ATOM     18  O   UNL     1      70.959  94.103 112.375  0.00  0.00    +0.000 OA
ATOM     19  H   UNL     1      70.952  94.984 111.962  0.00  0.00    +0.000 HD
ENDBRANCH  17  18
ENDBRANCH   4  12
BRANCH   8  20
ATOM     20  O   UNL     1      80.880  90.238 111.557  0.00  0.00    +0.000 OA
ATOM     21  H   UNL     1      80.367  90.305 110.733  0.00  0.00    +0.000 HD
ENDBRANCH   8  20
BRANCH  11  22
ATOM     22  O   UNL     1      80.357  90.569 116.265  0.00  0.00    +0.000 OA
ATOM     23  H   UNL     1      81.190  91.066 116.332  0.00  0.00    +0.000 HD
ENDBRANCH  11  22
BRANCH   3  24
ATOM     24  O   UNL     1      76.266  91.997 109.825  0.00  0.00    +0.000 OA
BRANCH  24  30
ATOM     25  O   UNL     1      75.464  94.185 109.378  0.00  0.00    +0.000 OA
ATOM     26  C   UNL     1      75.954  92.770 106.929  0.00  0.00    +0.000 C 
ATOM     27  C   UNL     1      74.756  93.705 107.087  0.00  0.00    +0.000 C 
ATOM     28  C   UNL     1      77.087  93.165 107.878  0.00  0.00    +0.000 C 
ATOM     29  C   UNL     1      74.352  93.800 108.565  0.00  0.00    +0.000 C 
ATOM     30  C   UNL     1      76.578  93.288 109.313  0.00  0.00    +0.000 C 
ATOM     31  C   UNL     1      73.254  94.836 108.792  0.00  0.00    +0.000 C 
BRANCH  26  32
ATOM     32  O   UNL     1      76.412  92.817 105.580  0.00  0.00    +0.000 OA
ATOM     33  H   UNL     1      75.779  92.320 105.034  0.00  0.00    +0.000 HD
ENDBRANCH  26  32
BRANCH  27  34
ATOM     34  O   UNL     1      73.679  93.182 106.313  0.00  0.00    +0.000 OA
ATOM     35  H   UNL     1      73.320  93.903 105.769  0.00  0.00    +0.000 HD
ENDBRANCH  27  34
BRANCH  28  36
ATOM     36  O   UNL     1      77.622  94.433 107.495  0.00  0.00    +0.000 OA
ATOM     37  H   UNL     1      78.144  94.298 106.687  0.00  0.00    +0.000 HD
ENDBRANCH  28  36
ENDBRANCH  24  30
ENDBRANCH   3  24
TORSDOF 9
ENDMDL
MODEL 9
REMARK VINA RESULT:    -8.936      8.343     12.586
REMARK INTER + INTRA:         -13.250
REMARK INTER:                 -12.257
REMARK INTRA:                  -0.993
REMARK UNBOUND:                -1.180
REMARK  Name = 5316673
REMARK  10 active torsions:
REMARK  status: ('A' for Active; 'I' for Inactive)
REMARK    1  A    between atoms: O_2  and  C_15
REMARK    2  A    between atoms: O_2  and  C_17
REMARK    3  A    between atoms: O_3  and  C_11
REMARK    4  A    between atoms: O_4  and  C_12
REMARK    5  A    between atoms: O_5  and  C_13
REMARK    6  A    between atoms: O_8  and  C_23
REMARK    7  A    between atoms: O_9  and  C_28
REMARK    8  A    between atoms: O_10  and  C_31
REMARK    9  A    between atoms: C_14  and  C_16
REMARK   10  A    between atoms: C_18  and  C_22
REMARK                            x       y       z     vdW  Elec       q    Type
REMARK                         _______ _______ _______ _____ _____    ______ ____
ROOT
ATOM      1  O   UNL     1      86.055  87.210 115.028  0.00  0.00    +0.000 OA
ATOM      2  O   UNL     1      89.398  85.139 113.957  0.00  0.00    +0.000 OA
ATOM      3  C   UNL     1      87.909  86.924 113.502  0.00  0.00    +0.000 A 
ATOM      4  C   UNL     1      86.794  87.559 113.909  0.00  0.00    +0.000 A 
ATOM      5  C   UNL     1      88.391  85.757 114.279  0.00  0.00    +0.000 A 
ATOM      6  C   UNL     1      87.596  85.383 115.458  0.00  0.00    +0.000 A 
ATOM      7  C   UNL     1      86.465  86.134 115.773  0.00  0.00    +0.000 A 
ATOM      8  C   UNL     1      87.965  84.296 116.254  0.00  0.00    +0.000 A 
ATOM      9  C   UNL     1      85.695  85.801 116.886  0.00  0.00    +0.000 A 
ATOM     10  C   UNL     1      87.193  83.965 117.368  0.00  0.00    +0.000 A 
ATOM     11  C   UNL     1      86.059  84.716 117.684  0.00  0.00    +0.000 A 
ENDROOT
BRANCH   4  12
ATOM     12  C   UNL     1      86.249  88.731 113.202  0.00  0.00    +0.000 A 
ATOM     13  C   UNL     1      85.189  88.576 112.307  0.00  0.00    +0.000 A 
ATOM     14  C   UNL     1      86.790  89.996 113.428  0.00  0.00    +0.000 A 
ATOM     15  C   UNL     1      84.673  89.687 111.638  0.00  0.00    +0.000 A 
ATOM     16  C   UNL     1      86.274  91.107 112.760  0.00  0.00    +0.000 A 
ATOM     17  C   UNL     1      85.215  90.952 111.865  0.00  0.00    +0.000 A 
BRANCH  17  18
ATOM     18  O   UNL     1      84.711  92.035 111.214  0.00  0.00    +0.000 OA
ATOM     19  H   UNL     1      85.362  92.756 111.251  0.00  0.00    +0.000 HD
ENDBRANCH  17  18
ENDBRANCH   4  12
BRANCH   8  20
ATOM     20  O   UNL     1      89.061  83.532 115.991  0.00  0.00    +0.000 OA
ATOM     21  H   UNL     1      89.855  83.971 116.341  0.00  0.00    +0.000 HD
ENDBRANCH   8  20
BRANCH  11  22
ATOM     22  O   UNL     1      85.309  84.389 118.772  0.00  0.00    +0.000 OA
ATOM     23  H   UNL     1      84.558  85.004 118.835  0.00  0.00    +0.000 HD
ENDBRANCH  11  22
BRANCH   3  24
ATOM     24  O   UNL     1      88.640  87.317 112.401  0.00  0.00    +0.000 OA
BRANCH  24  30
ATOM     25  O   UNL     1      88.706  85.545 110.825  0.00  0.00    +0.000 OA
ATOM     26  C   UNL     1      89.712  87.970 109.662  0.00  0.00    +0.000 C 
ATOM     27  C   UNL     1      90.342  86.613 109.351  0.00  0.00    +0.000 C 
ATOM     28  C   UNL     1      88.246  87.813 110.072  0.00  0.00    +0.000 C 
ATOM     29  C   UNL     1      90.100  85.641 110.516  0.00  0.00    +0.000 C 
ATOM     30  C   UNL     1      88.101  86.789 111.194  0.00  0.00    +0.000 C 
ATOM     31  C   UNL     1      90.583  84.229 110.191  0.00  0.00    +0.000 C 
BRANCH  26  32
ATOM     32  O   UNL     1      89.808  88.806 108.511  0.00  0.00    +0.000 OA
ATOM     33  H   UNL     1      89.289  88.392 107.801  0.00  0.00    +0.000 HD
ENDBRANCH  26  32
BRANCH  27  34
ATOM     34  O   UNL     1      91.740  86.807 109.152  0.00  0.00    +0.000 OA
ATOM     35  H   UNL     1      92.216  86.214 109.758  0.00  0.00    +0.000 HD
ENDBRANCH  27  34
BRANCH  28  36
ATOM     36  O   UNL     1      87.477  87.354 108.960  0.00  0.00    +0.000 OA
ATOM     37  H   UNL     1      87.873  86.521 108.653  0.00  0.00    +0.000 HD
ENDBRANCH  28  36
ENDBRANCH  24  30
ENDBRANCH   3  24
TORSDOF 9
ENDMDL
MODEL 10
REMARK VINA RESULT:    -8.922      1.847      2.785
REMARK INTER + INTRA:         -13.232
REMARK INTER:                 -12.343
REMARK INTRA:                  -0.889
REMARK UNBOUND:                -1.180
REMARK  Name = 5316673
REMARK  10 active torsions:
REMARK  status: ('A' for Active; 'I' for Inactive)
REMARK    1  A    between atoms: O_2  and  C_15
REMARK    2  A    between atoms: O_2  and  C_17
REMARK    3  A    between atoms: O_3  and  C_11
REMARK    4  A    between atoms: O_4  and  C_12
REMARK    5  A    between atoms: O_5  and  C_13
REMARK    6  A    between atoms: O_8  and  C_23
REMARK    7  A    between atoms: O_9  and  C_28
REMARK    8  A    between atoms: O_10  and  C_31
REMARK    9  A    between atoms: C_14  and  C_16
REMARK   10  A    between atoms: C_18  and  C_22
REMARK                            x       y       z     vdW  Elec       q    Type
REMARK                         _______ _______ _______ _____ _____    ______ ____
ROOT
ATOM      1  O   UNL     1      79.048  91.469 110.462  0.00  0.00    +0.000 OA
ATOM      2  O   UNL     1      76.531  91.152 113.652  0.00  0.00    +0.000 OA
ATOM      3  C   UNL     1      76.818  91.707 111.367  0.00  0.00    +0.000 A 
ATOM      4  C   UNL     1      77.704  91.795 110.359  0.00  0.00    +0.000 A 
ATOM      5  C   UNL     1      77.290  91.250 112.697  0.00  0.00    +0.000 A 
ATOM      6  C   UNL     1      78.719  90.919 112.804  0.00  0.00    +0.000 A 
ATOM      7  C   UNL     1      79.526  91.046 111.675  0.00  0.00    +0.000 A 
ATOM      8  C   UNL     1      79.263  90.482 114.014  0.00  0.00    +0.000 A 
ATOM      9  C   UNL     1      80.884  90.737 111.750  0.00  0.00    +0.000 A 
ATOM     10  C   UNL     1      80.621  90.173 114.087  0.00  0.00    +0.000 A 
ATOM     11  C   UNL     1      81.431  90.300 112.957  0.00  0.00    +0.000 A 
ENDROOT
BRANCH   4  12
ATOM     12  C   UNL     1      77.321  92.231 109.005  0.00  0.00    +0.000 A 
ATOM     13  C   UNL     1      76.419  91.473 108.256  0.00  0.00    +0.000 A 
ATOM     14  C   UNL     1      77.858  93.402 108.470  0.00  0.00    +0.000 A 
ATOM     15  C   UNL     1      76.056  91.887 106.973  0.00  0.00    +0.000 A 
ATOM     16  C   UNL     1      77.495  93.816 107.189  0.00  0.00    +0.000 A 
ATOM     17  C   UNL     1      76.594  93.059 106.440  0.00  0.00    +0.000 A 
BRANCH  17  18
ATOM     18  O   UNL     1      76.240  93.463 105.190  0.00  0.00    +0.000 OA
ATOM     19  H   UNL     1      75.754  94.303 105.257  0.00  0.00    +0.000 HD
ENDBRANCH  17  18
ENDBRANCH   4  12
BRANCH   8  20
ATOM     20  O   UNL     1      78.517  90.341 115.145  0.00  0.00    +0.000 OA
ATOM     21  H   UNL     1      79.101  90.134 115.895  0.00  0.00    +0.000 HD
ENDBRANCH   8  20
BRANCH  11  22
ATOM     22  O   UNL     1      82.756  89.998 113.033  0.00  0.00    +0.000 OA
ATOM     23  H   UNL     1      82.862  89.158 113.512  0.00  0.00    +0.000 HD
ENDBRANCH  11  22
BRANCH   3  24
ATOM     24  O   UNL     1      75.480  92.007 111.223  0.00  0.00    +0.000 OA
BRANCH  24  30
ATOM     25  O   UNL     1      74.787  93.822 112.584  0.00  0.00    +0.000 OA
ATOM     26  C   UNL     1      72.845  93.297 110.535  0.00  0.00    +0.000 C 
ATOM     27  C   UNL     1      72.428  93.694 111.951  0.00  0.00    +0.000 C 
ATOM     28  C   UNL     1      74.247  93.819 110.211  0.00  0.00    +0.000 C 
ATOM     29  C   UNL     1      73.514  93.284 112.955  0.00  0.00    +0.000 C 
ATOM     30  C   UNL     1      75.244  93.410 111.292  0.00  0.00    +0.000 C 
ATOM     31  C   UNL     1      73.210  93.789 114.363  0.00  0.00    +0.000 C 
BRANCH  26  32
ATOM     32  O   UNL     1      71.904  93.823 109.603  0.00  0.00    +0.000 OA
ATOM     33  H   UNL     1      71.078  94.002 110.085  0.00  0.00    +0.000 HD
ENDBRANCH  26  32
BRANCH  27  34
ATOM     34  O   UNL     1      71.201  93.033 112.253  0.00  0.00    +0.000 OA
ATOM     35  H   UNL     1      70.517  93.711 112.383  0.00  0.00    +0.000 HD
ENDBRANCH  27  34
BRANCH  28  36
ATOM     36  O   UNL     1      74.232  95.246 110.149  0.00  0.00    +0.000 OA
ATOM     37  H   UNL     1      75.124  95.558 110.375  0.00  0.00    +0.000 HD
ENDBRANCH  28  36
ENDBRANCH  24  30
ENDBRANCH   3  24
TORSDOF 9
ENDMDL
