MODEL 1
REMARK VINA RESULT:      -7.7      0.000      0.000
REMARK  12 active torsions:
REMARK  status: ('A' for Active; 'I' for Inactive)
REMARK    1  A    between atoms: O_1  and  C_10 
REMARK    2  A    between atoms: O_2  and  C_17 
REMARK    3  A    between atoms: O_3  and  C_20 
REMARK    4  A    between atoms: O_4  and  C_27 
REMARK    5  A    between atoms: O_6  and  C_29 
REMARK    6  A    between atoms: O_7  and  C_28 
REMARK    7  A    between atoms: O_8  and  C_33 
REMARK    8  A    between atoms: C_11  and  C_20 
REMARK    9  A    between atoms: C_20  and  C_28 
REMARK   10  A    between atoms: C_28  and  C_31 
REMARK   11  A    between atoms: C_31  and  C_32 
REMARK   12  A    between atoms: C_32  and  C_33 
ROOT
HETATM    1  O   UNK     0     174.738 178.594 171.450  0.00  0.00    -0.384 OA
HETATM    2  H   UNK     0     174.616 177.853 172.060  0.00  0.00     0.211 HD
ENDROOT
BRANCH   1   3
HETATM    3  C   UNK     0     175.397 178.169 170.236  0.00  0.00     0.090 C 
HETATM    4  C   UNK     0     176.839 177.703 170.562  0.00  0.00    -0.000 C 
HETATM    5  C   UNK     0     177.465 179.030 171.066  0.00  0.00     0.034 C 
HETATM    6  C   UNK     0     176.767 176.601 171.629  0.00  0.00     0.045 C 
HETATM    7  C   UNK     0     177.603 177.171 169.318  0.00  0.00     0.019 C 
HETATM    8  C   UNK     0     176.878 180.098 170.115  0.00  0.00     0.012 C 
HETATM    9  C   UNK     0     175.648 179.456 169.436  0.00  0.00     0.044 C 
HETATM   10  C   UNK     0     175.910 175.410 171.154  0.00  0.00     0.128 C 
HETATM   11  C   UNK     0     174.478 175.803 170.630  0.00  0.00     0.055 C 
HETATM   12  C   UNK     0     173.658 174.582 170.021  0.00  0.00    -0.021 C 
HETATM   13  C   UNK     0     174.564 177.026 169.693  0.00  0.00    -0.034 C 
HETATM   14  C   UNK     0     172.480 175.106 169.148  0.00  0.00     0.071 C 
HETATM   15  C   UNK     0     173.099 173.642 171.152  0.00  0.00     0.045 C 
HETATM   16  C   UNK     0     174.567 173.713 169.107  0.00  0.00     0.017 C 
HETATM   17  C   UNK     0     171.327 175.763 169.927  0.00  0.00     0.047 C 
HETATM   18  C   UNK     0     172.972 176.077 168.096  0.00  0.00     0.154 C 
HETATM   19  C   UNK     0     171.132 175.198 171.329  0.00  0.00     0.147 C 
HETATM   20  C   UNK     0     171.597 173.752 171.429  0.00  0.00     0.147 C 
HETATM   21  O   UNK     0     172.540 176.068 166.945  0.00  0.00    -0.293 OA
HETATM   22  C   UNK     0     173.929 177.120 168.515  0.00  0.00     0.057 C 
BRANCH   5  23
HETATM   23  C   UNK     0     178.985 179.079 171.145  0.00  0.00     0.084 C 
HETATM   24  C   UNK     0     179.556 179.659 169.841  0.00  0.00     0.049 C 
BRANCH  23  25
HETATM   25  O   UNK     0     179.355 179.968 172.207  0.00  0.00    -0.387 OA
HETATM   26  H   UNK     0     179.333 180.880 171.876  0.00  0.00     0.210 HD
ENDBRANCH  23  25
BRANCH  23  27
HETATM   27  C   UNK     0     179.603 177.685 171.442  0.00  0.00     0.152 C 
BRANCH  27  28
HETATM   28  O   UNK     0     179.840 177.556 172.848  0.00  0.00    -0.393 OA
HETATM   29  H   UNK     0     180.646 178.059 173.054  0.00  0.00     0.210 HD
ENDBRANCH  27  28
BRANCH  27  30
HETATM   30  C   UNK     0     180.925 177.408 170.700  0.00  0.00     0.037 C 
BRANCH  30  31
HETATM   31  C   UNK     0     181.038 175.940 170.250  0.00  0.00     0.040 C 
BRANCH  31  32
HETATM   32  C   UNK     0     181.751 175.015 171.258  0.00  0.00     0.051 C 
HETATM   33  C   UNK     0     180.723 174.101 171.933  0.00  0.00     0.045 C 
HETATM   34  C   UNK     0     182.849 174.171 170.604  0.00  0.00     0.045 C 
BRANCH  32  35
HETATM   35  O   UNK     0     182.348 175.827 172.271  0.00  0.00    -0.391 OA
HETATM   36  H   UNK     0     183.279 175.981 172.036  0.00  0.00     0.210 HD
ENDBRANCH  32  35
ENDBRANCH  31  32
ENDBRANCH  30  31
ENDBRANCH  27  30
ENDBRANCH  23  27
ENDBRANCH   5  23
BRANCH  10  37
HETATM   37  O   UNK     0     175.812 174.501 172.246  0.00  0.00    -0.395 OA
HETATM   38  H   UNK     0     175.934 173.602 171.895  0.00  0.00     0.210 HD
ENDBRANCH  10  37
BRANCH  19  39
HETATM   39  O   UNK     0     169.754 175.303 171.677  0.00  0.00    -0.393 OA
HETATM   40  H   UNK     0     169.678 175.886 172.451  0.00  0.00     0.210 HD
ENDBRANCH  19  39
BRANCH  20  41
HETATM   41  O   UNK     0     170.890 172.937 170.492  0.00  0.00    -0.393 OA
HETATM   42  H   UNK     0     169.952 172.941 170.747  0.00  0.00     0.210 HD
ENDBRANCH  20  41
ENDBRANCH   1   3
TORSDOF 12
ENDMDL
MODEL 2
REMARK VINA RESULT:      -7.6      5.973     11.887
REMARK  12 active torsions:
REMARK  status: ('A' for Active; 'I' for Inactive)
REMARK    1  A    between atoms: O_1  and  C_10 
REMARK    2  A    between atoms: O_2  and  C_17 
REMARK    3  A    between atoms: O_3  and  C_20 
REMARK    4  A    between atoms: O_4  and  C_27 
REMARK    5  A    between atoms: O_6  and  C_29 
REMARK    6  A    between atoms: O_7  and  C_28 
REMARK    7  A    between atoms: O_8  and  C_33 
REMARK    8  A    between atoms: C_11  and  C_20 
REMARK    9  A    between atoms: C_20  and  C_28 
REMARK   10  A    between atoms: C_28  and  C_31 
REMARK   11  A    between atoms: C_31  and  C_32 
REMARK   12  A    between atoms: C_32  and  C_33 
ROOT
HETATM    1  O   UNK     0     183.728 180.591 172.431  0.00  0.00    -0.384 OA
HETATM    2  H   UNK     0     183.751 180.960 173.326  0.00  0.00     0.211 HD
ENDROOT
BRANCH   1   3
HETATM    3  C   UNK     0     183.191 181.545 171.486  0.00  0.00     0.090 C 
HETATM    4  C   UNK     0     181.700 181.817 171.813  0.00  0.00    -0.000 C 
HETATM    5  C   UNK     0     181.087 180.416 171.554  0.00  0.00     0.034 C 
HETATM    6  C   UNK     0     181.596 182.285 173.271  0.00  0.00     0.045 C 
HETATM    7  C   UNK     0     181.057 182.880 170.879  0.00  0.00     0.019 C 
HETATM    8  C   UNK     0     181.831 179.917 170.293  0.00  0.00     0.012 C 
HETATM    9  C   UNK     0     183.097 180.791 170.153  0.00  0.00     0.044 C 
HETATM   10  C   UNK     0     182.441 183.551 173.519  0.00  0.00     0.128 C 
HETATM   11  C   UNK     0     183.940 183.437 173.054  0.00  0.00     0.055 C 
HETATM   12  C   UNK     0     184.764 184.793 173.195  0.00  0.00    -0.021 C 
HETATM   13  C   UNK     0     184.023 182.801 171.650  0.00  0.00    -0.034 C 
HETATM   14  C   UNK     0     186.057 184.731 172.332  0.00  0.00     0.071 C 
HETATM   15  C   UNK     0     185.142 185.083 174.695  0.00  0.00     0.045 C 
HETATM   16  C   UNK     0     183.922 185.999 172.692  0.00  0.00     0.017 C 
HETATM   17  C   UNK     0     187.145 183.773 172.847  0.00  0.00     0.047 C 
HETATM   18  C   UNK     0     185.736 184.375 170.895  0.00  0.00     0.154 C 
HETATM   19  C   UNK     0     187.152 183.608 174.363  0.00  0.00     0.147 C 
HETATM   20  C   UNK     0     186.608 184.841 175.071  0.00  0.00     0.147 C 
HETATM   21  O   UNK     0     186.296 184.921 169.947  0.00  0.00    -0.293 OA
HETATM   22  C   UNK     0     184.791 183.267 170.655  0.00  0.00     0.057 C 
BRANCH   5  23
HETATM   23  C   UNK     0     179.573 180.350 171.412  0.00  0.00     0.084 C 
HETATM   24  C   UNK     0     178.994 179.367 172.442  0.00  0.00     0.049 C 
BRANCH  23  25
HETATM   25  O   UNK     0     179.034 181.646 171.706  0.00  0.00    -0.387 OA
HETATM   26  H   UNK     0     179.437 182.298 171.110  0.00  0.00     0.210 HD
ENDBRANCH  23  25
BRANCH  23  27
HETATM   27  C   UNK     0     179.134 179.959 169.974  0.00  0.00     0.152 C 
BRANCH  27  28
HETATM   28  O   UNK     0     178.481 181.070 169.353  0.00  0.00    -0.393 OA
HETATM   29  H   UNK     0     178.626 180.995 168.394  0.00  0.00     0.210 HD
ENDBRANCH  27  28
BRANCH  27  30
HETATM   30  C   UNK     0     178.190 178.743 169.910  0.00  0.00     0.037 C 
BRANCH  30  31
HETATM   31  C   UNK     0     177.105 178.912 168.831  0.00  0.00     0.040 C 
BRANCH  31  32
HETATM   32  C   UNK     0     175.690 179.186 169.382  0.00  0.00     0.051 C 
HETATM   33  C   UNK     0     174.644 178.601 168.427  0.00  0.00     0.045 C 
HETATM   34  C   UNK     0     175.488 178.614 170.788  0.00  0.00     0.045 C 
BRANCH  32  35
HETATM   35  O   UNK     0     175.493 180.600 169.437  0.00  0.00    -0.391 OA
HETATM   36  H   UNK     0     176.186 180.988 169.996  0.00  0.00     0.210 HD
ENDBRANCH  32  35
ENDBRANCH  31  32
ENDBRANCH  30  31
ENDBRANCH  27  30
ENDBRANCH  23  27
ENDBRANCH   5  23
BRANCH  10  37
HETATM   37  O   UNK     0     182.370 183.837 174.913  0.00  0.00    -0.395 OA
HETATM   38  H   UNK     0     181.516 184.272 175.082  0.00  0.00     0.210 HD
ENDBRANCH  10  37
BRANCH  19  39
HETATM   39  O   UNK     0     188.485 183.338 174.789  0.00  0.00    -0.393 OA
HETATM   40  H   UNK     0     189.092 183.610 174.080  0.00  0.00     0.210 HD
ENDBRANCH  19  39
BRANCH  20  41
HETATM   41  O   UNK     0     187.375 185.994 174.721  0.00  0.00    -0.393 OA
HETATM   42  H   UNK     0     188.306 185.723 174.668  0.00  0.00     0.210 HD
ENDBRANCH  20  41
ENDBRANCH   1   3
TORSDOF 12
ENDMDL
MODEL 3
REMARK VINA RESULT:      -7.6      5.930     11.457
REMARK  12 active torsions:
REMARK  status: ('A' for Active; 'I' for Inactive)
REMARK    1  A    between atoms: O_1  and  C_10 
REMARK    2  A    between atoms: O_2  and  C_17 
REMARK    3  A    between atoms: O_3  and  C_20 
REMARK    4  A    between atoms: O_4  and  C_27 
REMARK    5  A    between atoms: O_6  and  C_29 
REMARK    6  A    between atoms: O_7  and  C_28 
REMARK    7  A    between atoms: O_8  and  C_33 
REMARK    8  A    between atoms: C_11  and  C_20 
REMARK    9  A    between atoms: C_20  and  C_28 
REMARK   10  A    between atoms: C_28  and  C_31 
REMARK   11  A    between atoms: C_31  and  C_32 
REMARK   12  A    between atoms: C_32  and  C_33 
ROOT
HETATM    1  O   UNK     0     183.713 180.519 172.707  0.00  0.00    -0.384 OA
HETATM    2  H   UNK     0     183.061 180.504 173.423  0.00  0.00     0.211 HD
ENDROOT
BRANCH   1   3
HETATM    3  C   UNK     0     183.279 181.370 171.622  0.00  0.00     0.090 C 
HETATM    4  C   UNK     0     181.739 181.545 171.683  0.00  0.00    -0.000 C 
HETATM    5  C   UNK     0     181.272 180.088 171.431  0.00  0.00     0.034 C 
HETATM    6  C   UNK     0     181.364 182.091 173.068  0.00  0.00     0.045 C 
HETATM    7  C   UNK     0     181.192 182.497 170.584  0.00  0.00     0.019 C 
HETATM    8  C   UNK     0     182.247 179.572 170.346  0.00  0.00     0.012 C 
HETATM    9  C   UNK     0     183.457 180.531 170.349  0.00  0.00     0.044 C 
HETATM   10  C   UNK     0     182.070 183.431 173.357  0.00  0.00     0.128 C 
HETATM   11  C   UNK     0     183.630 183.405 173.149  0.00  0.00     0.055 C 
HETATM   12  C   UNK     0     184.327 184.827 173.323  0.00  0.00    -0.021 C 
HETATM   13  C   UNK     0     183.987 182.694 171.827  0.00  0.00    -0.034 C 
HETATM   14  C   UNK     0     185.747 184.813 172.686  0.00  0.00     0.071 C 
HETATM   15  C   UNK     0     184.431 185.236 174.839  0.00  0.00     0.045 C 
HETATM   16  C   UNK     0     183.503 185.932 172.604  0.00  0.00     0.017 C 
HETATM   17  C   UNK     0     186.796 183.975 173.438  0.00  0.00     0.047 C 
HETATM   18  C   UNK     0     185.694 184.347 171.246  0.00  0.00     0.154 C 
HETATM   19  C   UNK     0     186.561 183.903 174.943  0.00  0.00     0.147 C 
HETATM   20  C   UNK     0     185.826 185.131 175.463  0.00  0.00     0.147 C 
HETATM   21  O   UNK     0     186.366 184.876 170.363  0.00  0.00    -0.293 OA
HETATM   22  C   UNK     0     184.877 183.157 170.938  0.00  0.00     0.057 C 
BRANCH   5  23
HETATM   23  C   UNK     0     179.810 179.897 171.051  0.00  0.00     0.084 C 
HETATM   24  C   UNK     0     179.172 178.830 171.955  0.00  0.00     0.049 C 
BRANCH  23  25
HETATM   25  O   UNK     0     179.117 181.129 171.287  0.00  0.00    -0.387 OA
HETATM   26  H   UNK     0     178.844 181.506 170.435  0.00  0.00     0.210 HD
ENDBRANCH  23  25
BRANCH  23  27
HETATM   27  C   UNK     0     179.636 179.522 169.554  0.00  0.00     0.152 C 
BRANCH  27  28
HETATM   28  O   UNK     0     178.944 180.575 168.874  0.00  0.00    -0.393 OA
HETATM   29  H   UNK     0     178.884 181.327 169.487  0.00  0.00     0.210 HD
ENDBRANCH  27  28
BRANCH  27  30
HETATM   30  C   UNK     0     178.872 178.206 169.316  0.00  0.00     0.037 C 
BRANCH  30  31
HETATM   31  C   UNK     0     179.606 177.283 168.327  0.00  0.00     0.040 C 
BRANCH  31  32
HETATM   32  C   UNK     0     179.963 175.892 168.893  0.00  0.00     0.051 C 
HETATM   33  C   UNK     0     180.905 176.052 170.091  0.00  0.00     0.045 C 
HETATM   34  C   UNK     0     178.725 175.092 169.307  0.00  0.00     0.045 C 
BRANCH  32  35
HETATM   35  O   UNK     0     180.658 175.159 167.882  0.00  0.00    -0.391 OA
HETATM   36  H   UNK     0     181.587 175.445 167.874  0.00  0.00     0.210 HD
ENDBRANCH  32  35
ENDBRANCH  31  32
ENDBRANCH  30  31
ENDBRANCH  27  30
ENDBRANCH  23  27
ENDBRANCH   5  23
BRANCH  10  37
HETATM   37  O   UNK     0     181.749 183.795 174.696  0.00  0.00    -0.395 OA
HETATM   38  H   UNK     0     180.856 183.461 174.888  0.00  0.00     0.210 HD
ENDBRANCH  10  37
BRANCH  19  39
HETATM   39  O   UNK     0     187.819 183.763 175.597  0.00  0.00    -0.393 OA
HETATM   40  H   UNK     0     188.498 183.601 174.920  0.00  0.00     0.210 HD
ENDBRANCH  19  39
BRANCH  20  41
HETATM   41  O   UNK     0     186.562 186.317 175.159  0.00  0.00    -0.393 OA
HETATM   42  H   UNK     0     187.422 186.044 174.797  0.00  0.00     0.210 HD
ENDBRANCH  20  41
ENDBRANCH   1   3
TORSDOF 12
ENDMDL
MODEL 4
REMARK VINA RESULT:      -7.6      2.262      8.404
REMARK  12 active torsions:
REMARK  status: ('A' for Active; 'I' for Inactive)
REMARK    1  A    between atoms: O_1  and  C_10 
REMARK    2  A    between atoms: O_2  and  C_17 
REMARK    3  A    between atoms: O_3  and  C_20 
REMARK    4  A    between atoms: O_4  and  C_27 
REMARK    5  A    between atoms: O_6  and  C_29 
REMARK    6  A    between atoms: O_7  and  C_28 
REMARK    7  A    between atoms: O_8  and  C_33 
REMARK    8  A    between atoms: C_11  and  C_20 
REMARK    9  A    between atoms: C_20  and  C_28 
REMARK   10  A    between atoms: C_28  and  C_31 
REMARK   11  A    between atoms: C_31  and  C_32 
REMARK   12  A    between atoms: C_32  and  C_33 
ROOT
HETATM    1  O   UNK     0     177.644 177.227 170.180  0.00  0.00    -0.384 OA
HETATM    2  H   UNK     0     177.807 176.690 169.391  0.00  0.00     0.211 HD
ENDROOT
BRANCH   1   3
HETATM    3  C   UNK     0     177.216 176.408 171.291  0.00  0.00     0.090 C 
HETATM    4  C   UNK     0     176.216 175.334 170.790  0.00  0.00    -0.000 C 
HETATM    5  C   UNK     0     175.044 176.230 170.313  0.00  0.00     0.034 C 
HETATM    6  C   UNK     0     176.885 174.529 169.667  0.00  0.00     0.045 C 
HETATM    7  C   UNK     0     175.748 174.367 171.914  0.00  0.00     0.019 C 
HETATM    8  C   UNK     0     174.969 177.341 171.386  0.00  0.00     0.012 C 
HETATM    9  C   UNK     0     176.316 177.314 172.143  0.00  0.00     0.044 C 
HETATM   10  C   UNK     0     178.191 173.866 170.149  0.00  0.00     0.128 C 
HETATM   11  C   UNK     0     179.207 174.850 170.839  0.00  0.00     0.055 C 
HETATM   12  C   UNK     0     180.490 174.128 171.448  0.00  0.00    -0.021 C 
HETATM   13  C   UNK     0     178.474 175.767 171.841  0.00  0.00    -0.034 C 
HETATM   14  C   UNK     0     181.202 175.064 172.468  0.00  0.00     0.071 C 
HETATM   15  C   UNK     0     181.504 173.708 170.321  0.00  0.00     0.045 C 
HETATM   16  C   UNK     0     180.082 172.834 172.206  0.00  0.00     0.017 C 
HETATM   17  C   UNK     0     181.919 176.280 171.855  0.00  0.00     0.047 C 
HETATM   18  C   UNK     0     180.234 175.553 173.526  0.00  0.00     0.154 C 
HETATM   19  C   UNK     0     182.447 176.036 170.445  0.00  0.00     0.147 C 
HETATM   20  C   UNK     0     182.767 174.567 170.205  0.00  0.00     0.147 C 
HETATM   21  O   UNK     0     180.549 175.634 174.711  0.00  0.00    -0.293 OA
HETATM   22  C   UNK     0     178.912 176.033 173.080  0.00  0.00     0.057 C 
BRANCH   5  23
HETATM   23  C   UNK     0     173.707 175.539 170.084  0.00  0.00     0.084 C 
HETATM   24  C   UNK     0     173.528 174.400 171.101  0.00  0.00     0.049 C 
BRANCH  23  25
HETATM   25  O   UNK     0     172.659 176.490 170.317  0.00  0.00    -0.387 OA
HETATM   26  H   UNK     0     172.927 177.083 171.038  0.00  0.00     0.210 HD
ENDBRANCH  23  25
BRANCH  23  27
HETATM   27  C   UNK     0     173.563 175.005 168.633  0.00  0.00     0.152 C 
BRANCH  27  28
HETATM   28  O   UNK     0     172.550 175.749 167.947  0.00  0.00    -0.393 OA
HETATM   29  H   UNK     0     171.873 175.116 167.653  0.00  0.00     0.210 HD
ENDBRANCH  27  28
BRANCH  27  30
HETATM   30  C   UNK     0     173.210 173.508 168.541  0.00  0.00     0.037 C 
BRANCH  30  31
HETATM   31  C   UNK     0     171.991 173.257 167.636  0.00  0.00     0.040 C 
BRANCH  31  32
HETATM   32  C   UNK     0     170.668 173.018 168.394  0.00  0.00     0.051 C 
HETATM   33  C   UNK     0     169.741 172.140 167.547  0.00  0.00     0.045 C 
HETATM   34  C   UNK     0     170.887 172.373 169.765  0.00  0.00     0.045 C 
BRANCH  32  35
HETATM   35  O   UNK     0     170.025 174.279 168.586  0.00  0.00    -0.391 OA
HETATM   36  H   UNK     0     170.700 174.941 168.812  0.00  0.00     0.210 HD
ENDBRANCH  32  35
ENDBRANCH  31  32
ENDBRANCH  30  31
ENDBRANCH  27  30
ENDBRANCH  23  27
ENDBRANCH   5  23
BRANCH  10  37
HETATM   37  O   UNK     0     178.789 173.242 169.016  0.00  0.00    -0.395 OA
HETATM   38  H   UNK     0     178.114 173.188 168.318  0.00  0.00     0.210 HD
ENDBRANCH  10  37
BRANCH  19  39
HETATM   39  O   UNK     0     183.608 176.837 170.246  0.00  0.00    -0.393 OA
HETATM   40  H   UNK     0     183.388 177.755 170.474  0.00  0.00     0.210 HD
ENDBRANCH  19  39
BRANCH  20  41
HETATM   41  O   UNK     0     183.731 174.106 171.154  0.00  0.00    -0.393 OA
HETATM   42  H   UNK     0     183.445 174.407 172.033  0.00  0.00     0.210 HD
ENDBRANCH  20  41
ENDBRANCH   1   3
TORSDOF 12
ENDMDL
MODEL 5
REMARK VINA RESULT:      -7.5     10.588     15.089
REMARK  12 active torsions:
REMARK  status: ('A' for Active; 'I' for Inactive)
REMARK    1  A    between atoms: O_1  and  C_10 
REMARK    2  A    between atoms: O_2  and  C_17 
REMARK    3  A    between atoms: O_3  and  C_20 
REMARK    4  A    between atoms: O_4  and  C_27 
REMARK    5  A    between atoms: O_6  and  C_29 
REMARK    6  A    between atoms: O_7  and  C_28 
REMARK    7  A    between atoms: O_8  and  C_33 
REMARK    8  A    between atoms: C_11  and  C_20 
REMARK    9  A    between atoms: C_20  and  C_28 
REMARK   10  A    between atoms: C_28  and  C_31 
REMARK   11  A    between atoms: C_31  and  C_32 
REMARK   12  A    between atoms: C_32  and  C_33 
ROOT
HETATM    1  O   UNK     0     185.209 185.420 170.011  0.00  0.00    -0.384 OA
HETATM    2  H   UNK     0     185.064 184.855 170.783  0.00  0.00     0.211 HD
ENDROOT
BRANCH   1   3
HETATM    3  C   UNK     0     186.191 186.444 170.289  0.00  0.00     0.090 C 
HETATM    4  C   UNK     0     187.078 186.004 171.482  0.00  0.00    -0.000 C 
HETATM    5  C   UNK     0     186.027 185.955 172.622  0.00  0.00     0.034 C 
HETATM    6  C   UNK     0     187.702 184.641 171.150  0.00  0.00     0.045 C 
HETATM    7  C   UNK     0     188.203 187.023 171.813  0.00  0.00     0.019 C 
HETATM    8  C   UNK     0     185.136 187.190 172.353  0.00  0.00     0.012 C 
HETATM    9  C   UNK     0     185.400 187.615 170.891  0.00  0.00     0.044 C 
HETATM   10  C   UNK     0     188.535 184.703 169.853  0.00  0.00     0.128 C 
HETATM   11  C   UNK     0     187.773 185.307 168.616  0.00  0.00     0.055 C 
HETATM   12  C   UNK     0     188.685 185.486 167.322  0.00  0.00    -0.021 C 
HETATM   13  C   UNK     0     187.010 186.586 169.023  0.00  0.00    -0.034 C 
HETATM   14  C   UNK     0     188.010 186.466 166.319  0.00  0.00     0.071 C 
HETATM   15  C   UNK     0     188.956 184.108 166.613  0.00  0.00     0.045 C 
HETATM   16  C   UNK     0     190.066 186.087 167.705  0.00  0.00     0.017 C 
HETATM   17  C   UNK     0     186.754 185.923 165.614  0.00  0.00     0.047 C 
HETATM   18  C   UNK     0     187.662 187.779 166.989  0.00  0.00     0.154 C 
HETATM   19  C   UNK     0     186.766 184.411 165.415  0.00  0.00     0.147 C 
HETATM   20  C   UNK     0     188.182 183.862 165.314  0.00  0.00     0.147 C 
HETATM   21  O   UNK     0     187.828 188.861 166.431  0.00  0.00    -0.293 OA
HETATM   22  C   UNK     0     187.014 187.724 168.315  0.00  0.00     0.057 C 
BRANCH   5  23
HETATM   23  C   UNK     0     186.567 185.915 174.045  0.00  0.00     0.084 C 
HETATM   24  C   UNK     0     187.457 184.675 174.230  0.00  0.00     0.049 C 
BRANCH  23  25
HETATM   25  O   UNK     0     187.392 187.069 174.249  0.00  0.00    -0.387 OA
HETATM   26  H   UNK     0     187.060 187.562 175.018  0.00  0.00     0.210 HD
ENDBRANCH  23  25
BRANCH  23  27
HETATM   27  C   UNK     0     185.431 185.938 175.104  0.00  0.00     0.152 C 
BRANCH  27  28
HETATM   28  O   UNK     0     185.901 186.577 176.296  0.00  0.00    -0.393 OA
HETATM   29  H   UNK     0     186.850 186.751 176.179  0.00  0.00     0.210 HD
ENDBRANCH  27  28
BRANCH  27  30
HETATM   30  C   UNK     0     184.891 184.545 175.482  0.00  0.00     0.037 C 
BRANCH  30  31
HETATM   31  C   UNK     0     183.713 184.121 174.587  0.00  0.00     0.040 C 
BRANCH  31  32
HETATM   32  C   UNK     0     183.912 182.772 173.863  0.00  0.00     0.051 C 
HETATM   33  C   UNK     0     182.675 181.892 174.068  0.00  0.00     0.045 C 
HETATM   34  C   UNK     0     184.186 182.945 172.367  0.00  0.00     0.045 C 
BRANCH  32  35
HETATM   35  O   UNK     0     185.029 182.105 174.453  0.00  0.00    -0.391 OA
HETATM   36  H   UNK     0     184.700 181.367 174.993  0.00  0.00     0.210 HD
ENDBRANCH  32  35
ENDBRANCH  31  32
ENDBRANCH  30  31
ENDBRANCH  27  30
ENDBRANCH  23  27
ENDBRANCH   5  23
BRANCH  10  37
HETATM   37  O   UNK     0     188.974 183.377 169.572  0.00  0.00    -0.395 OA
HETATM   38  H   UNK     0     189.701 183.170 170.185  0.00  0.00     0.210 HD
ENDBRANCH  10  37
BRANCH  19  39
HETATM   39  O   UNK     0     186.026 184.098 164.239  0.00  0.00    -0.393 OA
HETATM   40  H   UNK     0     185.339 184.775 164.122  0.00  0.00     0.210 HD
ENDBRANCH  19  39
BRANCH  20  41
HETATM   41  O   UNK     0     188.880 184.483 164.233  0.00  0.00    -0.393 OA
HETATM   42  H   UNK     0     189.830 184.337 164.374  0.00  0.00     0.210 HD
ENDBRANCH  20  41
ENDBRANCH   1   3
TORSDOF 12
ENDMDL
MODEL 6
REMARK VINA RESULT:      -7.5      5.921     11.417
REMARK  12 active torsions:
REMARK  status: ('A' for Active; 'I' for Inactive)
REMARK    1  A    between atoms: O_1  and  C_10 
REMARK    2  A    between atoms: O_2  and  C_17 
REMARK    3  A    between atoms: O_3  and  C_20 
REMARK    4  A    between atoms: O_4  and  C_27 
REMARK    5  A    between atoms: O_6  and  C_29 
REMARK    6  A    between atoms: O_7  and  C_28 
REMARK    7  A    between atoms: O_8  and  C_33 
REMARK    8  A    between atoms: C_11  and  C_20 
REMARK    9  A    between atoms: C_20  and  C_28 
REMARK   10  A    between atoms: C_28  and  C_31 
REMARK   11  A    between atoms: C_31  and  C_32 
REMARK   12  A    between atoms: C_32  and  C_33 
ROOT
HETATM    1  O   UNK     0     183.882 180.565 172.606  0.00  0.00    -0.384 OA
HETATM    2  H   UNK     0     183.267 180.558 173.353  0.00  0.00     0.211 HD
ENDROOT
BRANCH   1   3
HETATM    3  C   UNK     0     183.418 181.444 171.555  0.00  0.00     0.090 C 
HETATM    4  C   UNK     0     181.872 181.549 171.610  0.00  0.00    -0.000 C 
HETATM    5  C   UNK     0     181.471 180.085 171.291  0.00  0.00     0.034 C 
HETATM    6  C   UNK     0     181.463 182.016 173.014  0.00  0.00     0.045 C 
HETATM    7  C   UNK     0     181.290 182.524 170.549  0.00  0.00     0.019 C 
HETATM    8  C   UNK     0     182.474 179.660 170.193  0.00  0.00     0.012 C 
HETATM    9  C   UNK     0     183.642 180.670 170.248  0.00  0.00     0.044 C 
HETATM   10  C   UNK     0     182.109 183.372 173.368  0.00  0.00     0.128 C 
HETATM   11  C   UNK     0     183.670 183.423 173.173  0.00  0.00     0.055 C 
HETATM   12  C   UNK     0     184.302 184.864 173.414  0.00  0.00    -0.021 C 
HETATM   13  C   UNK     0     184.066 182.787 171.824  0.00  0.00    -0.034 C 
HETATM   14  C   UNK     0     185.726 184.940 172.789  0.00  0.00     0.071 C 
HETATM   15  C   UNK     0     184.378 185.210 174.947  0.00  0.00     0.045 C 
HETATM   16  C   UNK     0     183.436 185.963 172.737  0.00  0.00     0.017 C 
HETATM   17  C   UNK     0     186.805 184.116 173.514  0.00  0.00     0.047 C 
HETATM   18  C   UNK     0     185.703 184.536 171.330  0.00  0.00     0.154 C 
HETATM   19  C   UNK     0     186.564 183.967 175.012  0.00  0.00     0.147 C 
HETATM   20  C   UNK     0     185.773 185.138 175.578  0.00  0.00     0.147 C 
HETATM   21  O   UNK     0     186.357 185.132 170.478  0.00  0.00    -0.293 OA
HETATM   22  C   UNK     0     184.941 183.326 170.963  0.00  0.00     0.057 C 
BRANCH   5  23
HETATM   23  C   UNK     0     180.021 179.848 170.890  0.00  0.00     0.084 C 
HETATM   24  C   UNK     0     179.159 179.646 172.148  0.00  0.00     0.049 C 
BRANCH  23  25
HETATM   25  O   UNK     0     179.538 181.021 170.224  0.00  0.00    -0.387 OA
HETATM   26  H   UNK     0     179.441 180.828 169.277  0.00  0.00     0.210 HD
ENDBRANCH  23  25
BRANCH  23  27
HETATM   27  C   UNK     0     179.869 178.643 169.922  0.00  0.00     0.152 C 
BRANCH  27  28
HETATM   28  O   UNK     0     178.647 178.770 169.187  0.00  0.00    -0.393 OA
HETATM   29  H   UNK     0     177.988 179.163 169.784  0.00  0.00     0.210 HD
ENDBRANCH  27  28
BRANCH  27  30
HETATM   30  C   UNK     0     179.875 177.268 170.617  0.00  0.00     0.037 C 
BRANCH  30  31
HETATM   31  C   UNK     0     181.051 176.391 170.151  0.00  0.00     0.040 C 
BRANCH  31  32
HETATM   32  C   UNK     0     181.955 175.874 171.290  0.00  0.00     0.051 C 
HETATM   33  C   UNK     0     181.548 176.538 172.610  0.00  0.00     0.045 C 
HETATM   34  C   UNK     0     181.901 174.350 171.436  0.00  0.00     0.045 C 
BRANCH  32  35
HETATM   35  O   UNK     0     183.302 176.253 171.004  0.00  0.00    -0.391 OA
HETATM   36  H   UNK     0     183.578 176.927 171.647  0.00  0.00     0.210 HD
ENDBRANCH  32  35
ENDBRANCH  31  32
ENDBRANCH  30  31
ENDBRANCH  27  30
ENDBRANCH  23  27
ENDBRANCH   5  23
BRANCH  10  37
HETATM   37  O   UNK     0     181.763 183.662 174.719  0.00  0.00    -0.395 OA
HETATM   38  H   UNK     0     180.798 183.772 174.760  0.00  0.00     0.210 HD
ENDBRANCH  10  37
BRANCH  19  39
HETATM   39  O   UNK     0     187.823 183.854 175.669  0.00  0.00    -0.393 OA
HETATM   40  H   UNK     0     187.989 184.679 176.155  0.00  0.00     0.210 HD
ENDBRANCH  19  39
BRANCH  20  41
HETATM   41  O   UNK     0     186.458 186.367 175.333  0.00  0.00    -0.393 OA
HETATM   42  H   UNK     0     186.698 186.387 174.391  0.00  0.00     0.210 HD
ENDBRANCH  20  41
ENDBRANCH   1   3
TORSDOF 12
ENDMDL
MODEL 7
REMARK VINA RESULT:      -7.4      3.206      9.076
REMARK  12 active torsions:
REMARK  status: ('A' for Active; 'I' for Inactive)
REMARK    1  A    between atoms: O_1  and  C_10 
REMARK    2  A    between atoms: O_2  and  C_17 
REMARK    3  A    between atoms: O_3  and  C_20 
REMARK    4  A    between atoms: O_4  and  C_27 
REMARK    5  A    between atoms: O_6  and  C_29 
REMARK    6  A    between atoms: O_7  and  C_28 
REMARK    7  A    between atoms: O_8  and  C_33 
REMARK    8  A    between atoms: C_11  and  C_20 
REMARK    9  A    between atoms: C_20  and  C_28 
REMARK   10  A    between atoms: C_28  and  C_31 
REMARK   11  A    between atoms: C_31  and  C_32 
REMARK   12  A    between atoms: C_32  and  C_33 
ROOT
HETATM    1  O   UNK     0     181.853 177.526 172.840  0.00  0.00    -0.384 OA
HETATM    2  H   UNK     0     182.168 178.284 173.353  0.00  0.00     0.211 HD
ENDROOT
BRANCH   1   3
HETATM    3  C   UNK     0     181.728 177.858 171.439  0.00  0.00     0.090 C 
HETATM    4  C   UNK     0     180.306 177.491 170.942  0.00  0.00    -0.000 C 
HETATM    5  C   UNK     0     180.327 175.950 171.120  0.00  0.00     0.034 C 
HETATM    6  C   UNK     0     179.278 178.208 171.828  0.00  0.00     0.045 C 
HETATM    7  C   UNK     0     180.064 177.871 169.455  0.00  0.00     0.019 C 
HETATM    8  C   UNK     0     181.751 175.548 170.672  0.00  0.00     0.012 C 
HETATM    9  C   UNK     0     182.602 176.837 170.697  0.00  0.00     0.044 C 
HETATM   10  C   UNK     0     179.480 179.737 171.803  0.00  0.00     0.128 C 
HETATM   11  C   UNK     0     180.948 180.208 172.122  0.00  0.00     0.055 C 
HETATM   12  C   UNK     0     181.170 181.777 171.961  0.00  0.00    -0.021 C 
HETATM   13  C   UNK     0     181.970 179.351 171.346  0.00  0.00    -0.034 C 
HETATM   14  C   UNK     0     182.689 182.098 171.858  0.00  0.00     0.071 C 
HETATM   15  C   UNK     0     180.542 182.573 173.164  0.00  0.00     0.045 C 
HETATM   16  C   UNK     0     180.493 182.296 170.662  0.00  0.00     0.017 C 
HETATM   17  C   UNK     0     183.491 181.906 173.157  0.00  0.00     0.047 C 
HETATM   18  C   UNK     0     183.344 181.288 170.759  0.00  0.00     0.154 C 
HETATM   19  C   UNK     0     182.677 182.149 174.424  0.00  0.00     0.147 C 
HETATM   20  C   UNK     0     181.537 183.130 174.187  0.00  0.00     0.147 C 
HETATM   21  O   UNK     0     184.183 181.772 170.002  0.00  0.00    -0.293 OA
HETATM   22  C   UNK     0     183.019 179.850 170.677  0.00  0.00     0.057 C 
BRANCH   5  23
HETATM   23  C   UNK     0     179.238 175.167 170.400  0.00  0.00     0.084 C 
HETATM   24  C   UNK     0     179.598 175.020 168.912  0.00  0.00     0.049 C 
BRANCH  23  25
HETATM   25  O   UNK     0     179.183 173.848 170.959  0.00  0.00    -0.387 OA
HETATM   26  H   UNK     0     180.086 173.497 171.028  0.00  0.00     0.210 HD
ENDBRANCH  23  25
BRANCH  23  27
HETATM   27  C   UNK     0     177.839 175.821 170.563  0.00  0.00     0.152 C 
BRANCH  27  28
HETATM   28  O   UNK     0     177.122 175.163 171.613  0.00  0.00    -0.393 OA
HETATM   29  H   UNK     0     177.601 174.344 171.824  0.00  0.00     0.210 HD
ENDBRANCH  27  28
BRANCH  27  30
HETATM   30  C   UNK     0     176.972 175.787 169.290  0.00  0.00     0.037 C 
BRANCH  30  31
HETATM   31  C   UNK     0     175.684 176.616 169.446  0.00  0.00     0.040 C 
BRANCH  31  32
HETATM   32  C   UNK     0     175.757 178.033 168.838  0.00  0.00     0.051 C 
HETATM   33  C   UNK     0     174.472 178.323 168.056  0.00  0.00     0.045 C 
HETATM   34  C   UNK     0     175.976 179.115 169.899  0.00  0.00     0.045 C 
BRANCH  32  35
HETATM   35  O   UNK     0     176.849 178.073 167.919  0.00  0.00    -0.391 OA
HETATM   36  H   UNK     0     176.707 178.808 167.299  0.00  0.00     0.210 HD
ENDBRANCH  32  35
ENDBRANCH  31  32
ENDBRANCH  30  31
ENDBRANCH  27  30
ENDBRANCH  23  27
ENDBRANCH   5  23
BRANCH  10  37
HETATM   37  O   UNK     0     178.560 180.298 172.735  0.00  0.00    -0.395 OA
HETATM   38  H   UNK     0     177.662 180.129 172.403  0.00  0.00     0.210 HD
ENDBRANCH  10  37
BRANCH  19  39
HETATM   39  O   UNK     0     183.547 182.633 175.442  0.00  0.00    -0.393 OA
HETATM   40  H   UNK     0     183.776 183.555 175.234  0.00  0.00     0.210 HD
ENDBRANCH  19  39
BRANCH  20  41
HETATM   41  O   UNK     0     182.046 184.377 173.711  0.00  0.00    -0.393 OA
HETATM   42  H   UNK     0     181.944 184.386 172.744  0.00  0.00     0.210 HD
ENDBRANCH  20  41
ENDBRANCH   1   3
TORSDOF 12
ENDMDL
MODEL 8
REMARK VINA RESULT:      -7.4      4.370      6.602
REMARK  12 active torsions:
REMARK  status: ('A' for Active; 'I' for Inactive)
REMARK    1  A    between atoms: O_1  and  C_10 
REMARK    2  A    between atoms: O_2  and  C_17 
REMARK    3  A    between atoms: O_3  and  C_20 
REMARK    4  A    between atoms: O_4  and  C_27 
REMARK    5  A    between atoms: O_6  and  C_29 
REMARK    6  A    between atoms: O_7  and  C_28 
REMARK    7  A    between atoms: O_8  and  C_33 
REMARK    8  A    between atoms: C_11  and  C_20 
REMARK    9  A    between atoms: C_20  and  C_28 
REMARK   10  A    between atoms: C_28  and  C_31 
REMARK   11  A    between atoms: C_31  and  C_32 
REMARK   12  A    between atoms: C_32  and  C_33 
ROOT
HETATM    1  O   UNK     0     177.903 178.850 170.784  0.00  0.00    -0.384 OA
HETATM    2  H   UNK     0     177.575 177.940 170.750  0.00  0.00     0.211 HD
ENDROOT
BRANCH   1   3
HETATM    3  C   UNK     0     179.090 179.008 169.973  0.00  0.00     0.090 C 
HETATM    4  C   UNK     0     180.046 180.028 170.643  0.00  0.00    -0.000 C 
HETATM    5  C   UNK     0     179.186 181.317 170.578  0.00  0.00     0.034 C 
HETATM    6  C   UNK     0     180.348 179.550 172.070  0.00  0.00     0.045 C 
HETATM    7  C   UNK     0     181.378 180.214 169.865  0.00  0.00     0.019 C 
HETATM    8  C   UNK     0     178.511 181.239 169.188  0.00  0.00     0.012 C 
HETATM    9  C   UNK     0     178.630 179.771 168.722  0.00  0.00     0.044 C 
HETATM   10  C   UNK     0     180.975 178.140 172.073  0.00  0.00     0.128 C 
HETATM   11  C   UNK     0     180.164 177.063 171.261  0.00  0.00     0.055 C 
HETATM   12  C   UNK     0     180.891 175.649 171.163  0.00  0.00    -0.021 C 
HETATM   13  C   UNK     0     179.724 177.634 169.897  0.00  0.00    -0.034 C 
HETATM   14  C   UNK     0     180.270 174.803 170.014  0.00  0.00     0.071 C 
HETATM   15  C   UNK     0     180.791 174.855 172.518  0.00  0.00     0.045 C 
HETATM   16  C   UNK     0     182.402 175.831 170.846  0.00  0.00     0.017 C 
HETATM   17  C   UNK     0     178.844 174.286 170.275  0.00  0.00     0.047 C 
HETATM   18  C   UNK     0     180.277 175.569 168.707  0.00  0.00     0.154 C 
HETATM   19  C   UNK     0     178.543 174.031 171.748  0.00  0.00     0.147 C 
HETATM   20  C   UNK     0     179.801 173.686 172.534  0.00  0.00     0.147 C 
HETATM   21  O   UNK     0     180.558 175.033 167.638  0.00  0.00    -0.293 OA
HETATM   22  C   UNK     0     179.835 176.977 168.733  0.00  0.00     0.057 C 
BRANCH   5  23
HETATM   23  C   UNK     0     179.914 182.634 170.808  0.00  0.00     0.084 C 
HETATM   24  C   UNK     0     180.961 182.851 169.704  0.00  0.00     0.049 C 
BRANCH  23  25
HETATM   25  O   UNK     0     178.961 183.701 170.712  0.00  0.00    -0.387 OA
HETATM   26  H   UNK     0     179.149 184.220 169.913  0.00  0.00     0.210 HD
ENDBRANCH  23  25
BRANCH  23  27
HETATM   27  C   UNK     0     180.576 182.701 172.212  0.00  0.00     0.152 C 
BRANCH  27  28
HETATM   28  O   UNK     0     179.866 183.634 173.033  0.00  0.00    -0.393 OA
HETATM   29  H   UNK     0     180.333 183.687 173.884  0.00  0.00     0.210 HD
ENDBRANCH  27  28
BRANCH  27  30
HETATM   30  C   UNK     0     182.062 183.106 172.191  0.00  0.00     0.037 C 
BRANCH  30  31
HETATM   31  C   UNK     0     182.904 182.261 173.165  0.00  0.00     0.040 C 
BRANCH  31  32
HETATM   32  C   UNK     0     183.399 183.024 174.412  0.00  0.00     0.051 C 
HETATM   33  C   UNK     0     183.187 182.160 175.660  0.00  0.00     0.045 C 
HETATM   34  C   UNK     0     184.870 183.432 174.305  0.00  0.00     0.045 C 
BRANCH  32  35
HETATM   35  O   UNK     0     182.611 184.207 174.558  0.00  0.00    -0.391 OA
HETATM   36  H   UNK     0     183.192 184.980 174.461  0.00  0.00     0.210 HD
ENDBRANCH  32  35
ENDBRANCH  31  32
ENDBRANCH  30  31
ENDBRANCH  27  30
ENDBRANCH  23  27
ENDBRANCH   5  23
BRANCH  10  37
HETATM   37  O   UNK     0     181.112 177.744 173.434  0.00  0.00    -0.395 OA
HETATM   38  H   UNK     0     180.548 178.327 173.971  0.00  0.00     0.210 HD
ENDBRANCH  10  37
BRANCH  19  39
HETATM   39  O   UNK     0     177.591 172.976 171.845  0.00  0.00    -0.393 OA
HETATM   40  H   UNK     0     176.701 173.364 171.814  0.00  0.00     0.210 HD
ENDBRANCH  19  39
BRANCH  20  41
HETATM   41  O   UNK     0     180.433 172.532 171.978  0.00  0.00    -0.393 OA
HETATM   42  H   UNK     0     180.968 172.826 171.221  0.00  0.00     0.210 HD
ENDBRANCH  20  41
ENDBRANCH   1   3
TORSDOF 12
ENDMDL
MODEL 9
REMARK VINA RESULT:      -7.3     11.909     14.662
REMARK  12 active torsions:
REMARK  status: ('A' for Active; 'I' for Inactive)
REMARK    1  A    between atoms: O_1  and  C_10 
REMARK    2  A    between atoms: O_2  and  C_17 
REMARK    3  A    between atoms: O_3  and  C_20 
REMARK    4  A    between atoms: O_4  and  C_27 
REMARK    5  A    between atoms: O_6  and  C_29 
REMARK    6  A    between atoms: O_7  and  C_28 
REMARK    7  A    between atoms: O_8  and  C_33 
REMARK    8  A    between atoms: C_11  and  C_20 
REMARK    9  A    between atoms: C_20  and  C_28 
REMARK   10  A    between atoms: C_28  and  C_31 
REMARK   11  A    between atoms: C_31  and  C_32 
REMARK   12  A    between atoms: C_32  and  C_33 
ROOT
HETATM    1  O   UNK     0     186.849 188.310 170.823  0.00  0.00    -0.384 OA
HETATM    2  H   UNK     0     186.506 188.505 171.707  0.00  0.00     0.211 HD
ENDROOT
BRANCH   1   3
HETATM    3  C   UNK     0     185.883 187.577 170.037  0.00  0.00     0.090 C 
HETATM    4  C   UNK     0     186.611 186.804 168.907  0.00  0.00    -0.000 C 
HETATM    5  C   UNK     0     187.185 187.980 168.075  0.00  0.00     0.034 C 
HETATM    6  C   UNK     0     187.682 185.906 169.542  0.00  0.00     0.045 C 
HETATM    7  C   UNK     0     185.650 185.938 168.046  0.00  0.00     0.019 C 
HETATM    8  C   UNK     0     186.050 189.030 168.091  0.00  0.00     0.012 C 
HETATM    9  C   UNK     0     185.105 188.642 169.249  0.00  0.00     0.044 C 
HETATM   10  C   UNK     0     187.064 184.922 170.557  0.00  0.00     0.128 C 
HETATM   11  C   UNK     0     186.154 185.596 171.650  0.00  0.00     0.055 C 
HETATM   12  C   UNK     0     185.420 184.557 172.607  0.00  0.00    -0.021 C 
HETATM   13  C   UNK     0     185.204 186.625 171.000  0.00  0.00    -0.034 C 
HETATM   14  C   UNK     0     184.234 185.247 173.343  0.00  0.00     0.071 C 
HETATM   15  C   UNK     0     186.414 183.946 173.663  0.00  0.00     0.045 C 
HETATM   16  C   UNK     0     184.836 183.374 171.786  0.00  0.00     0.017 C 
HETATM   17  C   UNK     0     184.636 186.273 174.418  0.00  0.00     0.047 C 
HETATM   18  C   UNK     0     183.297 185.916 172.359  0.00  0.00     0.154 C 
HETATM   19  C   UNK     0     185.965 185.963 175.097  0.00  0.00     0.147 C 
HETATM   20  C   UNK     0     186.271 184.472 175.095  0.00  0.00     0.147 C 
HETATM   21  O   UNK     0     182.076 185.868 172.485  0.00  0.00    -0.293 OA
HETATM   22  C   UNK     0     183.896 186.724 171.279  0.00  0.00     0.057 C 
BRANCH   5  23
HETATM   23  C   UNK     0     187.665 187.649 166.669  0.00  0.00     0.084 C 
HETATM   24  C   UNK     0     186.459 187.351 165.763  0.00  0.00     0.049 C 
BRANCH  23  25
HETATM   25  O   UNK     0     188.329 188.802 166.134  0.00  0.00    -0.387 OA
HETATM   26  H   UNK     0     187.671 189.374 165.705  0.00  0.00     0.210 HD
ENDBRANCH  23  25
BRANCH  23  27
HETATM   27  C   UNK     0     188.668 186.463 166.655  0.00  0.00     0.152 C 
BRANCH  27  28
HETATM   28  O   UNK     0     190.007 186.967 166.699  0.00  0.00    -0.393 OA
HETATM   29  H   UNK     0     190.603 186.225 166.500  0.00  0.00     0.210 HD
ENDBRANCH  27  28
BRANCH  27  30
HETATM   30  C   UNK     0     188.538 185.539 165.428  0.00  0.00     0.037 C 
BRANCH  30  31
HETATM   31  C   UNK     0     189.121 184.140 165.695  0.00  0.00     0.040 C 
BRANCH  31  32
HETATM   32  C   UNK     0     188.068 183.056 166.007  0.00  0.00     0.051 C 
HETATM   33  C   UNK     0     186.789 183.338 165.211  0.00  0.00     0.045 C 
HETATM   34  C   UNK     0     188.572 181.643 165.698  0.00  0.00     0.045 C 
BRANCH  32  35
HETATM   35  O   UNK     0     187.746 183.127 167.397  0.00  0.00    -0.391 OA
HETATM   36  H   UNK     0     188.285 183.825 167.805  0.00  0.00     0.210 HD
ENDBRANCH  32  35
ENDBRANCH  31  32
ENDBRANCH  30  31
ENDBRANCH  27  30
ENDBRANCH  23  27
ENDBRANCH   5  23
BRANCH  10  37
HETATM   37  O   UNK     0     188.142 184.217 171.168  0.00  0.00    -0.395 OA
HETATM   38  H   UNK     0     188.966 184.679 170.938  0.00  0.00     0.210 HD
ENDBRANCH  10  37
BRANCH  19  39
HETATM   39  O   UNK     0     185.925 186.461 176.432  0.00  0.00    -0.393 OA
HETATM   40  H   UNK     0     186.743 186.193 176.882  0.00  0.00     0.210 HD
ENDBRANCH  19  39
BRANCH  20  41
HETATM   41  O   UNK     0     185.228 183.750 175.754  0.00  0.00    -0.393 OA
HETATM   42  H   UNK     0     184.739 183.255 175.075  0.00  0.00     0.210 HD
ENDBRANCH  20  41
ENDBRANCH   1   3
TORSDOF 12
ENDMDL
MODEL 10
REMARK VINA RESULT:      -7.3      2.195      8.524
REMARK  12 active torsions:
REMARK  status: ('A' for Active; 'I' for Inactive)
REMARK    1  A    between atoms: O_1  and  C_10 
REMARK    2  A    between atoms: O_2  and  C_17 
REMARK    3  A    between atoms: O_3  and  C_20 
REMARK    4  A    between atoms: O_4  and  C_27 
REMARK    5  A    between atoms: O_6  and  C_29 
REMARK    6  A    between atoms: O_7  and  C_28 
REMARK    7  A    between atoms: O_8  and  C_33 
REMARK    8  A    between atoms: C_11  and  C_20 
REMARK    9  A    between atoms: C_20  and  C_28 
REMARK   10  A    between atoms: C_28  and  C_31 
REMARK   11  A    between atoms: C_31  and  C_32 
REMARK   12  A    between atoms: C_32  and  C_33 
ROOT
HETATM    1  O   UNK     0     177.834 175.082 173.514  0.00  0.00    -0.384 OA
HETATM    2  H   UNK     0     177.316 175.808 173.138  0.00  0.00     0.211 HD
ENDROOT
BRANCH   1   3
HETATM    3  C   UNK     0     178.161 174.097 172.509  0.00  0.00     0.090 C 
HETATM    4  C   UNK     0     176.941 173.881 171.576  0.00  0.00    -0.000 C 
HETATM    5  C   UNK     0     175.912 173.294 172.577  0.00  0.00     0.034 C 
HETATM    6  C   UNK     0     176.533 175.237 170.984  0.00  0.00     0.045 C 
HETATM    7  C   UNK     0     177.226 172.877 170.425  0.00  0.00     0.019 C 
HETATM    8  C   UNK     0     176.758 172.351 173.463  0.00  0.00     0.012 C 
HETATM    9  C   UNK     0     178.234 172.758 173.258  0.00  0.00     0.044 C 
HETATM   10  C   UNK     0     177.697 175.888 170.208  0.00  0.00     0.128 C 
HETATM   11  C   UNK     0     179.044 175.991 171.016  0.00  0.00     0.055 C 
HETATM   12  C   UNK     0     180.268 176.542 170.160  0.00  0.00    -0.021 C 
HETATM   13  C   UNK     0     179.340 174.663 171.744  0.00  0.00    -0.034 C 
HETATM   14  C   UNK     0     181.614 176.206 170.865  0.00  0.00     0.071 C 
HETATM   15  C   UNK     0     180.162 178.096 169.937  0.00  0.00     0.045 C 
HETATM   16  C   UNK     0     180.297 175.877 168.755  0.00  0.00     0.017 C 
HETATM   17  C   UNK     0     181.893 176.994 172.157  0.00  0.00     0.047 C 
HETATM   18  C   UNK     0     181.716 174.725 171.167  0.00  0.00     0.154 C 
HETATM   19  C   UNK     0     181.274 178.388 172.173  0.00  0.00     0.147 C 
HETATM   20  C   UNK     0     181.118 178.956 170.770  0.00  0.00     0.147 C 
HETATM   21  O   UNK     0     182.762 174.098 171.012  0.00  0.00    -0.293 OA
HETATM   22  C   UNK     0     180.538 174.061 171.756  0.00  0.00     0.057 C 
BRANCH   5  23
HETATM   23  C   UNK     0     174.694 172.605 171.975  0.00  0.00     0.084 C 
HETATM   24  C   UNK     0     175.145 171.520 170.984  0.00  0.00     0.049 C 
BRANCH  23  25
HETATM   25  O   UNK     0     173.977 171.951 173.030  0.00  0.00    -0.387 OA
HETATM   26  H   UNK     0     173.727 171.060 172.736  0.00  0.00     0.210 HD
ENDBRANCH  23  25
BRANCH  23  27
HETATM   27  C   UNK     0     173.732 173.611 171.287  0.00  0.00     0.152 C 
BRANCH  27  28
HETATM   28  O   UNK     0     172.443 173.542 171.906  0.00  0.00    -0.393 OA
HETATM   29  H   UNK     0     172.580 173.298 172.837  0.00  0.00     0.210 HD
ENDBRANCH  27  28
BRANCH  27  30
HETATM   30  C   UNK     0     173.556 173.383 169.773  0.00  0.00     0.037 C 
BRANCH  30  31
HETATM   31  C   UNK     0     172.088 173.535 169.333  0.00  0.00     0.040 C 
BRANCH  31  32
HETATM   32  C   UNK     0     171.709 174.949 168.843  0.00  0.00     0.051 C 
HETATM   33  C   UNK     0     172.883 175.553 168.065  0.00  0.00     0.045 C 
HETATM   34  C   UNK     0     170.451 174.949 167.971  0.00  0.00     0.045 C 
BRANCH  32  35
HETATM   35  O   UNK     0     171.468 175.772 169.986  0.00  0.00    -0.391 OA
HETATM   36  H   UNK     0     171.035 175.235 170.669  0.00  0.00     0.210 HD
ENDBRANCH  32  35
ENDBRANCH  31  32
ENDBRANCH  30  31
ENDBRANCH  27  30
ENDBRANCH  23  27
ENDBRANCH   5  23
BRANCH  10  37
HETATM   37  O   UNK     0     177.258 177.180 169.798  0.00  0.00    -0.395 OA
HETATM   38  H   UNK     0     177.341 177.227 168.830  0.00  0.00     0.210 HD
ENDBRANCH  10  37
BRANCH  19  39
HETATM   39  O   UNK     0     182.091 179.243 172.968  0.00  0.00    -0.393 OA
HETATM   40  H   UNK     0     182.219 180.077 172.486  0.00  0.00     0.210 HD
ENDBRANCH  19  39
BRANCH  20  41
HETATM   41  O   UNK     0     182.385 179.013 170.112  0.00  0.00    -0.393 OA
HETATM   42  H   UNK     0     182.513 178.170 169.647  0.00  0.00     0.210 HD
ENDBRANCH  20  41
ENDBRANCH   1   3
TORSDOF 12
ENDMDL
