REMARK VINA RESULT:      -7.4      3.206      9.076
REMARK  12 active torsions:
REMARK  status: ('A' for Active; 'I' for Inactive)
REMARK    1  A    between atoms: O_1  and  C_10 
REMARK    2  A    between atoms: O_2  and  C_17 
REMARK    3  A    between atoms: O_3  and  C_20 
REMARK    4  A    between atoms: O_4  and  C_27 
REMARK    5  A    between atoms: O_6  and  C_29 
REMARK    6  A    between atoms: O_7  and  C_28 
REMARK    7  A    between atoms: O_8  and  C_33 
REMARK    8  A    between atoms: C_11  and  C_20 
REMARK    9  A    between atoms: C_20  and  C_28 
REMARK   10  A    between atoms: C_28  and  C_31 
REMARK   11  A    between atoms: C_31  and  C_32 
REMARK   12  A    between atoms: C_32  and  C_33 
ROOT
HETATM    1  O   UNK     0     181.853 177.526 172.840  0.00  0.00    -0.384 OA
HETATM    2  H   UNK     0     182.168 178.284 173.353  0.00  0.00     0.211 HD
ENDROOT
BRANCH   1   3
HETATM    3  C   UNK     0     181.728 177.858 171.439  0.00  0.00     0.090 C 
HETATM    4  C   UNK     0     180.306 177.491 170.942  0.00  0.00    -0.000 C 
HETATM    5  C   UNK     0     180.327 175.950 171.120  0.00  0.00     0.034 C 
HETATM    6  C   UNK     0     179.278 178.208 171.828  0.00  0.00     0.045 C 
HETATM    7  C   UNK     0     180.064 177.871 169.455  0.00  0.00     0.019 C 
HETATM    8  C   UNK     0     181.751 175.548 170.672  0.00  0.00     0.012 C 
HETATM    9  C   UNK     0     182.602 176.837 170.697  0.00  0.00     0.044 C 
HETATM   10  C   UNK     0     179.480 179.737 171.803  0.00  0.00     0.128 C 
HETATM   11  C   UNK     0     180.948 180.208 172.122  0.00  0.00     0.055 C 
HETATM   12  C   UNK     0     181.170 181.777 171.961  0.00  0.00    -0.021 C 
HETATM   13  C   UNK     0     181.970 179.351 171.346  0.00  0.00    -0.034 C 
HETATM   14  C   UNK     0     182.689 182.098 171.858  0.00  0.00     0.071 C 
HETATM   15  C   UNK     0     180.542 182.573 173.164  0.00  0.00     0.045 C 
HETATM   16  C   UNK     0     180.493 182.296 170.662  0.00  0.00     0.017 C 
HETATM   17  C   UNK     0     183.491 181.906 173.157  0.00  0.00     0.047 C 
HETATM   18  C   UNK     0     183.344 181.288 170.759  0.00  0.00     0.154 C 
HETATM   19  C   UNK     0     182.677 182.149 174.424  0.00  0.00     0.147 C 
HETATM   20  C   UNK     0     181.537 183.130 174.187  0.00  0.00     0.147 C 
HETATM   21  O   UNK     0     184.183 181.772 170.002  0.00  0.00    -0.293 OA
HETATM   22  C   UNK     0     183.019 179.850 170.677  0.00  0.00     0.057 C 
BRANCH   5  23
HETATM   23  C   UNK     0     179.238 175.167 170.400  0.00  0.00     0.084 C 
HETATM   24  C   UNK     0     179.598 175.020 168.912  0.00  0.00     0.049 C 
BRANCH  23  25
HETATM   25  O   UNK     0     179.183 173.848 170.959  0.00  0.00    -0.387 OA
HETATM   26  H   UNK     0     180.086 173.497 171.028  0.00  0.00     0.210 HD
ENDBRANCH  23  25
BRANCH  23  27
HETATM   27  C   UNK     0     177.839 175.821 170.563  0.00  0.00     0.152 C 
BRANCH  27  28
HETATM   28  O   UNK     0     177.122 175.163 171.613  0.00  0.00    -0.393 OA
HETATM   29  H   UNK     0     177.601 174.344 171.824  0.00  0.00     0.210 HD
ENDBRANCH  27  28
BRANCH  27  30
HETATM   30  C   UNK     0     176.972 175.787 169.290  0.00  0.00     0.037 C 
BRANCH  30  31
HETATM   31  C   UNK     0     175.684 176.616 169.446  0.00  0.00     0.040 C 
BRANCH  31  32
HETATM   32  C   UNK     0     175.757 178.033 168.838  0.00  0.00     0.051 C 
HETATM   33  C   UNK     0     174.472 178.323 168.056  0.00  0.00     0.045 C 
HETATM   34  C   UNK     0     175.976 179.115 169.899  0.00  0.00     0.045 C 
BRANCH  32  35
HETATM   35  O   UNK     0     176.849 178.073 167.919  0.00  0.00    -0.391 OA
HETATM   36  H   UNK     0     176.707 178.808 167.299  0.00  0.00     0.210 HD
ENDBRANCH  32  35
ENDBRANCH  31  32
ENDBRANCH  30  31
ENDBRANCH  27  30
ENDBRANCH  23  27
ENDBRANCH   5  23
BRANCH  10  37
HETATM   37  O   UNK     0     178.560 180.298 172.735  0.00  0.00    -0.395 OA
HETATM   38  H   UNK     0     177.662 180.129 172.403  0.00  0.00     0.210 HD
ENDBRANCH  10  37
BRANCH  19  39
HETATM   39  O   UNK     0     183.547 182.633 175.442  0.00  0.00    -0.393 OA
HETATM   40  H   UNK     0     183.776 183.555 175.234  0.00  0.00     0.210 HD
ENDBRANCH  19  39
BRANCH  20  41
HETATM   41  O   UNK     0     182.046 184.377 173.711  0.00  0.00    -0.393 OA
HETATM   42  H   UNK     0     181.944 184.386 172.744  0.00  0.00     0.210 HD
ENDBRANCH  20  41
ENDBRANCH   1   3
TORSDOF 12
