REMARK VINA RESULT:      -7.4      4.370      6.602
REMARK  12 active torsions:
REMARK  status: ('A' for Active; 'I' for Inactive)
REMARK    1  A    between atoms: O_1  and  C_10 
REMARK    2  A    between atoms: O_2  and  C_17 
REMARK    3  A    between atoms: O_3  and  C_20 
REMARK    4  A    between atoms: O_4  and  C_27 
REMARK    5  A    between atoms: O_6  and  C_29 
REMARK    6  A    between atoms: O_7  and  C_28 
REMARK    7  A    between atoms: O_8  and  C_33 
REMARK    8  A    between atoms: C_11  and  C_20 
REMARK    9  A    between atoms: C_20  and  C_28 
REMARK   10  A    between atoms: C_28  and  C_31 
REMARK   11  A    between atoms: C_31  and  C_32 
REMARK   12  A    between atoms: C_32  and  C_33 
ROOT
HETATM    1  O   UNK     0     177.903 178.850 170.784  0.00  0.00    -0.384 OA
HETATM    2  H   UNK     0     177.575 177.940 170.750  0.00  0.00     0.211 HD
ENDROOT
BRANCH   1   3
HETATM    3  C   UNK     0     179.090 179.008 169.973  0.00  0.00     0.090 C 
HETATM    4  C   UNK     0     180.046 180.028 170.643  0.00  0.00    -0.000 C 
HETATM    5  C   UNK     0     179.186 181.317 170.578  0.00  0.00     0.034 C 
HETATM    6  C   UNK     0     180.348 179.550 172.070  0.00  0.00     0.045 C 
HETATM    7  C   UNK     0     181.378 180.214 169.865  0.00  0.00     0.019 C 
HETATM    8  C   UNK     0     178.511 181.239 169.188  0.00  0.00     0.012 C 
HETATM    9  C   UNK     0     178.630 179.771 168.722  0.00  0.00     0.044 C 
HETATM   10  C   UNK     0     180.975 178.140 172.073  0.00  0.00     0.128 C 
HETATM   11  C   UNK     0     180.164 177.063 171.261  0.00  0.00     0.055 C 
HETATM   12  C   UNK     0     180.891 175.649 171.163  0.00  0.00    -0.021 C 
HETATM   13  C   UNK     0     179.724 177.634 169.897  0.00  0.00    -0.034 C 
HETATM   14  C   UNK     0     180.270 174.803 170.014  0.00  0.00     0.071 C 
HETATM   15  C   UNK     0     180.791 174.855 172.518  0.00  0.00     0.045 C 
HETATM   16  C   UNK     0     182.402 175.831 170.846  0.00  0.00     0.017 C 
HETATM   17  C   UNK     0     178.844 174.286 170.275  0.00  0.00     0.047 C 
HETATM   18  C   UNK     0     180.277 175.569 168.707  0.00  0.00     0.154 C 
HETATM   19  C   UNK     0     178.543 174.031 171.748  0.00  0.00     0.147 C 
HETATM   20  C   UNK     0     179.801 173.686 172.534  0.00  0.00     0.147 C 
HETATM   21  O   UNK     0     180.558 175.033 167.638  0.00  0.00    -0.293 OA
HETATM   22  C   UNK     0     179.835 176.977 168.733  0.00  0.00     0.057 C 
BRANCH   5  23
HETATM   23  C   UNK     0     179.914 182.634 170.808  0.00  0.00     0.084 C 
HETATM   24  C   UNK     0     180.961 182.851 169.704  0.00  0.00     0.049 C 
BRANCH  23  25
HETATM   25  O   UNK     0     178.961 183.701 170.712  0.00  0.00    -0.387 OA
HETATM   26  H   UNK     0     179.149 184.220 169.913  0.00  0.00     0.210 HD
ENDBRANCH  23  25
BRANCH  23  27
HETATM   27  C   UNK     0     180.576 182.701 172.212  0.00  0.00     0.152 C 
BRANCH  27  28
HETATM   28  O   UNK     0     179.866 183.634 173.033  0.00  0.00    -0.393 OA
HETATM   29  H   UNK     0     180.333 183.687 173.884  0.00  0.00     0.210 HD
ENDBRANCH  27  28
BRANCH  27  30
HETATM   30  C   UNK     0     182.062 183.106 172.191  0.00  0.00     0.037 C 
BRANCH  30  31
HETATM   31  C   UNK     0     182.904 182.261 173.165  0.00  0.00     0.040 C 
BRANCH  31  32
HETATM   32  C   UNK     0     183.399 183.024 174.412  0.00  0.00     0.051 C 
HETATM   33  C   UNK     0     183.187 182.160 175.660  0.00  0.00     0.045 C 
HETATM   34  C   UNK     0     184.870 183.432 174.305  0.00  0.00     0.045 C 
BRANCH  32  35
HETATM   35  O   UNK     0     182.611 184.207 174.558  0.00  0.00    -0.391 OA
HETATM   36  H   UNK     0     183.192 184.980 174.461  0.00  0.00     0.210 HD
ENDBRANCH  32  35
ENDBRANCH  31  32
ENDBRANCH  30  31
ENDBRANCH  27  30
ENDBRANCH  23  27
ENDBRANCH   5  23
BRANCH  10  37
HETATM   37  O   UNK     0     181.112 177.744 173.434  0.00  0.00    -0.395 OA
HETATM   38  H   UNK     0     180.548 178.327 173.971  0.00  0.00     0.210 HD
ENDBRANCH  10  37
BRANCH  19  39
HETATM   39  O   UNK     0     177.591 172.976 171.845  0.00  0.00    -0.393 OA
HETATM   40  H   UNK     0     176.701 173.364 171.814  0.00  0.00     0.210 HD
ENDBRANCH  19  39
BRANCH  20  41
HETATM   41  O   UNK     0     180.433 172.532 171.978  0.00  0.00    -0.393 OA
HETATM   42  H   UNK     0     180.968 172.826 171.221  0.00  0.00     0.210 HD
ENDBRANCH  20  41
ENDBRANCH   1   3
TORSDOF 12
