REMARK VINA RESULT:      -7.3     11.909     14.662
REMARK  12 active torsions:
REMARK  status: ('A' for Active; 'I' for Inactive)
REMARK    1  A    between atoms: O_1  and  C_10 
REMARK    2  A    between atoms: O_2  and  C_17 
REMARK    3  A    between atoms: O_3  and  C_20 
REMARK    4  A    between atoms: O_4  and  C_27 
REMARK    5  A    between atoms: O_6  and  C_29 
REMARK    6  A    between atoms: O_7  and  C_28 
REMARK    7  A    between atoms: O_8  and  C_33 
REMARK    8  A    between atoms: C_11  and  C_20 
REMARK    9  A    between atoms: C_20  and  C_28 
REMARK   10  A    between atoms: C_28  and  C_31 
REMARK   11  A    between atoms: C_31  and  C_32 
REMARK   12  A    between atoms: C_32  and  C_33 
ROOT
HETATM    1  O   UNK     0     186.849 188.310 170.823  0.00  0.00    -0.384 OA
HETATM    2  H   UNK     0     186.506 188.505 171.707  0.00  0.00     0.211 HD
ENDROOT
BRANCH   1   3
HETATM    3  C   UNK     0     185.883 187.577 170.037  0.00  0.00     0.090 C 
HETATM    4  C   UNK     0     186.611 186.804 168.907  0.00  0.00    -0.000 C 
HETATM    5  C   UNK     0     187.185 187.980 168.075  0.00  0.00     0.034 C 
HETATM    6  C   UNK     0     187.682 185.906 169.542  0.00  0.00     0.045 C 
HETATM    7  C   UNK     0     185.650 185.938 168.046  0.00  0.00     0.019 C 
HETATM    8  C   UNK     0     186.050 189.030 168.091  0.00  0.00     0.012 C 
HETATM    9  C   UNK     0     185.105 188.642 169.249  0.00  0.00     0.044 C 
HETATM   10  C   UNK     0     187.064 184.922 170.557  0.00  0.00     0.128 C 
HETATM   11  C   UNK     0     186.154 185.596 171.650  0.00  0.00     0.055 C 
HETATM   12  C   UNK     0     185.420 184.557 172.607  0.00  0.00    -0.021 C 
HETATM   13  C   UNK     0     185.204 186.625 171.000  0.00  0.00    -0.034 C 
HETATM   14  C   UNK     0     184.234 185.247 173.343  0.00  0.00     0.071 C 
HETATM   15  C   UNK     0     186.414 183.946 173.663  0.00  0.00     0.045 C 
HETATM   16  C   UNK     0     184.836 183.374 171.786  0.00  0.00     0.017 C 
HETATM   17  C   UNK     0     184.636 186.273 174.418  0.00  0.00     0.047 C 
HETATM   18  C   UNK     0     183.297 185.916 172.359  0.00  0.00     0.154 C 
HETATM   19  C   UNK     0     185.965 185.963 175.097  0.00  0.00     0.147 C 
HETATM   20  C   UNK     0     186.271 184.472 175.095  0.00  0.00     0.147 C 
HETATM   21  O   UNK     0     182.076 185.868 172.485  0.00  0.00    -0.293 OA
HETATM   22  C   UNK     0     183.896 186.724 171.279  0.00  0.00     0.057 C 
BRANCH   5  23
HETATM   23  C   UNK     0     187.665 187.649 166.669  0.00  0.00     0.084 C 
HETATM   24  C   UNK     0     186.459 187.351 165.763  0.00  0.00     0.049 C 
BRANCH  23  25
HETATM   25  O   UNK     0     188.329 188.802 166.134  0.00  0.00    -0.387 OA
HETATM   26  H   UNK     0     187.671 189.374 165.705  0.00  0.00     0.210 HD
ENDBRANCH  23  25
BRANCH  23  27
HETATM   27  C   UNK     0     188.668 186.463 166.655  0.00  0.00     0.152 C 
BRANCH  27  28
HETATM   28  O   UNK     0     190.007 186.967 166.699  0.00  0.00    -0.393 OA
HETATM   29  H   UNK     0     190.603 186.225 166.500  0.00  0.00     0.210 HD
ENDBRANCH  27  28
BRANCH  27  30
HETATM   30  C   UNK     0     188.538 185.539 165.428  0.00  0.00     0.037 C 
BRANCH  30  31
HETATM   31  C   UNK     0     189.121 184.140 165.695  0.00  0.00     0.040 C 
BRANCH  31  32
HETATM   32  C   UNK     0     188.068 183.056 166.007  0.00  0.00     0.051 C 
HETATM   33  C   UNK     0     186.789 183.338 165.211  0.00  0.00     0.045 C 
HETATM   34  C   UNK     0     188.572 181.643 165.698  0.00  0.00     0.045 C 
BRANCH  32  35
HETATM   35  O   UNK     0     187.746 183.127 167.397  0.00  0.00    -0.391 OA
HETATM   36  H   UNK     0     188.285 183.825 167.805  0.00  0.00     0.210 HD
ENDBRANCH  32  35
ENDBRANCH  31  32
ENDBRANCH  30  31
ENDBRANCH  27  30
ENDBRANCH  23  27
ENDBRANCH   5  23
BRANCH  10  37
HETATM   37  O   UNK     0     188.142 184.217 171.168  0.00  0.00    -0.395 OA
HETATM   38  H   UNK     0     188.966 184.679 170.938  0.00  0.00     0.210 HD
ENDBRANCH  10  37
BRANCH  19  39
HETATM   39  O   UNK     0     185.925 186.461 176.432  0.00  0.00    -0.393 OA
HETATM   40  H   UNK     0     186.743 186.193 176.882  0.00  0.00     0.210 HD
ENDBRANCH  19  39
BRANCH  20  41
HETATM   41  O   UNK     0     185.228 183.750 175.754  0.00  0.00    -0.393 OA
HETATM   42  H   UNK     0     184.739 183.255 175.075  0.00  0.00     0.210 HD
ENDBRANCH  20  41
ENDBRANCH   1   3
TORSDOF 12
