MODEL 1
REMARK VINA RESULT:      -8.9      0.000      0.000
REMARK  Name = 5280637
REMARK                            x       y       z     vdW  Elec       q    Type
REMARK                         _______ _______ _______ _____ _____    ______ ____
ROOT
ATOM     13  C   LIG    1      153.532 153.306 148.498  0.00  0.00    +0.131 A 
ATOM     14  C   LIG    1      153.691 152.125 147.772  0.00  0.00    +0.092 A 
ATOM     15  C   LIG    1      152.613 151.580 147.075  0.00  0.00    +0.135 A 
ATOM     16  C   LIG    1      151.374 152.223 147.109  0.00  0.00    +0.105 A 
ATOM     17  C   LIG    1      150.218 151.672 146.385  0.00  0.00    +0.197 A 
ATOM     18  C   LIG    1      148.958 152.436 146.489  0.00  0.00    +0.098 A 
ATOM     19  C   LIG    1      148.931 153.564 147.215  0.00  0.00    +0.139 A 
ATOM     30  O   LIG    1      150.020 154.078 147.902  0.00  0.00    -0.454 OA
ATOM     31  O   LIG    1      150.287 150.639 145.733  0.00  0.00    -0.287 OA
ATOM     32  C   LIG    1      151.213 153.404 147.833  0.00  0.00    +0.146 A 
ATOM     35  C   LIG    1      152.292 153.947 148.530  0.00  0.00    +0.093 A 
ENDROOT
BRANCH  19  20
ATOM     20  C   LIG    1      147.697 154.365 147.361  0.00  0.00    +0.021 A 
ATOM     21  C   LIG    1      146.483 153.735 147.643  0.00  0.00    +0.015 A 
ATOM     22  C   LIG    1      145.319 154.491 147.780  0.00  0.00    +0.050 A 
ATOM     23  C   LIG    1      145.366 155.878 147.637  0.00  0.00    +0.158 A 
ATOM     24  C   LIG    1      146.577 156.508 147.354  0.00  0.00    +0.159 A 
ATOM     29  C   LIG    1      147.742 155.753 147.217  0.00  0.00    +0.060 A 
BRANCH  24  25
ATOM     25  O   LIG    1      146.634 157.862 147.213  0.00  0.00    -0.503 OA
ATOM     26  H   LIG    1      146.066 158.265 147.891  0.00  0.00    +0.292 HD
ENDBRANCH  24  25
BRANCH  23  27
ATOM     27  O   LIG    1      144.221 156.604 147.772  0.00  0.00    -0.503 OA
ATOM     28  H   LIG    1      143.580 156.313 147.100  0.00  0.00    +0.292 HD
ENDBRANCH  23  27
ENDBRANCH  19  20
BRANCH  15  33
ATOM     33  O   LIG    1      152.820 150.425 146.382  0.00  0.00    -0.506 OA
ATOM     34  H   LIG    1      152.119 149.784 146.571  0.00  0.00    +0.292 HD
ENDBRANCH  15  33
BRANCH  13  12
ATOM     12  O   LIG    1      154.589 153.835 149.178  0.00  0.00    -0.461 OA
BRANCH  12   2
ATOM      1  O   LIG    1      154.356 156.006 150.000  0.00  0.00    -0.331 OA
ATOM      2  C   LIG    1      154.279 154.621 150.328  0.00  0.00    +0.339 C 
ATOM      3  C   LIG    1      155.289 154.272 151.422  0.00  0.00    +0.214 C 
ATOM      4  C   LIG    1      155.123 155.179 152.642  0.00  0.00    +0.180 C 
ATOM      5  C   LIG    1      155.049 156.650 152.232  0.00  0.00    +0.177 C 
ATOM     36  C   LIG    1      154.031 156.850 151.106  0.00  0.00    +0.179 C 
BRANCH   5   6
ATOM      6  O   LIG    1      154.666 157.434 153.358  0.00  0.00    -0.386 OA
ATOM      7  H   LIG    1      155.327 157.297 154.058  0.00  0.00    +0.210 HD
ENDBRANCH   5   6
BRANCH   4   8
ATOM      8  O   LIG    1      156.245 155.017 153.511  0.00  0.00    -0.386 OA
ATOM      9  H   LIG    1      157.035 155.307 153.022  0.00  0.00    +0.210 HD
ENDBRANCH   4   8
BRANCH   3  10
ATOM     10  O   LIG    1      155.079 152.914 151.809  0.00  0.00    -0.383 OA
ATOM     11  H   LIG    1      155.137 152.361 151.011  0.00  0.00    +0.210 HD
ENDBRANCH   3  10
BRANCH  36  37
ATOM     37  C   LIG    1      154.025 158.289 150.601  0.00  0.00    +0.190 C 
BRANCH  37  38
ATOM     38  O   LIG    1      155.159 158.955 151.124  0.00  0.00    -0.392 OA
ATOM     39  H   LIG    1      155.078 159.898 150.899  0.00  0.00    +0.210 HD
ENDBRANCH  37  38
ENDBRANCH  36  37
ENDBRANCH  12   2
ENDBRANCH  13  12
TORSDOF 11
ENDMDL
MODEL 2
REMARK VINA RESULT:      -8.7      2.793      5.876
REMARK  Name = 5280637
REMARK                            x       y       z     vdW  Elec       q    Type
REMARK                         _______ _______ _______ _____ _____    ______ ____
ROOT
ATOM     13  C   LIG    1      151.929 153.064 150.844  0.00  0.00    +0.131 A 
ATOM     14  C   LIG    1      150.888 153.960 150.601  0.00  0.00    +0.092 A 
ATOM     15  C   LIG    1      150.410 154.145 149.303  0.00  0.00    +0.135 A 
ATOM     16  C   LIG    1      150.981 153.427 148.250  0.00  0.00    +0.105 A 
ATOM     17  C   LIG    1      150.500 153.601 146.871  0.00  0.00    +0.197 A 
ATOM     18  C   LIG    1      151.175 152.790 145.837  0.00  0.00    +0.098 A 
ATOM     19  C   LIG    1      152.162 151.955 146.197  0.00  0.00    +0.139 A 
ATOM     30  O   LIG    1      152.619 151.798 147.496  0.00  0.00    -0.454 OA
ATOM     31  O   LIG    1      149.595 154.373 146.588  0.00  0.00    -0.287 OA
ATOM     32  C   LIG    1      152.021 152.530 148.492  0.00  0.00    +0.146 A 
ATOM     35  C   LIG    1      152.497 152.347 149.790  0.00  0.00    +0.093 A 
ENDROOT
BRANCH  19  20
ATOM     20  C   LIG    1      152.878 151.126 145.206  0.00  0.00    +0.021 A 
ATOM     21  C   LIG    1      153.084 151.603 143.910  0.00  0.00    +0.015 A 
ATOM     22  C   LIG    1      153.758 150.820 142.974  0.00  0.00    +0.050 A 
ATOM     23  C   LIG    1      154.231 149.557 143.331  0.00  0.00    +0.158 A 
ATOM     24  C   LIG    1      154.026 149.077 144.625  0.00  0.00    +0.159 A 
ATOM     29  C   LIG    1      153.351 149.861 145.561  0.00  0.00    +0.060 A 
BRANCH  24  25
ATOM     25  O   LIG    1      154.484 147.845 144.986  0.00  0.00    -0.503 OA
ATOM     26  H   LIG    1      153.722 147.249 145.073  0.00  0.00    +0.292 HD
ENDBRANCH  24  25
BRANCH  23  27
ATOM     27  O   LIG    1      154.887 148.801 142.408  0.00  0.00    -0.503 OA
ATOM     28  H   LIG    1      155.189 149.376 141.684  0.00  0.00    +0.292 HD
ENDBRANCH  23  27
ENDBRANCH  19  20
BRANCH  15  33
ATOM     33  O   LIG    1      149.393 155.032 149.118  0.00  0.00    -0.506 OA
ATOM     34  H   LIG    1      148.780 155.008 149.868  0.00  0.00    +0.292 HD
ENDBRANCH  15  33
BRANCH  13  12
ATOM     12  O   LIG    1      152.392 152.887 152.115  0.00  0.00    -0.461 OA
BRANCH  12   2
ATOM      1  O   LIG    1      152.820 155.157 152.441  0.00  0.00    -0.331 OA
ATOM      2  C   LIG    1      153.345 153.840 152.585  0.00  0.00    +0.339 C 
ATOM      3  C   LIG    1      154.620 153.677 151.757  0.00  0.00    +0.214 C 
ATOM      4  C   LIG    1      155.643 154.762 152.094  0.00  0.00    +0.180 C 
ATOM      5  C   LIG    1      155.002 156.150 152.086  0.00  0.00    +0.177 C 
ATOM     36  C   LIG    1      153.718 156.160 152.918  0.00  0.00    +0.179 C 
BRANCH   5   6
ATOM      6  O   LIG    1      155.921 157.097 152.624  0.00  0.00    -0.386 OA
ATOM      7  H   LIG    1      156.776 156.972 152.178  0.00  0.00    +0.210 HD
ENDBRANCH   5   6
BRANCH   4   8
ATOM      8  O   LIG    1      156.687 154.751 151.118  0.00  0.00    -0.386 OA
ATOM      9  H   LIG    1      156.652 155.601 150.646  0.00  0.00    +0.210 HD
ENDBRANCH   4   8
BRANCH   3  10
ATOM     10  O   LIG    1      155.178 152.395 152.041  0.00  0.00    -0.383 OA
ATOM     11  H   LIG    1      154.459 151.741 152.018  0.00  0.00    +0.210 HD
ENDBRANCH   3  10
BRANCH  36  37
ATOM     37  C   LIG    1      152.999 157.502 152.829  0.00  0.00    +0.190 C 
BRANCH  37  38
ATOM     38  O   LIG    1      153.485 158.200 151.697  0.00  0.00    -0.392 OA
ATOM     39  H   LIG    1      153.284 157.663 150.911  0.00  0.00    +0.210 HD
ENDBRANCH  37  38
ENDBRANCH  36  37
ENDBRANCH  12   2
ENDBRANCH  13  12
TORSDOF 11
ENDMDL
MODEL 3
REMARK VINA RESULT:      -8.7      2.816      5.717
REMARK  Name = 5280637
REMARK                            x       y       z     vdW  Elec       q    Type
REMARK                         _______ _______ _______ _____ _____    ______ ____
ROOT
ATOM     13  C   LIG    1      153.089 158.304 150.814  0.00  0.00    +0.131 A 
ATOM     14  C   LIG    1      152.950 159.420 151.639  0.00  0.00    +0.092 A 
ATOM     15  C   LIG    1      151.691 159.983 151.852  0.00  0.00    +0.135 A 
ATOM     16  C   LIG    1      150.572 159.422 151.233  0.00  0.00    +0.105 A 
ATOM     17  C   LIG    1      149.233 159.994 151.436  0.00  0.00    +0.197 A 
ATOM     18  C   LIG    1      148.121 159.319 150.734  0.00  0.00    +0.098 A 
ATOM     19  C   LIG    1      148.381 158.246 149.971  0.00  0.00    +0.139 A 
ATOM     30  O   LIG    1      149.645 157.714 149.774  0.00  0.00    -0.454 OA
ATOM     31  O   LIG    1      149.041 160.973 152.144  0.00  0.00    -0.287 OA
ATOM     32  C   LIG    1      150.709 158.306 150.408  0.00  0.00    +0.146 A 
ATOM     35  C   LIG    1      151.968 157.745 150.196  0.00  0.00    +0.093 A 
ENDROOT
BRANCH  19  20
ATOM     20  C   LIG    1      147.311 157.537 149.239  0.00  0.00    +0.021 A 
ATOM     21  C   LIG    1      147.635 156.638 148.221  0.00  0.00    +0.015 A 
ATOM     22  C   LIG    1      146.625 155.969 147.529  0.00  0.00    +0.050 A 
ATOM     23  C   LIG    1      145.288 156.197 147.855  0.00  0.00    +0.158 A 
ATOM     24  C   LIG    1      144.961 157.095 148.871  0.00  0.00    +0.159 A 
ATOM     29  C   LIG    1      145.971 157.764 149.563  0.00  0.00    +0.060 A 
BRANCH  24  25
ATOM     25  O   LIG    1      143.658 157.324 149.198  0.00  0.00    -0.503 OA
ATOM     26  H   LIG    1      143.441 156.790 149.981  0.00  0.00    +0.292 HD
ENDBRANCH  24  25
BRANCH  23  27
ATOM     27  O   LIG    1      144.311 155.539 147.172  0.00  0.00    -0.503 OA
ATOM     28  H   LIG    1      144.189 155.963 146.305  0.00  0.00    +0.292 HD
ENDBRANCH  23  27
ENDBRANCH  19  20
BRANCH  15  33
ATOM     33  O   LIG    1      151.609 161.072 152.665  0.00  0.00    -0.506 OA
ATOM     34  H   LIG    1      152.423 161.173 153.183  0.00  0.00    +0.292 HD
ENDBRANCH  15  33
BRANCH  13  12
ATOM     12  O   LIG    1      154.322 157.757 150.609  0.00  0.00    -0.461 OA
BRANCH  12   2
ATOM      1  O   LIG    1      153.317 155.651 150.614  0.00  0.00    -0.331 OA
ATOM      2  C   LIG    1      154.482 156.388 150.977  0.00  0.00    +0.339 C 
ATOM      3  C   LIG    1      154.702 156.331 152.489  0.00  0.00    +0.214 C 
ATOM      4  C   LIG    1      154.734 154.888 152.992  0.00  0.00    +0.180 C 
ATOM      5  C   LIG    1      153.552 154.086 152.449  0.00  0.00    +0.177 C 
ATOM     36  C   LIG    1      153.425 154.263 150.935  0.00  0.00    +0.179 C 
BRANCH   5   6
ATOM      6  O   LIG    1      153.741 152.705 152.748  0.00  0.00    -0.386 OA
ATOM      7  H   LIG    1      152.865 152.304 152.881  0.00  0.00    +0.210 HD
ENDBRANCH   5   6
BRANCH   4   8
ATOM      8  O   LIG    1      154.657 154.880 154.419  0.00  0.00    -0.386 OA
ATOM      9  H   LIG    1      155.113 154.079 154.730  0.00  0.00    +0.210 HD
ENDBRANCH   4   8
BRANCH   3  10
ATOM     10  O   LIG    1      155.947 156.963 152.785  0.00  0.00    -0.383 OA
ATOM     11  H   LIG    1      156.365 156.479 153.518  0.00  0.00    +0.210 HD
ENDBRANCH   3  10
BRANCH  36  37
ATOM     37  C   LIG    1      152.182 153.567 150.387  0.00  0.00    +0.190 C 
BRANCH  37  38
ATOM     38  O   LIG    1      151.274 153.363 151.453  0.00  0.00    -0.392 OA
ATOM     39  H   LIG    1      150.815 154.205 151.617  0.00  0.00    +0.210 HD
ENDBRANCH  37  38
ENDBRANCH  36  37
ENDBRANCH  12   2
ENDBRANCH  13  12
TORSDOF 11
ENDMDL
MODEL 4
REMARK VINA RESULT:      -8.6      3.631      5.961
REMARK  Name = 5280637
REMARK                            x       y       z     vdW  Elec       q    Type
REMARK                         _______ _______ _______ _____ _____    ______ ____
ROOT
ATOM     13  C   LIG    1      151.846 153.287 146.683  0.00  0.00    +0.131 A 
ATOM     14  C   LIG    1      153.109 153.358 146.094  0.00  0.00    +0.092 A 
ATOM     15  C   LIG    1      153.374 152.656 144.917  0.00  0.00    +0.135 A 
ATOM     16  C   LIG    1      152.367 151.884 144.333  0.00  0.00    +0.105 A 
ATOM     17  C   LIG    1      152.616 151.133 143.094  0.00  0.00    +0.197 A 
ATOM     18  C   LIG    1      151.480 150.352 142.565  0.00  0.00    +0.098 A 
ATOM     19  C   LIG    1      150.308 150.368 143.220  0.00  0.00    +0.139 A 
ATOM     30  O   LIG    1      150.078 151.071 144.392  0.00  0.00    -0.454 OA
ATOM     31  O   LIG    1      153.700 151.147 142.528  0.00  0.00    -0.287 OA
ATOM     32  C   LIG    1      151.104 151.814 144.921  0.00  0.00    +0.146 A 
ATOM     35  C   LIG    1      150.842 152.515 146.097  0.00  0.00    +0.093 A 
ENDROOT
BRANCH  19  20
ATOM     20  C   LIG    1      149.140 149.600 142.742  0.00  0.00    +0.021 A 
ATOM     21  C   LIG    1      147.847 150.053 143.008  0.00  0.00    +0.015 A 
ATOM     22  C   LIG    1      146.744 149.327 142.559  0.00  0.00    +0.050 A 
ATOM     23  C   LIG    1      146.932 148.146 141.840  0.00  0.00    +0.158 A 
ATOM     24  C   LIG    1      148.224 147.690 141.573  0.00  0.00    +0.159 A 
ATOM     29  C   LIG    1      149.326 148.417 142.023  0.00  0.00    +0.060 A 
BRANCH  24  25
ATOM     25  O   LIG    1      148.419 146.539 140.871  0.00  0.00    -0.503 OA
ATOM     26  H   LIG    1      147.550 146.153 140.669  0.00  0.00    +0.292 HD
ENDBRANCH  24  25
BRANCH  23  27
ATOM     27  O   LIG    1      145.847 147.445 141.407  0.00  0.00    -0.503 OA
ATOM     28  H   LIG    1      145.067 148.026 141.423  0.00  0.00    +0.292 HD
ENDBRANCH  23  27
ENDBRANCH  19  20
BRANCH  15  33
ATOM     33  O   LIG    1      154.623 152.757 144.382  0.00  0.00    -0.506 OA
ATOM     34  H   LIG    1      155.254 153.067 145.048  0.00  0.00    +0.292 HD
ENDBRANCH  15  33
BRANCH  13  12
ATOM     12  O   LIG    1      151.592 153.974 147.834  0.00  0.00    -0.461 OA
BRANCH  12   2
ATOM      1  O   LIG    1      152.383 152.978 149.790  0.00  0.00    -0.331 OA
ATOM      2  C   LIG    1      152.631 153.986 148.812  0.00  0.00    +0.339 C 
ATOM      3  C   LIG    1      152.649 155.370 149.462  0.00  0.00    +0.214 C 
ATOM      4  C   LIG    1      153.635 155.423 150.630  0.00  0.00    +0.180 C 
ATOM      5  C   LIG    1      153.442 154.235 151.572  0.00  0.00    +0.177 C 
ATOM     36  C   LIG    1      153.404 152.921 150.788  0.00  0.00    +0.179 C 
BRANCH   5   6
ATOM      6  O   LIG    1      154.517 154.195 152.507  0.00  0.00    -0.386 OA
ATOM      7  H   LIG    1      155.135 154.911 152.283  0.00  0.00    +0.210 HD
ENDBRANCH   5   6
BRANCH   4   8
ATOM      8  O   LIG    1      153.421 156.621 151.378  0.00  0.00    -0.386 OA
ATOM      9  H   LIG    1      152.650 157.071 150.991  0.00  0.00    +0.210 HD
ENDBRANCH   4   8
BRANCH   3  10
ATOM     10  O   LIG    1      153.034 156.324 148.473  0.00  0.00    -0.383 OA
ATOM     11  H   LIG    1      152.226 156.715 148.100  0.00  0.00    +0.210 HD
ENDBRANCH   3  10
BRANCH  36  37
ATOM     37  C   LIG    1      153.095 151.733 151.694  0.00  0.00    +0.190 C 
BRANCH  37  38
ATOM     38  O   LIG    1      154.308 151.266 152.254  0.00  0.00    -0.392 OA
ATOM     39  H   LIG    1      154.993 151.325 151.566  0.00  0.00    +0.210 HD
ENDBRANCH  37  38
ENDBRANCH  36  37
ENDBRANCH  12   2
ENDBRANCH  13  12
TORSDOF 11
ENDMDL
MODEL 5
REMARK VINA RESULT:      -8.6      2.736      9.623
REMARK  Name = 5280637
REMARK                            x       y       z     vdW  Elec       q    Type
REMARK                         _______ _______ _______ _____ _____    ______ ____
ROOT
ATOM     13  C   LIG    1      148.214 159.053 150.226  0.00  0.00    +0.131 A 
ATOM     14  C   LIG    1      148.510 160.329 150.707  0.00  0.00    +0.092 A 
ATOM     15  C   LIG    1      149.742 160.582 151.312  0.00  0.00    +0.135 A 
ATOM     16  C   LIG    1      150.675 159.550 151.433  0.00  0.00    +0.105 A 
ATOM     17  C   LIG    1      151.981 159.786 152.067  0.00  0.00    +0.197 A 
ATOM     18  C   LIG    1      152.890 158.624 152.140  0.00  0.00    +0.098 A 
ATOM     19  C   LIG    1      152.493 157.446 151.635  0.00  0.00    +0.139 A 
ATOM     30  O   LIG    1      151.259 157.224 151.045  0.00  0.00    -0.454 OA
ATOM     31  O   LIG    1      152.303 160.878 152.513  0.00  0.00    -0.287 OA
ATOM     32  C   LIG    1      150.381 158.275 150.952  0.00  0.00    +0.146 A 
ATOM     35  C   LIG    1      149.149 158.024 150.349  0.00  0.00    +0.093 A 
ENDROOT
BRANCH  19  20
ATOM     20  C   LIG    1      153.357 156.248 151.687  0.00  0.00    +0.021 A 
ATOM     21  C   LIG    1      153.118 155.174 150.827  0.00  0.00    +0.015 A 
ATOM     22  C   LIG    1      153.932 154.042 150.878  0.00  0.00    +0.050 A 
ATOM     23  C   LIG    1      154.988 153.983 151.788  0.00  0.00    +0.158 A 
ATOM     24  C   LIG    1      155.228 155.054 152.648  0.00  0.00    +0.159 A 
ATOM     29  C   LIG    1      154.414 156.185 152.598  0.00  0.00    +0.060 A 
BRANCH  24  25
ATOM     25  O   LIG    1      156.258 155.006 153.540  0.00  0.00    -0.503 OA
ATOM     26  H   LIG    1      156.759 154.188 153.385  0.00  0.00    +0.292 HD
ENDBRANCH  24  25
BRANCH  23  27
ATOM     27  O   LIG    1      155.776 152.872 151.828  0.00  0.00    -0.503 OA
ATOM     28  H   LIG    1      155.244 152.117 152.135  0.00  0.00    +0.292 HD
ENDBRANCH  23  27
ENDBRANCH  19  20
BRANCH  15  33
ATOM     33  O   LIG    1      149.982 161.844 151.765  0.00  0.00    -0.506 OA
ATOM     34  H   LIG    1      149.150 162.327 151.884  0.00  0.00    +0.292 HD
ENDBRANCH  15  33
BRANCH  13  12
ATOM     12  O   LIG    1      147.009 158.811 149.636  0.00  0.00    -0.461 OA
BRANCH  12   2
ATOM      1  O   LIG    1      147.716 156.801 148.684  0.00  0.00    -0.331 OA
ATOM      2  C   LIG    1      146.672 157.443 149.412  0.00  0.00    +0.339 C 
ATOM      3  C   LIG    1      145.365 157.404 148.619  0.00  0.00    +0.214 C 
ATOM      4  C   LIG    1      145.007 155.976 148.205  0.00  0.00    +0.180 C 
ATOM      5  C   LIG    1      146.205 155.267 147.572  0.00  0.00    +0.177 C 
ATOM     36  C   LIG    1      147.450 155.417 148.448  0.00  0.00    +0.179 C 
BRANCH   5   6
ATOM      6  O   LIG    1      145.903 153.883 147.414  0.00  0.00    -0.386 OA
ATOM      7  H   LIG    1      146.389 153.391 148.097  0.00  0.00    +0.210 HD
ENDBRANCH   5   6
BRANCH   4   8
ATOM      8  O   LIG    1      143.953 156.011 147.241  0.00  0.00    -0.386 OA
ATOM      9  H   LIG    1      143.125 155.804 147.709  0.00  0.00    +0.210 HD
ENDBRANCH   4   8
BRANCH   3  10
ATOM     10  O   LIG    1      144.325 157.933 149.443  0.00  0.00    -0.383 OA
ATOM     11  H   LIG    1      143.504 157.457 149.233  0.00  0.00    +0.210 HD
ENDBRANCH   3  10
BRANCH  36  37
ATOM     37  C   LIG    1      148.685 154.819 147.781  0.00  0.00    +0.190 C 
BRANCH  37  38
ATOM     38  O   LIG    1      148.634 153.411 147.920  0.00  0.00    -0.392 OA
ATOM     39  H   LIG    1      148.567 153.210 148.869  0.00  0.00    +0.210 HD
ENDBRANCH  37  38
ENDBRANCH  36  37
ENDBRANCH  12   2
ENDBRANCH  13  12
TORSDOF 11
ENDMDL
MODEL 6
REMARK VINA RESULT:      -8.6      2.349      5.900
REMARK  Name = 5280637
REMARK                            x       y       z     vdW  Elec       q    Type
REMARK                         _______ _______ _______ _____ _____    ______ ____
ROOT
ATOM     13  C   LIG    1      150.665 154.867 150.184  0.00  0.00    +0.131 A 
ATOM     14  C   LIG    1      149.361 155.168 149.789  0.00  0.00    +0.092 A 
ATOM     15  C   LIG    1      148.851 154.649 148.599  0.00  0.00    +0.135 A 
ATOM     16  C   LIG    1      149.655 153.827 147.805  0.00  0.00    +0.105 A 
ATOM     17  C   LIG    1      149.147 153.266 146.544  0.00  0.00    +0.197 A 
ATOM     18  C   LIG    1      150.082 152.409 145.787  0.00  0.00    +0.098 A 
ATOM     19  C   LIG    1      151.313 152.188 146.274  0.00  0.00    +0.139 A 
ATOM     30  O   LIG    1      151.792 152.724 147.459  0.00  0.00    -0.454 OA
ATOM     31  O   LIG    1      148.015 153.492 146.138  0.00  0.00    -0.287 OA
ATOM     32  C   LIG    1      150.958 153.525 148.199  0.00  0.00    +0.146 A 
ATOM     35  C   LIG    1      151.466 154.046 149.389  0.00  0.00    +0.093 A 
ENDROOT
BRANCH  19  20
ATOM     20  C   LIG    1      152.293 151.347 145.557  0.00  0.00    +0.021 A 
ATOM     21  C   LIG    1      152.790 150.186 146.153  0.00  0.00    +0.015 A 
ATOM     22  C   LIG    1      153.716 149.393 145.476  0.00  0.00    +0.050 A 
ATOM     23  C   LIG    1      154.147 149.759 144.200  0.00  0.00    +0.158 A 
ATOM     24  C   LIG    1      153.653 150.918 143.603  0.00  0.00    +0.159 A 
ATOM     29  C   LIG    1      152.726 151.712 144.280  0.00  0.00    +0.060 A 
BRANCH  24  25
ATOM     25  O   LIG    1      154.066 151.284 142.357  0.00  0.00    -0.503 OA
ATOM     26  H   LIG    1      153.986 150.513 141.770  0.00  0.00    +0.292 HD
ENDBRANCH  24  25
BRANCH  23  27
ATOM     27  O   LIG    1      155.053 148.976 143.550  0.00  0.00    -0.503 OA
ATOM     28  H   LIG    1      154.668 148.680 142.706  0.00  0.00    +0.292 HD
ENDBRANCH  23  27
ENDBRANCH  19  20
BRANCH  15  33
ATOM     33  O   LIG    1      147.573 154.973 148.257  0.00  0.00    -0.506 OA
ATOM     34  H   LIG    1      147.318 154.530 147.434  0.00  0.00    +0.292 HD
ENDBRANCH  15  33
BRANCH  13  12
ATOM     12  O   LIG    1      151.159 155.377 151.349  0.00  0.00    -0.461 OA
BRANCH  12   2
ATOM      1  O   LIG    1      153.357 155.244 152.119  0.00  0.00    -0.331 OA
ATOM      2  C   LIG    1      152.455 155.969 151.287  0.00  0.00    +0.339 C 
ATOM      3  C   LIG    1      152.334 157.417 151.763  0.00  0.00    +0.214 C 
ATOM      4  C   LIG    1      153.706 158.084 151.872  0.00  0.00    +0.180 C 
ATOM      5  C   LIG    1      154.692 157.200 152.635  0.00  0.00    +0.177 C 
ATOM     36  C   LIG    1      154.684 155.773 152.082  0.00  0.00    +0.179 C 
BRANCH   5   6
ATOM      6  O   LIG    1      156.004 157.744 152.515  0.00  0.00    -0.386 OA
ATOM      7  H   LIG    1      156.481 157.233 151.839  0.00  0.00    +0.210 HD
ENDBRANCH   5   6
BRANCH   4   8
ATOM      8  O   LIG    1      153.580 159.319 152.578  0.00  0.00    -0.386 OA
ATOM      9  H   LIG    1      152.988 159.891 152.060  0.00  0.00    +0.210 HD
ENDBRANCH   4   8
BRANCH   3  10
ATOM     10  O   LIG    1      151.533 158.133 150.823  0.00  0.00    -0.383 OA
ATOM     11  H   LIG    1      150.615 157.826 150.914  0.00  0.00    +0.210 HD
ENDBRANCH   3  10
BRANCH  36  37
ATOM     37  C   LIG    1      155.573 154.844 152.903  0.00  0.00    +0.190 C 
BRANCH  37  38
ATOM     38  O   LIG    1      156.918 155.043 152.508  0.00  0.00    -0.392 OA
ATOM     39  H   LIG    1      157.133 154.368 151.841  0.00  0.00    +0.210 HD
ENDBRANCH  37  38
ENDBRANCH  36  37
ENDBRANCH  12   2
ENDBRANCH  13  12
TORSDOF 11
ENDMDL
MODEL 7
REMARK VINA RESULT:      -8.6      4.895      8.793
REMARK  Name = 5280637
REMARK                            x       y       z     vdW  Elec       q    Type
REMARK                         _______ _______ _______ _____ _____    ______ ____
ROOT
ATOM     13  C   LIG    1      152.114 158.333 152.046  0.00  0.00    +0.131 A 
ATOM     14  C   LIG    1      151.267 157.922 151.017  0.00  0.00    +0.092 A 
ATOM     15  C   LIG    1      150.634 158.868 150.210  0.00  0.00    +0.135 A 
ATOM     16  C   LIG    1      150.855 160.228 150.440  0.00  0.00    +0.105 A 
ATOM     17  C   LIG    1      150.200 161.249 149.607  0.00  0.00    +0.197 A 
ATOM     18  C   LIG    1      150.507 162.656 149.938  0.00  0.00    +0.098 A 
ATOM     19  C   LIG    1      151.346 162.925 150.951  0.00  0.00    +0.139 A 
ATOM     30  O   LIG    1      151.955 161.961 151.739  0.00  0.00    -0.454 OA
ATOM     31  O   LIG    1      149.444 160.959 148.692  0.00  0.00    -0.287 OA
ATOM     32  C   LIG    1      151.702 160.640 151.468  0.00  0.00    +0.146 A 
ATOM     35  C   LIG    1      152.333 159.693 152.273  0.00  0.00    +0.093 A 
ENDROOT
BRANCH  19  20
ATOM     20  C   LIG    1      151.682 164.313 151.333  0.00  0.00    +0.021 A 
ATOM     21  C   LIG    1      151.609 164.709 152.670  0.00  0.00    +0.015 A 
ATOM     22  C   LIG    1      151.926 166.019 153.030  0.00  0.00    +0.050 A 
ATOM     23  C   LIG    1      152.317 166.935 152.054  0.00  0.00    +0.158 A 
ATOM     24  C   LIG    1      152.389 166.542 150.717  0.00  0.00    +0.159 A 
ATOM     29  C   LIG    1      152.073 165.232 150.357  0.00  0.00    +0.060 A 
BRANCH  24  25
ATOM     25  O   LIG    1      152.772 167.429 149.756  0.00  0.00    -0.503 OA
ATOM     26  H   LIG    1      152.544 168.325 150.058  0.00  0.00    +0.292 HD
ENDBRANCH  24  25
BRANCH  23  27
ATOM     27  O   LIG    1      152.622 168.212 152.418  0.00  0.00    -0.503 OA
ATOM     28  H   LIG    1      153.568 168.371 152.255  0.00  0.00    +0.292 HD
ENDBRANCH  23  27
ENDBRANCH  19  20
BRANCH  15  33
ATOM     33  O   LIG    1      149.816 158.416 149.219  0.00  0.00    -0.506 OA
ATOM     34  H   LIG    1      150.179 157.613 148.818  0.00  0.00    +0.292 HD
ENDBRANCH  15  33
BRANCH  13  12
ATOM     12  O   LIG    1      152.730 157.404 152.832  0.00  0.00    -0.461 OA
BRANCH  12   2
ATOM      1  O   LIG    1      152.882 155.173 152.168  0.00  0.00    -0.331 OA
ATOM      2  C   LIG    1      153.539 156.437 152.164  0.00  0.00    +0.339 C 
ATOM      3  C   LIG    1      154.874 156.349 152.904  0.00  0.00    +0.214 C 
ATOM      4  C   LIG    1      155.748 155.226 152.343  0.00  0.00    +0.180 C 
ATOM      5  C   LIG    1      154.959 153.924 152.212  0.00  0.00    +0.177 C 
ATOM     36  C   LIG    1      153.631 154.163 151.489  0.00  0.00    +0.179 C 
BRANCH   5   6
ATOM      6  O   LIG    1      155.731 152.976 151.479  0.00  0.00    -0.386 OA
ATOM      7  H   LIG    1      156.412 153.463 150.984  0.00  0.00    +0.210 HD
ENDBRANCH   5   6
BRANCH   4   8
ATOM      8  O   LIG    1      156.846 154.992 153.226  0.00  0.00    -0.386 OA
ATOM      9  H   LIG    1      157.663 155.144 152.721  0.00  0.00    +0.210 HD
ENDBRANCH   4   8
BRANCH   3  10
ATOM     10  O   LIG    1      155.553 157.596 152.754  0.00  0.00    -0.383 OA
ATOM     11  H   LIG    1      155.271 158.182 153.478  0.00  0.00    +0.210 HD
ENDBRANCH   3  10
BRANCH  36  37
ATOM     37  C   LIG    1      152.774 152.902 151.450  0.00  0.00    +0.190 C 
BRANCH  37  38
ATOM     38  O   LIG    1      153.379 151.921 152.273  0.00  0.00    -0.392 OA
ATOM     39  H   LIG    1      153.422 152.279 153.177  0.00  0.00    +0.210 HD
ENDBRANCH  37  38
ENDBRANCH  36  37
ENDBRANCH  12   2
ENDBRANCH  13  12
TORSDOF 11
ENDMDL
MODEL 8
REMARK VINA RESULT:      -8.5      2.975      9.062
REMARK  Name = 5280637
REMARK                            x       y       z     vdW  Elec       q    Type
REMARK                         _______ _______ _______ _____ _____    ______ ____
ROOT
ATOM     13  C   LIG    1      152.696 150.639 146.952  0.00  0.00    +0.131 A 
ATOM     14  C   LIG    1      151.325 150.780 146.737  0.00  0.00    +0.092 A 
ATOM     15  C   LIG    1      150.622 151.817 147.351  0.00  0.00    +0.135 A 
ATOM     16  C   LIG    1      151.300 152.712 148.182  0.00  0.00    +0.105 A 
ATOM     17  C   LIG    1      150.586 153.813 148.845  0.00  0.00    +0.197 A 
ATOM     18  C   LIG    1      151.402 154.700 149.699  0.00  0.00    +0.098 A 
ATOM     19  C   LIG    1      152.718 154.465 149.823  0.00  0.00    +0.139 A 
ATOM     30  O   LIG    1      153.387 153.421 149.203  0.00  0.00    -0.454 OA
ATOM     31  O   LIG    1      149.384 153.992 148.703  0.00  0.00    -0.287 OA
ATOM     32  C   LIG    1      152.671 152.572 148.397  0.00  0.00    +0.146 A 
ATOM     35  C   LIG    1      153.371 151.535 147.783  0.00  0.00    +0.093 A 
ENDROOT
BRANCH  19  20
ATOM     20  C   LIG    1      153.582 155.313 150.670  0.00  0.00    +0.021 A 
ATOM     21  C   LIG    1      153.563 156.701 150.522  0.00  0.00    +0.015 A 
ATOM     22  C   LIG    1      154.380 157.501 151.321  0.00  0.00    +0.050 A 
ATOM     23  C   LIG    1      155.217 156.915 152.271  0.00  0.00    +0.158 A 
ATOM     24  C   LIG    1      155.238 155.528 152.420  0.00  0.00    +0.159 A 
ATOM     29  C   LIG    1      154.421 154.728 151.621  0.00  0.00    +0.060 A 
BRANCH  24  25
ATOM     25  O   LIG    1      156.050 154.945 153.346  0.00  0.00    -0.503 OA
ATOM     26  H   LIG    1      155.506 154.678 154.106  0.00  0.00    +0.292 HD
ENDBRANCH  24  25
BRANCH  23  27
ATOM     27  O   LIG    1      156.011 157.707 153.044  0.00  0.00    -0.503 OA
ATOM     28  H   LIG    1      155.505 157.999 153.823  0.00  0.00    +0.292 HD
ENDBRANCH  23  27
ENDBRANCH  19  20
BRANCH  15  33
ATOM     33  O   LIG    1      149.284 151.911 147.110  0.00  0.00    -0.506 OA
ATOM     34  H   LIG    1      149.098 151.776 146.169  0.00  0.00    +0.292 HD
ENDBRANCH  15  33
BRANCH  13  12
ATOM     12  O   LIG    1      153.379 149.624 146.349  0.00  0.00    -0.461 OA
BRANCH  12   2
ATOM      1  O   LIG    1      152.128 147.989 145.252  0.00  0.00    -0.331 OA
ATOM      2  C   LIG    1      152.885 149.185 145.085  0.00  0.00    +0.339 C 
ATOM      3  C   LIG    1      154.087 148.936 144.172  0.00  0.00    +0.214 C 
ATOM      4  C   LIG    1      153.655 148.318 142.841  0.00  0.00    +0.180 C 
ATOM      5  C   LIG    1      152.713 147.134 143.060  0.00  0.00    +0.177 C 
ATOM     36  C   LIG    1      151.583 147.509 144.021  0.00  0.00    +0.179 C 
BRANCH   5   6
ATOM      6  O   LIG    1      152.157 146.736 141.810  0.00  0.00    -0.386 OA
ATOM      7  H   LIG    1      152.382 145.801 141.665  0.00  0.00    +0.210 HD
ENDBRANCH   5   6
BRANCH   4   8
ATOM      8  O   LIG    1      154.807 147.844 142.141  0.00  0.00    -0.386 OA
ATOM      9  H   LIG    1      154.542 147.045 141.653  0.00  0.00    +0.210 HD
ENDBRANCH   4   8
BRANCH   3  10
ATOM     10  O   LIG    1      154.730 150.186 143.927  0.00  0.00    -0.383 OA
ATOM     11  H   LIG    1      155.636 150.132 144.275  0.00  0.00    +0.210 HD
ENDBRANCH   3  10
BRANCH  36  37
ATOM     37  C   LIG    1      150.698 146.310 144.347  0.00  0.00    +0.190 C 
BRANCH  37  38
ATOM     38  O   LIG    1      149.714 146.189 143.336  0.00  0.00    -0.392 OA
ATOM     39  H   LIG    1      148.976 146.779 143.569  0.00  0.00    +0.210 HD
ENDBRANCH  37  38
ENDBRANCH  36  37
ENDBRANCH  12   2
ENDBRANCH  13  12
TORSDOF 11
ENDMDL
MODEL 9
REMARK VINA RESULT:      -8.5      5.268      8.482
REMARK  Name = 5280637
REMARK                            x       y       z     vdW  Elec       q    Type
REMARK                         _______ _______ _______ _____ _____    ______ ____
ROOT
ATOM     13  C   LIG    1      152.196 159.256 151.400  0.00  0.00    +0.131 A 
ATOM     14  C   LIG    1      150.977 158.606 151.208  0.00  0.00    +0.092 A 
ATOM     15  C   LIG    1      149.967 159.216 150.463  0.00  0.00    +0.135 A 
ATOM     16  C   LIG    1      150.186 160.480 149.911  0.00  0.00    +0.105 A 
ATOM     17  C   LIG    1      149.140 161.149 149.122  0.00  0.00    +0.197 A 
ATOM     18  C   LIG    1      149.481 162.482 148.584  0.00  0.00    +0.098 A 
ATOM     19  C   LIG    1      150.693 163.001 148.832  0.00  0.00    +0.139 A 
ATOM     30  O   LIG    1      151.674 162.372 149.583  0.00  0.00    -0.454 OA
ATOM     31  O   LIG    1      148.048 160.638 148.918  0.00  0.00    -0.287 OA
ATOM     32  C   LIG    1      151.405 161.130 150.101  0.00  0.00    +0.146 A 
ATOM     35  C   LIG    1      152.412 160.519 150.847  0.00  0.00    +0.093 A 
ENDROOT
BRANCH  19  20
ATOM     20  C   LIG    1      151.086 164.333 148.327  0.00  0.00    +0.021 A 
ATOM     21  C   LIG    1      151.127 164.578 146.953  0.00  0.00    +0.015 A 
ATOM     22  C   LIG    1      151.499 165.835 146.477  0.00  0.00    +0.050 A 
ATOM     23  C   LIG    1      151.831 166.851 147.374  0.00  0.00    +0.158 A 
ATOM     24  C   LIG    1      151.791 166.609 148.747  0.00  0.00    +0.159 A 
ATOM     29  C   LIG    1      151.419 165.351 149.224  0.00  0.00    +0.060 A 
BRANCH  24  25
ATOM     25  O   LIG    1      152.111 167.594 149.632  0.00  0.00    -0.503 OA
ATOM     26  H   LIG    1      152.330 168.397 149.130  0.00  0.00    +0.292 HD
ENDBRANCH  24  25
BRANCH  23  27
ATOM     27  O   LIG    1      152.194 168.074 146.897  0.00  0.00    -0.503 OA
ATOM     28  H   LIG    1      151.401 168.536 146.573  0.00  0.00    +0.292 HD
ENDBRANCH  23  27
ENDBRANCH  19  20
BRANCH  15  33
ATOM     33  O   LIG    1      148.794 158.541 150.305  0.00  0.00    -0.506 OA
ATOM     34  H   LIG    1      148.793 157.731 150.837  0.00  0.00    +0.292 HD
ENDBRANCH  15  33
BRANCH  13  12
ATOM     12  O   LIG    1      153.180 158.656 152.130  0.00  0.00    -0.461 OA
BRANCH  12   2
ATOM      1  O   LIG    1      153.263 156.613 153.254  0.00  0.00    -0.331 OA
ATOM      2  C   LIG    1      153.316 157.244 151.977  0.00  0.00    +0.339 C 
ATOM      3  C   LIG    1      154.661 156.972 151.301  0.00  0.00    +0.214 C 
ATOM      4  C   LIG    1      154.957 155.473 151.234  0.00  0.00    +0.180 C 
ATOM      5  C   LIG    1      154.732 154.803 152.590  0.00  0.00    +0.177 C 
ATOM     36  C   LIG    1      153.369 155.191 153.168  0.00  0.00    +0.179 C 
BRANCH   5   6
ATOM      6  O   LIG    1      154.792 153.388 152.432  0.00  0.00    -0.386 OA
ATOM      7  H   LIG    1      155.200 153.015 153.233  0.00  0.00    +0.210 HD
ENDBRANCH   5   6
BRANCH   4   8
ATOM      8  O   LIG    1      156.322 155.274 150.862  0.00  0.00    -0.386 OA
ATOM      9  H   LIG    1      156.504 154.321 150.925  0.00  0.00    +0.210 HD
ENDBRANCH   4   8
BRANCH   3  10
ATOM     10  O   LIG    1      154.613 157.505 149.978  0.00  0.00    -0.383 OA
ATOM     11  H   LIG    1      155.368 158.107 149.868  0.00  0.00    +0.210 HD
ENDBRANCH   3  10
BRANCH  36  37
ATOM     37  C   LIG    1      153.172 154.629 154.573  0.00  0.00    +0.190 C 
BRANCH  37  38
ATOM     38  O   LIG    1      154.424 154.622 155.235  0.00  0.00    -0.392 OA
ATOM     39  H   LIG    1      154.409 153.899 155.886  0.00  0.00    +0.210 HD
ENDBRANCH  37  38
ENDBRANCH  36  37
ENDBRANCH  12   2
ENDBRANCH  13  12
TORSDOF 11
ENDMDL
MODEL 10
REMARK VINA RESULT:      -8.5      2.827      5.866
REMARK  Name = 5280637
REMARK                            x       y       z     vdW  Elec       q    Type
REMARK                         _______ _______ _______ _____ _____    ______ ____
ROOT
ATOM     13  C   LIG    1      152.773 154.345 150.343  0.00  0.00    +0.131 A 
ATOM     14  C   LIG    1      151.400 154.577 150.415  0.00  0.00    +0.092 A 
ATOM     15  C   LIG    1      150.540 153.991 149.485  0.00  0.00    +0.135 A 
ATOM     16  C   LIG    1      151.064 153.170 148.484  0.00  0.00    +0.105 A 
ATOM     17  C   LIG    1      150.183 152.539 147.490  0.00  0.00    +0.197 A 
ATOM     18  C   LIG    1      150.844 151.690 146.478  0.00  0.00    +0.098 A 
ATOM     19  C   LIG    1      152.177 151.538 146.516  0.00  0.00    +0.139 A 
ATOM     30  O   LIG    1      153.006 152.140 147.450  0.00  0.00    -0.454 OA
ATOM     31  O   LIG    1      148.971 152.703 147.493  0.00  0.00    -0.287 OA
ATOM     32  C   LIG    1      152.436 152.936 148.412  0.00  0.00    +0.146 A 
ATOM     35  C   LIG    1      153.294 153.524 149.341  0.00  0.00    +0.093 A 
ENDROOT
BRANCH  19  20
ATOM     20  C   LIG    1      152.893 150.708 145.525  0.00  0.00    +0.021 A 
ATOM     21  C   LIG    1      153.172 149.368 145.803  0.00  0.00    +0.015 A 
ATOM     22  C   LIG    1      153.849 148.585 144.869  0.00  0.00    +0.050 A 
ATOM     23  C   LIG    1      154.248 149.140 143.652  0.00  0.00    +0.158 A 
ATOM     24  C   LIG    1      153.972 150.479 143.373  0.00  0.00    +0.159 A 
ATOM     29  C   LIG    1      153.295 151.261 144.308  0.00  0.00    +0.060 A 
BRANCH  24  25
ATOM     25  O   LIG    1      154.356 151.030 142.187  0.00  0.00    -0.503 OA
ATOM     26  H   LIG    1      154.856 151.842 142.375  0.00  0.00    +0.292 HD
ENDBRANCH  24  25
BRANCH  23  27
ATOM     27  O   LIG    1      154.910 148.366 142.748  0.00  0.00    -0.503 OA
ATOM     28  H   LIG    1      155.868 148.472 142.880  0.00  0.00    +0.292 HD
ENDBRANCH  23  27
ENDBRANCH  19  20
BRANCH  15  33
ATOM     33  O   LIG    1      149.207 154.249 149.598  0.00  0.00    -0.506 OA
ATOM     34  H   LIG    1      148.820 154.429 148.728  0.00  0.00    +0.292 HD
ENDBRANCH  15  33
BRANCH  13  12
ATOM     12  O   LIG    1      153.610 154.921 151.253  0.00  0.00    -0.461 OA
BRANCH  12   2
ATOM      1  O   LIG    1      154.626 156.559 149.939  0.00  0.00    -0.331 OA
ATOM      2  C   LIG    1      153.845 156.321 151.108  0.00  0.00    +0.339 C 
ATOM      3  C   LIG    1      154.585 156.805 152.355  0.00  0.00    +0.214 C 
ATOM      4  C   LIG    1      155.011 158.267 152.216  0.00  0.00    +0.180 C 
ATOM      5  C   LIG    1      155.704 158.517 150.877  0.00  0.00    +0.177 C 
ATOM     36  C   LIG    1      154.876 157.949 149.722  0.00  0.00    +0.179 C 
BRANCH   5   6
ATOM      6  O   LIG    1      155.875 159.920 150.689  0.00  0.00    -0.386 OA
ATOM      7  H   LIG    1      156.114 160.310 151.547  0.00  0.00    +0.210 HD
ENDBRANCH   5   6
BRANCH   4   8
ATOM      8  O   LIG    1      155.930 158.596 153.259  0.00  0.00    -0.386 OA
ATOM      9  H   LIG    1      155.543 159.329 153.767  0.00  0.00    +0.210 HD
ENDBRANCH   4   8
BRANCH   3  10
ATOM     10  O   LIG    1      153.711 156.671 153.475  0.00  0.00    -0.383 OA
ATOM     11  H   LIG    1      153.825 155.777 153.841  0.00  0.00    +0.210 HD
ENDBRANCH   3  10
BRANCH  36  37
ATOM     37  C   LIG    1      155.603 158.083 148.387  0.00  0.00    +0.190 C 
BRANCH  37  38
ATOM     38  O   LIG    1      156.977 158.308 148.643  0.00  0.00    -0.392 OA
ATOM     39  H   LIG    1      157.480 157.605 148.198  0.00  0.00    +0.210 HD
ENDBRANCH  37  38
ENDBRANCH  36  37
ENDBRANCH  12   2
ENDBRANCH  13  12
TORSDOF 11
ENDMDL
