MODEL 1
REMARK VINA RESULT:    -8.209      0.000      0.000
REMARK INTER + INTRA:         -12.138
REMARK INTER:                 -11.335
REMARK INTRA:                  -0.803
REMARK UNBOUND:                -1.050
REMARK  Name = 14749097
REMARK  9 active torsions:
REMARK  status: ('A' for Active; 'I' for Inactive)
REMARK    1  A    between atoms: O_2  and  C_14
REMARK    2  A    between atoms: O_2  and  C_16
REMARK    3  A    between atoms: O_3  and  C_11
REMARK    4  A    between atoms: O_4  and  C_12
REMARK    5  A    between atoms: O_5  and  C_13
REMARK    6  A    between atoms: O_8  and  C_22
REMARK    7  A    between atoms: O_9  and  C_27
REMARK    8  A    between atoms: O_10  and  C_30
REMARK    9  A    between atoms: C_17  and  C_21
REMARK                            x       y       z     vdW  Elec       q    Type
REMARK                         _______ _______ _______ _____ _____    ______ ____
ROOT
ATOM      1  O   UNL     1      92.293  14.201  38.939  0.00  0.00    +0.000 OA
ATOM      2  O   UNL     1      88.478  12.777  39.096  0.00  0.00    +0.000 OA
ATOM      3  C   UNL     1      90.427  13.431  40.271  0.00  0.00    +0.000 A 
ATOM      4  C   UNL     1      91.684  13.897  40.146  0.00  0.00    +0.000 A 
ATOM      5  C   UNL     1      89.625  13.201  39.045  0.00  0.00    +0.000 A 
ATOM      6  C   UNL     1      90.283  13.514  37.767  0.00  0.00    +0.000 A 
ATOM      7  C   UNL     1      91.588  13.998  37.781  0.00  0.00    +0.000 A 
ATOM      8  C   UNL     1      89.612  13.327  36.555  0.00  0.00    +0.000 A 
ATOM      9  C   UNL     1      92.232  14.304  36.582  0.00  0.00    +0.000 A 
ATOM     10  C   UNL     1      90.259  13.633  35.356  0.00  0.00    +0.000 A 
ATOM     11  C   UNL     1      91.566  14.120  35.370  0.00  0.00    +0.000 A 
ENDROOT
BRANCH   4  12
ATOM     12  C   UNL     1      92.549  14.161  41.310  0.00  0.00    +0.000 A 
ATOM     13  C   UNL     1      92.369  15.320  42.065  0.00  0.00    +0.000 A 
ATOM     14  C   UNL     1      93.548  13.251  41.656  0.00  0.00    +0.000 A 
ATOM     15  C   UNL     1      93.187  15.569  43.166  0.00  0.00    +0.000 A 
ATOM     16  C   UNL     1      94.367  13.500  42.758  0.00  0.00    +0.000 A 
ATOM     17  C   UNL     1      94.186  14.659  43.514  0.00  0.00    +0.000 A 
BRANCH  17  18
ATOM     18  O   UNL     1      94.984  14.903  44.589  0.00  0.00    +0.000 OA
ATOM     19  H   UNL     1      95.821  14.419  44.478  0.00  0.00    +0.000 HD
ENDBRANCH  17  18
ENDBRANCH   4  12
BRANCH   8  20
ATOM     20  O   UNL     1      88.335  12.857  36.486  0.00  0.00    +0.000 OA
ATOM     21  H   UNL     1      88.257  12.188  35.789  0.00  0.00    +0.000 HD
ENDBRANCH   8  20
BRANCH  11  22
ATOM     22  O   UNL     1      92.193  14.416  34.198  0.00  0.00    +0.000 OA
ATOM     23  H   UNL     1      92.954  13.819  34.088  0.00  0.00    +0.000 HD
ENDBRANCH  11  22
BRANCH   3  24
ATOM     24  O   UNL     1      89.839  13.170  41.489  0.00  0.00    +0.000 OA
BRANCH  24  29
ATOM     25  O   UNL     1      89.107  15.184  42.494  0.00  0.00    +0.000 OA
ATOM     26  C   UNL     1      88.033  12.887  43.859  0.00  0.00    +0.000 C 
ATOM     27  C   UNL     1      87.608  13.270  42.440  0.00  0.00    +0.000 C 
ATOM     28  C   UNL     1      88.525  14.122  44.616  0.00  0.00    +0.000 C 
ATOM     29  C   UNL     1      88.729  14.035  41.731  0.00  0.00    +0.000 C 
ATOM     30  C   UNL     1      89.583  14.866  43.808  0.00  0.00    +0.000 C 
BRANCH  26  31
ATOM     31  O   UNL     1      86.940  12.312  44.569  0.00  0.00    +0.000 OA
ATOM     32  H   UNL     1      87.274  12.035  45.440  0.00  0.00    +0.000 HD
ENDBRANCH  26  31
BRANCH  27  33
ATOM     33  O   UNL     1      87.289  12.107  41.683  0.00  0.00    +0.000 OA
ATOM     34  H   UNL     1      86.819  11.491  42.269  0.00  0.00    +0.000 HD
ENDBRANCH  27  33
BRANCH  28  35
ATOM     35  O   UNL     1      87.423  15.005  44.842  0.00  0.00    +0.000 OA
ATOM     36  H   UNL     1      86.892  14.630  45.566  0.00  0.00    +0.000 HD
ENDBRANCH  28  35
ENDBRANCH  24  29
ENDBRANCH   3  24
TORSDOF 9
ENDMDL
MODEL 2
REMARK VINA RESULT:    -7.974     10.951     13.311
REMARK INTER + INTRA:         -11.821
REMARK INTER:                 -10.626
REMARK INTRA:                  -1.194
REMARK UNBOUND:                -1.050
REMARK  Name = 14749097
REMARK  9 active torsions:
REMARK  status: ('A' for Active; 'I' for Inactive)
REMARK    1  A    between atoms: O_2  and  C_14
REMARK    2  A    between atoms: O_2  and  C_16
REMARK    3  A    between atoms: O_3  and  C_11
REMARK    4  A    between atoms: O_4  and  C_12
REMARK    5  A    between atoms: O_5  and  C_13
REMARK    6  A    between atoms: O_8  and  C_22
REMARK    7  A    between atoms: O_9  and  C_27
REMARK    8  A    between atoms: O_10  and  C_30
REMARK    9  A    between atoms: C_17  and  C_21
REMARK                            x       y       z     vdW  Elec       q    Type
REMARK                         _______ _______ _______ _____ _____    ______ ____
ROOT
ATOM      1  O   UNL     1      84.354  13.015  28.168  0.00  0.00    +0.000 OA
ATOM      2  O   UNL     1      85.437  11.304  31.704  0.00  0.00    +0.000 OA
ATOM      3  C   UNL     1      84.001  12.791  30.550  0.00  0.00    +0.000 A 
ATOM      4  C   UNL     1      83.701  13.324  29.351  0.00  0.00    +0.000 A 
ATOM      5  C   UNL     1      85.117  11.819  30.642  0.00  0.00    +0.000 A 
ATOM      6  C   UNL     1      85.814  11.506  29.385  0.00  0.00    +0.000 A 
ATOM      7  C   UNL     1      85.394  12.123  28.209  0.00  0.00    +0.000 A 
ATOM      8  C   UNL     1      86.881  10.604  29.366  0.00  0.00    +0.000 A 
ATOM      9  C   UNL     1      86.038  11.841  27.004  0.00  0.00    +0.000 A 
ATOM     10  C   UNL     1      87.524  10.324  28.159  0.00  0.00    +0.000 A 
ATOM     11  C   UNL     1      87.104  10.941  26.981  0.00  0.00    +0.000 A 
ENDROOT
BRANCH   4  12
ATOM     12  C   UNL     1      82.604  14.291  29.167  0.00  0.00    +0.000 A 
ATOM     13  C   UNL     1      82.833  15.653  29.368  0.00  0.00    +0.000 A 
ATOM     14  C   UNL     1      81.337  13.846  28.790  0.00  0.00    +0.000 A 
ATOM     15  C   UNL     1      81.796  16.568  29.194  0.00  0.00    +0.000 A 
ATOM     16  C   UNL     1      80.299  14.761  28.615  0.00  0.00    +0.000 A 
ATOM     17  C   UNL     1      80.528  16.122  28.816  0.00  0.00    +0.000 A 
BRANCH  17  18
ATOM     18  O   UNL     1      79.517  17.016  28.646  0.00  0.00    +0.000 OA
ATOM     19  H   UNL     1      79.735  17.603  27.902  0.00  0.00    +0.000 HD
ENDBRANCH  17  18
ENDBRANCH   4  12
BRANCH   8  20
ATOM     20  O   UNL     1      87.331   9.973  30.487  0.00  0.00    +0.000 OA
ATOM     21  H   UNL     1      86.608   9.491  30.918  0.00  0.00    +0.000 HD
ENDBRANCH   8  20
BRANCH  11  22
ATOM     22  O   UNL     1      87.735  10.665  25.807  0.00  0.00    +0.000 OA
ATOM     23  H   UNL     1      87.423   9.805  25.475  0.00  0.00    +0.000 HD
ENDBRANCH  11  22
BRANCH   3  24
ATOM     24  O   UNL     1      83.310  13.095  31.703  0.00  0.00    +0.000 OA
BRANCH  24  29
ATOM     25  O   UNL     1      81.111  12.223  31.644  0.00  0.00    +0.000 OA
ATOM     26  C   UNL     1      81.829  13.059  34.304  0.00  0.00    +0.000 C 
ATOM     27  C   UNL     1      82.482  11.856  33.619  0.00  0.00    +0.000 C 
ATOM     28  C   UNL     1      80.434  13.306  33.727  0.00  0.00    +0.000 C 
ATOM     29  C   UNL     1      82.452  12.024  32.097  0.00  0.00    +0.000 C 
ATOM     30  C   UNL     1      80.484  13.383  32.204  0.00  0.00    +0.000 C 
BRANCH  26  31
ATOM     31  O   UNL     1      81.718  12.836  35.706  0.00  0.00    +0.000 OA
ATOM     32  H   UNL     1      82.612  12.649  36.042  0.00  0.00    +0.000 HD
ENDBRANCH  26  31
BRANCH  27  33
ATOM     33  O   UNL     1      83.832  11.711  34.044  0.00  0.00    +0.000 OA
ATOM     34  H   UNL     1      84.319  12.503  33.761  0.00  0.00    +0.000 HD
ENDBRANCH  27  33
BRANCH  28  35
ATOM     35  O   UNL     1      79.574  12.225  34.098  0.00  0.00    +0.000 OA
ATOM     36  H   UNL     1      79.522  11.620  33.338  0.00  0.00    +0.000 HD
ENDBRANCH  28  35
ENDBRANCH  24  29
ENDBRANCH   3  24
TORSDOF 9
ENDMDL
MODEL 3
REMARK VINA RESULT:    -7.949     15.457     17.550
REMARK INTER + INTRA:         -11.787
REMARK INTER:                 -10.548
REMARK INTRA:                  -1.240
REMARK UNBOUND:                -1.050
REMARK  Name = 14749097
REMARK  9 active torsions:
REMARK  status: ('A' for Active; 'I' for Inactive)
REMARK    1  A    between atoms: O_2  and  C_14
REMARK    2  A    between atoms: O_2  and  C_16
REMARK    3  A    between atoms: O_3  and  C_11
REMARK    4  A    between atoms: O_4  and  C_12
REMARK    5  A    between atoms: O_5  and  C_13
REMARK    6  A    between atoms: O_8  and  C_22
REMARK    7  A    between atoms: O_9  and  C_27
REMARK    8  A    between atoms: O_10  and  C_30
REMARK    9  A    between atoms: C_17  and  C_21
REMARK                            x       y       z     vdW  Elec       q    Type
REMARK                         _______ _______ _______ _____ _____    ______ ____
ROOT
ATOM      1  O   UNL     1      81.794  27.397  37.620  0.00  0.00    +0.000 OA
ATOM      2  O   UNL     1      83.122  23.972  35.854  0.00  0.00    +0.000 OA
ATOM      3  C   UNL     1      81.448  25.642  35.993  0.00  0.00    +0.000 A 
ATOM      4  C   UNL     1      81.066  26.768  36.622  0.00  0.00    +0.000 A 
ATOM      5  C   UNL     1      82.724  24.999  36.389  0.00  0.00    +0.000 A 
ATOM      6  C   UNL     1      83.486  25.664  37.457  0.00  0.00    +0.000 A 
ATOM      7  C   UNL     1      82.978  26.833  38.019  0.00  0.00    +0.000 A 
ATOM      8  C   UNL     1      84.699  25.135  37.904  0.00  0.00    +0.000 A 
ATOM      9  C   UNL     1      83.683  27.484  39.032  0.00  0.00    +0.000 A 
ATOM     10  C   UNL     1      85.403  25.788  38.918  0.00  0.00    +0.000 A 
ATOM     11  C   UNL     1      84.896  26.959  39.481  0.00  0.00    +0.000 A 
ENDROOT
BRANCH   4  12
ATOM     12  C   UNL     1      79.817  27.477  36.288  0.00  0.00    +0.000 A 
ATOM     13  C   UNL     1      79.868  28.746  35.711  0.00  0.00    +0.000 A 
ATOM     14  C   UNL     1      78.585  26.878  36.549  0.00  0.00    +0.000 A 
ATOM     15  C   UNL     1      78.687  29.416  35.394  0.00  0.00    +0.000 A 
ATOM     16  C   UNL     1      77.403  27.549  36.232  0.00  0.00    +0.000 A 
ATOM     17  C   UNL     1      77.454  28.817  35.654  0.00  0.00    +0.000 A 
BRANCH  17  18
ATOM     18  O   UNL     1      76.302  29.471  35.344  0.00  0.00    +0.000 OA
ATOM     19  H   UNL     1      75.928  29.855  36.156  0.00  0.00    +0.000 HD
ENDBRANCH  17  18
ENDBRANCH   4  12
BRANCH   8  20
ATOM     20  O   UNL     1      85.240  23.996  37.388  0.00  0.00    +0.000 OA
ATOM     21  H   UNL     1      86.121  24.172  37.026  0.00  0.00    +0.000 HD
ENDBRANCH   8  20
BRANCH  11  22
ATOM     22  O   UNL     1      85.585  27.591  40.470  0.00  0.00    +0.000 OA
ATOM     23  H   UNL     1      85.583  28.548  40.294  0.00  0.00    +0.000 HD
ENDBRANCH  11  22
BRANCH   3  24
ATOM     24  O   UNL     1      80.716  25.059  34.981  0.00  0.00    +0.000 OA
BRANCH  24  29
ATOM     25  O   UNL     1      80.676  26.520  33.119  0.00  0.00    +0.000 OA
ATOM     26  C   UNL     1      79.626  23.928  32.433  0.00  0.00    +0.000 C 
ATOM     27  C   UNL     1      81.103  24.153  32.763  0.00  0.00    +0.000 C 
ATOM     28  C   UNL     1      78.997  25.221  31.910  0.00  0.00    +0.000 C 
ATOM     29  C   UNL     1      81.268  25.355  33.698  0.00  0.00    +0.000 C 
ATOM     30  C   UNL     1      79.274  26.381  32.862  0.00  0.00    +0.000 C 
BRANCH  26  31
ATOM     31  O   UNL     1      79.483  22.911  31.447  0.00  0.00    +0.000 OA
ATOM     32  H   UNL     1      80.129  22.213  31.654  0.00  0.00    +0.000 HD
ENDBRANCH  26  31
BRANCH  27  33
ATOM     33  O   UNL     1      81.657  23.000  33.387  0.00  0.00    +0.000 OA
ATOM     34  H   UNL     1      81.016  22.275  33.294  0.00  0.00    +0.000 HD
ENDBRANCH  27  33
BRANCH  28  35
ATOM     35  O   UNL     1      79.562  25.536  30.635  0.00  0.00    +0.000 OA
ATOM     36  H   UNL     1      80.108  24.779  30.362  0.00  0.00    +0.000 HD
ENDBRANCH  28  35
ENDBRANCH  24  29
ENDBRANCH   3  24
TORSDOF 9
ENDMDL
MODEL 4
REMARK VINA RESULT:    -7.908     14.291     16.524
REMARK INTER + INTRA:         -11.731
REMARK INTER:                 -10.429
REMARK INTRA:                  -1.302
REMARK UNBOUND:                -1.050
REMARK  Name = 14749097
REMARK  9 active torsions:
REMARK  status: ('A' for Active; 'I' for Inactive)
REMARK    1  A    between atoms: O_2  and  C_14
REMARK    2  A    between atoms: O_2  and  C_16
REMARK    3  A    between atoms: O_3  and  C_11
REMARK    4  A    between atoms: O_4  and  C_12
REMARK    5  A    between atoms: O_5  and  C_13
REMARK    6  A    between atoms: O_8  and  C_22
REMARK    7  A    between atoms: O_9  and  C_27
REMARK    8  A    between atoms: O_10  and  C_30
REMARK    9  A    between atoms: C_17  and  C_21
REMARK                            x       y       z     vdW  Elec       q    Type
REMARK                         _______ _______ _______ _____ _____    ______ ____
ROOT
ATOM      1  O   UNL     1      81.360  22.440  37.552  0.00  0.00    +0.000 OA
ATOM      2  O   UNL     1      79.727  25.562  39.600  0.00  0.00    +0.000 OA
ATOM      3  C   UNL     1      80.631  24.745  37.569  0.00  0.00    +0.000 A 
ATOM      4  C   UNL     1      81.170  23.675  36.955  0.00  0.00    +0.000 A 
ATOM      5  C   UNL     1      80.220  24.623  38.989  0.00  0.00    +0.000 A 
ATOM      6  C   UNL     1      80.436  23.312  39.620  0.00  0.00    +0.000 A 
ATOM      7  C   UNL     1      80.998  22.285  38.865  0.00  0.00    +0.000 A 
ATOM      8  C   UNL     1      80.086  23.097  40.956  0.00  0.00    +0.000 A 
ATOM      9  C   UNL     1      81.210  21.032  39.441  0.00  0.00    +0.000 A 
ATOM     10  C   UNL     1      80.301  21.842  41.529  0.00  0.00    +0.000 A 
ATOM     11  C   UNL     1      80.861  20.813  40.774  0.00  0.00    +0.000 A 
ENDROOT
BRANCH   4  12
ATOM     12  C   UNL     1      81.599  23.705  35.545  0.00  0.00    +0.000 A 
ATOM     13  C   UNL     1      82.760  24.390  35.183  0.00  0.00    +0.000 A 
ATOM     14  C   UNL     1      80.845  23.048  34.573  0.00  0.00    +0.000 A 
ATOM     15  C   UNL     1      83.165  24.417  33.849  0.00  0.00    +0.000 A 
ATOM     16  C   UNL     1      81.251  23.075  33.239  0.00  0.00    +0.000 A 
ATOM     17  C   UNL     1      82.411  23.759  32.877  0.00  0.00    +0.000 A 
BRANCH  17  18
ATOM     18  O   UNL     1      82.808  23.786  31.575  0.00  0.00    +0.000 OA
ATOM     19  H   UNL     1      82.860  24.711  31.280  0.00  0.00    +0.000 HD
ENDBRANCH  17  18
ENDBRANCH   4  12
BRANCH   8  20
ATOM     20  O   UNL     1      79.534  24.067  41.737  0.00  0.00    +0.000 OA
ATOM     21  H   UNL     1      79.089  24.731  41.189  0.00  0.00    +0.000 HD
ENDBRANCH   8  20
BRANCH  11  22
ATOM     22  O   UNL     1      81.070  19.591  41.339  0.00  0.00    +0.000 OA
ATOM     23  H   UNL     1      80.879  18.902  40.679  0.00  0.00    +0.000 HD
ENDBRANCH  11  22
BRANCH   3  24
ATOM     24  O   UNL     1      80.425  25.952  36.936  0.00  0.00    +0.000 OA
BRANCH  24  29
ATOM     25  O   UNL     1      78.945  25.788  35.097  0.00  0.00    +0.000 OA
ATOM     26  C   UNL     1      79.290  28.526  35.915  0.00  0.00    +0.000 C 
ATOM     27  C   UNL     1      78.561  27.498  36.782  0.00  0.00    +0.000 C 
ATOM     28  C   UNL     1      79.216  28.125  34.441  0.00  0.00    +0.000 C 
ATOM     29  C   UNL     1      79.076  26.086  36.489  0.00  0.00    +0.000 C 
ATOM     30  C   UNL     1      79.674  26.683  34.249  0.00  0.00    +0.000 C 
BRANCH  26  31
ATOM     31  O   UNL     1      78.708  29.817  36.075  0.00  0.00    +0.000 OA
ATOM     32  H   UNL     1      77.768  29.742  35.838  0.00  0.00    +0.000 HD
ENDBRANCH  26  31
BRANCH  27  33
ATOM     33  O   UNL     1      78.750  27.784  38.163  0.00  0.00    +0.000 OA
ATOM     34  H   UNL     1      78.726  26.941  38.647  0.00  0.00    +0.000 HD
ENDBRANCH  27  33
BRANCH  28  35
ATOM     35  O   UNL     1      77.863  28.235  33.992  0.00  0.00    +0.000 OA
ATOM     36  H   UNL     1      77.641  27.408  33.530  0.00  0.00    +0.000 HD
ENDBRANCH  28  35
ENDBRANCH  24  29
ENDBRANCH   3  24
TORSDOF 9
ENDMDL
MODEL 5
REMARK VINA RESULT:    -7.902      1.565      2.125
REMARK INTER + INTRA:         -11.723
REMARK INTER:                 -10.683
REMARK INTRA:                  -1.040
REMARK UNBOUND:                -1.050
REMARK  Name = 14749097
REMARK  9 active torsions:
REMARK  status: ('A' for Active; 'I' for Inactive)
REMARK    1  A    between atoms: O_2  and  C_14
REMARK    2  A    between atoms: O_2  and  C_16
REMARK    3  A    between atoms: O_3  and  C_11
REMARK    4  A    between atoms: O_4  and  C_12
REMARK    5  A    between atoms: O_5  and  C_13
REMARK    6  A    between atoms: O_8  and  C_22
REMARK    7  A    between atoms: O_9  and  C_27
REMARK    8  A    between atoms: O_10  and  C_30
REMARK    9  A    between atoms: C_17  and  C_21
REMARK                            x       y       z     vdW  Elec       q    Type
REMARK                         _______ _______ _______ _____ _____    ______ ____
ROOT
ATOM      1  O   UNL     1      91.324  14.528  38.508  0.00  0.00    +0.000 OA
ATOM      2  O   UNL     1      88.557  11.602  37.883  0.00  0.00    +0.000 OA
ATOM      3  C   UNL     1      89.691  12.998  39.424  0.00  0.00    +0.000 A 
ATOM      4  C   UNL     1      90.622  13.960  39.559  0.00  0.00    +0.000 A 
ATOM      5  C   UNL     1      89.391  12.478  38.068  0.00  0.00    +0.000 A 
ATOM      6  C   UNL     1      90.149  13.076  36.958  0.00  0.00    +0.000 A 
ATOM      7  C   UNL     1      91.080  14.073  37.238  0.00  0.00    +0.000 A 
ATOM      8  C   UNL     1      89.943  12.653  35.642  0.00  0.00    +0.000 A 
ATOM      9  C   UNL     1      91.810  14.657  36.202  0.00  0.00    +0.000 A 
ATOM     10  C   UNL     1      90.675  13.239  34.608  0.00  0.00    +0.000 A 
ATOM     11  C   UNL     1      91.606  14.238  34.887  0.00  0.00    +0.000 A 
ENDROOT
BRANCH   4  12
ATOM     12  C   UNL     1      90.977  14.539  40.868  0.00  0.00    +0.000 A 
ATOM     13  C   UNL     1      91.954  13.931  41.658  0.00  0.00    +0.000 A 
ATOM     14  C   UNL     1      90.338  15.694  41.316  0.00  0.00    +0.000 A 
ATOM     15  C   UNL     1      92.290  14.479  42.895  0.00  0.00    +0.000 A 
ATOM     16  C   UNL     1      90.674  16.243  42.554  0.00  0.00    +0.000 A 
ATOM     17  C   UNL     1      91.651  15.635  43.343  0.00  0.00    +0.000 A 
BRANCH  17  18
ATOM     18  O   UNL     1      91.980  16.169  44.551  0.00  0.00    +0.000 OA
ATOM     19  H   UNL     1      92.626  15.588  44.988  0.00  0.00    +0.000 HD
ENDBRANCH  17  18
ENDBRANCH   4  12
BRANCH   8  20
ATOM     20  O   UNL     1      89.044  11.682  35.314  0.00  0.00    +0.000 OA
ATOM     21  H   UNL     1      89.196  10.886  35.846  0.00  0.00    +0.000 HD
ENDBRANCH   8  20
BRANCH  11  22
ATOM     22  O   UNL     1      92.319  14.805  33.875  0.00  0.00    +0.000 OA
ATOM     23  H   UNL     1      91.773  14.810  33.069  0.00  0.00    +0.000 HD
ENDBRANCH  11  22
BRANCH   3  24
ATOM     24  O   UNL     1      88.986  12.477  40.487  0.00  0.00    +0.000 OA
BRANCH  24  29
ATOM     25  O   UNL     1      87.815  14.035  41.829  0.00  0.00    +0.000 OA
ATOM     26  C   UNL     1      86.744  11.381  42.139  0.00  0.00    +0.000 C 
ATOM     27  C   UNL     1      86.603  12.174  40.838  0.00  0.00    +0.000 C 
ATOM     28  C   UNL     1      86.905  12.332  43.326  0.00  0.00    +0.000 C 
ATOM     29  C   UNL     1      87.755  13.172  40.691  0.00  0.00    +0.000 C 
ATOM     30  C   UNL     1      88.020  13.340  43.064  0.00  0.00    +0.000 C 
BRANCH  26  31
ATOM     31  O   UNL     1      85.597  10.564  42.352  0.00  0.00    +0.000 OA
ATOM     32  H   UNL     1      85.025  10.657  41.571  0.00  0.00    +0.000 HD
ENDBRANCH  26  31
BRANCH  27  33
ATOM     33  O   UNL     1      86.602  11.298  39.717  0.00  0.00    +0.000 OA
ATOM     34  H   UNL     1      85.801  11.483  39.197  0.00  0.00    +0.000 HD
ENDBRANCH  27  33
BRANCH  28  35
ATOM     35  O   UNL     1      85.683  13.050  43.522  0.00  0.00    +0.000 OA
ATOM     36  H   UNL     1      85.156  12.555  44.173  0.00  0.00    +0.000 HD
ENDBRANCH  28  35
ENDBRANCH  24  29
ENDBRANCH   3  24
TORSDOF 9
ENDMDL
MODEL 6
REMARK VINA RESULT:    -7.850      1.507      2.001
REMARK INTER + INTRA:         -11.653
REMARK INTER:                 -10.591
REMARK INTRA:                  -1.062
REMARK UNBOUND:                -1.050
REMARK  Name = 14749097
REMARK  9 active torsions:
REMARK  status: ('A' for Active; 'I' for Inactive)
REMARK    1  A    between atoms: O_2  and  C_14
REMARK    2  A    between atoms: O_2  and  C_16
REMARK    3  A    between atoms: O_3  and  C_11
REMARK    4  A    between atoms: O_4  and  C_12
REMARK    5  A    between atoms: O_5  and  C_13
REMARK    6  A    between atoms: O_8  and  C_22
REMARK    7  A    between atoms: O_9  and  C_27
REMARK    8  A    between atoms: O_10  and  C_30
REMARK    9  A    between atoms: C_17  and  C_21
REMARK                            x       y       z     vdW  Elec       q    Type
REMARK                         _______ _______ _______ _____ _____    ______ ____
ROOT
ATOM      1  O   UNL     1      92.953  13.765  38.793  0.00  0.00    +0.000 OA
ATOM      2  O   UNL     1      89.016  13.924  39.833  0.00  0.00    +0.000 OA
ATOM      3  C   UNL     1      91.276  13.832  40.533  0.00  0.00    +0.000 A 
ATOM      4  C   UNL     1      92.556  13.773  40.120  0.00  0.00    +0.000 A 
ATOM      5  C   UNL     1      90.197  13.873  39.517  0.00  0.00    +0.000 A 
ATOM      6  C   UNL     1      90.625  13.851  38.110  0.00  0.00    +0.000 A 
ATOM      7  C   UNL     1      91.987  13.797  37.820  0.00  0.00    +0.000 A 
ATOM      8  C   UNL     1      89.685  13.882  37.077  0.00  0.00    +0.000 A 
ATOM      9  C   UNL     1      92.418  13.777  36.494  0.00  0.00    +0.000 A 
ATOM     10  C   UNL     1      90.119  13.862  35.750  0.00  0.00    +0.000 A 
ATOM     11  C   UNL     1      91.482  13.810  35.460  0.00  0.00    +0.000 A 
ENDROOT
BRANCH   4  12
ATOM     12  C   UNL     1      93.690  13.736  41.060  0.00  0.00    +0.000 A 
ATOM     13  C   UNL     1      93.746  12.754  42.049  0.00  0.00    +0.000 A 
ATOM     14  C   UNL     1      94.709  14.684  40.960  0.00  0.00    +0.000 A 
ATOM     15  C   UNL     1      94.820  12.719  42.938  0.00  0.00    +0.000 A 
ATOM     16  C   UNL     1      95.783  14.650  41.850  0.00  0.00    +0.000 A 
ATOM     17  C   UNL     1      95.839  13.667  42.838  0.00  0.00    +0.000 A 
BRANCH  17  18
ATOM     18  O   UNL     1      96.887  13.632  43.706  0.00  0.00    +0.000 OA
ATOM     19  H   UNL     1      96.544  13.626  44.616  0.00  0.00    +0.000 HD
ENDBRANCH  17  18
ENDBRANCH   4  12
BRANCH   8  20
ATOM     20  O   UNL     1      88.342  13.935  37.306  0.00  0.00    +0.000 OA
ATOM     21  H   UNL     1      88.100  14.783  37.708  0.00  0.00    +0.000 HD
ENDBRANCH   8  20
BRANCH  11  22
ATOM     22  O   UNL     1      91.900  13.789  34.164  0.00  0.00    +0.000 OA
ATOM     23  H   UNL     1      91.428  14.481  33.669  0.00  0.00    +0.000 HD
ENDBRANCH  11  22
BRANCH   3  24
ATOM     24  O   UNL     1      90.916  13.872  41.863  0.00  0.00    +0.000 OA
BRANCH  24  29
ATOM     25  O   UNL     1      91.827  15.679  43.089  0.00  0.00    +0.000 OA
ATOM     26  C   UNL     1      89.548  14.548  44.438  0.00  0.00    +0.000 C 
ATOM     27  C   UNL     1      89.422  15.315  43.119  0.00  0.00    +0.000 C 
ATOM     28  C   UNL     1      90.796  15.001  45.198  0.00  0.00    +0.000 C 
ATOM     29  C   UNL     1      90.721  15.213  42.313  0.00  0.00    +0.000 C 
ATOM     30  C   UNL     1      92.028  14.940  44.300  0.00  0.00    +0.000 C 
BRANCH  26  31
ATOM     31  O   UNL     1      88.402  14.769  45.254  0.00  0.00    +0.000 OA
ATOM     32  H   UNL     1      87.798  14.019  45.116  0.00  0.00    +0.000 HD
ENDBRANCH  26  31
BRANCH  27  33
ATOM     33  O   UNL     1      88.350  14.798  42.340  0.00  0.00    +0.000 OA
ATOM     34  H   UNL     1      88.447  13.831  42.306  0.00  0.00    +0.000 HD
ENDBRANCH  27  33
BRANCH  28  35
ATOM     35  O   UNL     1      90.617  16.352  45.632  0.00  0.00    +0.000 OA
ATOM     36  H   UNL     1      90.623  16.349  46.605  0.00  0.00    +0.000 HD
ENDBRANCH  28  35
ENDBRANCH  24  29
ENDBRANCH   3  24
TORSDOF 9
ENDMDL
MODEL 7
REMARK VINA RESULT:    -7.748      9.935     12.726
REMARK INTER + INTRA:         -11.515
REMARK INTER:                 -10.640
REMARK INTRA:                  -0.876
REMARK UNBOUND:                -1.050
REMARK  Name = 14749097
REMARK  9 active torsions:
REMARK  status: ('A' for Active; 'I' for Inactive)
REMARK    1  A    between atoms: O_2  and  C_14
REMARK    2  A    between atoms: O_2  and  C_16
REMARK    3  A    between atoms: O_3  and  C_11
REMARK    4  A    between atoms: O_4  and  C_12
REMARK    5  A    between atoms: O_5  and  C_13
REMARK    6  A    between atoms: O_8  and  C_22
REMARK    7  A    between atoms: O_9  and  C_27
REMARK    8  A    between atoms: O_10  and  C_30
REMARK    9  A    between atoms: C_17  and  C_21
REMARK                            x       y       z     vdW  Elec       q    Type
REMARK                         _______ _______ _______ _____ _____    ______ ____
ROOT
ATOM      1  O   UNL     1      84.151  14.542  28.798  0.00  0.00    +0.000 OA
ATOM      2  O   UNL     1      80.856  13.618  31.011  0.00  0.00    +0.000 OA
ATOM      3  C   UNL     1      83.083  13.086  30.407  0.00  0.00    +0.000 A 
ATOM      4  C   UNL     1      84.133  13.444  29.644  0.00  0.00    +0.000 A 
ATOM      5  C   UNL     1      81.843  13.896  30.343  0.00  0.00    +0.000 A 
ATOM      6  C   UNL     1      81.865  15.052  29.433  0.00  0.00    +0.000 A 
ATOM      7  C   UNL     1      83.023  15.315  28.705  0.00  0.00    +0.000 A 
ATOM      8  C   UNL     1      80.744  15.876  29.299  0.00  0.00    +0.000 A 
ATOM      9  C   UNL     1      83.070  16.407  27.838  0.00  0.00    +0.000 A 
ATOM     10  C   UNL     1      80.793  16.968  28.430  0.00  0.00    +0.000 A 
ATOM     11  C   UNL     1      81.953  17.232  27.701  0.00  0.00    +0.000 A 
ENDROOT
BRANCH   4  12
ATOM     12  C   UNL     1      85.406  12.702  29.651  0.00  0.00    +0.000 A 
ATOM     13  C   UNL     1      86.337  12.922  30.666  0.00  0.00    +0.000 A 
ATOM     14  C   UNL     1      85.680  11.778  28.642  0.00  0.00    +0.000 A 
ATOM     15  C   UNL     1      87.541  12.219  30.672  0.00  0.00    +0.000 A 
ATOM     16  C   UNL     1      86.885  11.074  28.648  0.00  0.00    +0.000 A 
ATOM     17  C   UNL     1      87.815  11.294  29.663  0.00  0.00    +0.000 A 
BRANCH  17  18
ATOM     18  O   UNL     1      88.990  10.608  29.671  0.00  0.00    +0.000 OA
ATOM     19  H   UNL     1      88.905   9.841  30.262  0.00  0.00    +0.000 HD
ENDBRANCH  17  18
ENDBRANCH   4  12
BRANCH   8  20
ATOM     20  O   UNL     1      79.588  15.663  29.987  0.00  0.00    +0.000 OA
ATOM     21  H   UNL     1      79.508  16.294  30.719  0.00  0.00    +0.000 HD
ENDBRANCH   8  20
BRANCH  11  22
ATOM     22  O   UNL     1      81.995  18.297  26.854  0.00  0.00    +0.000 OA
ATOM     23  H   UNL     1      82.918  18.591  26.762  0.00  0.00    +0.000 HD
ENDBRANCH  11  22
BRANCH   3  24
ATOM     24  O   UNL     1      83.109  12.007  31.264  0.00  0.00    +0.000 OA
BRANCH  24  29
ATOM     25  O   UNL     1      84.062  12.581  33.352  0.00  0.00    +0.000 OA
ATOM     26  C   UNL     1      82.702  10.048  33.489  0.00  0.00    +0.000 C 
ATOM     27  C   UNL     1      81.954  11.370  33.301  0.00  0.00    +0.000 C 
ATOM     28  C   UNL     1      84.037  10.289  34.196  0.00  0.00    +0.000 C 
ATOM     29  C   UNL     1      82.853  12.401  32.612  0.00  0.00    +0.000 C 
ATOM     30  C   UNL     1      84.833  11.382  33.490  0.00  0.00    +0.000 C 
BRANCH  26  31
ATOM     31  O   UNL     1      81.924   9.141  34.265  0.00  0.00    +0.000 OA
ATOM     32  H   UNL     1      82.496   8.802  34.975  0.00  0.00    +0.000 HD
ENDBRANCH  26  31
BRANCH  27  33
ATOM     33  O   UNL     1      80.784  11.175  32.516  0.00  0.00    +0.000 OA
ATOM     34  H   UNL     1      80.897  10.351  32.013  0.00  0.00    +0.000 HD
ENDBRANCH  27  33
BRANCH  28  35
ATOM     35  O   UNL     1      83.788  10.707  35.541  0.00  0.00    +0.000 OA
ATOM     36  H   UNL     1      83.930  11.668  35.579  0.00  0.00    +0.000 HD
ENDBRANCH  28  35
ENDBRANCH  24  29
ENDBRANCH   3  24
TORSDOF 9
ENDMDL
MODEL 8
REMARK VINA RESULT:    -7.606      2.607      6.300
REMARK INTER + INTRA:         -11.324
REMARK INTER:                 -10.274
REMARK INTRA:                  -1.050
REMARK UNBOUND:                -1.050
REMARK  Name = 14749097
REMARK  9 active torsions:
REMARK  status: ('A' for Active; 'I' for Inactive)
REMARK    1  A    between atoms: O_2  and  C_14
REMARK    2  A    between atoms: O_2  and  C_16
REMARK    3  A    between atoms: O_3  and  C_11
REMARK    4  A    between atoms: O_4  and  C_12
REMARK    5  A    between atoms: O_5  and  C_13
REMARK    6  A    between atoms: O_8  and  C_22
REMARK    7  A    between atoms: O_9  and  C_27
REMARK    8  A    between atoms: O_10  and  C_30
REMARK    9  A    between atoms: C_17  and  C_21
REMARK                            x       y       z     vdW  Elec       q    Type
REMARK                         _______ _______ _______ _____ _____    ______ ____
ROOT
ATOM      1  O   UNL     1      94.375  12.245  39.928  0.00  0.00    +0.000 OA
ATOM      2  O   UNL     1      95.121  14.670  43.117  0.00  0.00    +0.000 OA
ATOM      3  C   UNL     1      93.617  13.992  41.418  0.00  0.00    +0.000 A 
ATOM      4  C   UNL     1      93.439  13.167  40.369  0.00  0.00    +0.000 A 
ATOM      5  C   UNL     1      94.901  13.943  42.157  0.00  0.00    +0.000 A 
ATOM      6  C   UNL     1      95.894  12.971  41.676  0.00  0.00    +0.000 A 
ATOM      7  C   UNL     1      95.578  12.169  40.581  0.00  0.00    +0.000 A 
ATOM      8  C   UNL     1      97.137  12.850  42.303  0.00  0.00    +0.000 A 
ATOM      9  C   UNL     1      96.502  11.239  40.107  0.00  0.00    +0.000 A 
ATOM     10  C   UNL     1      98.061  11.918  41.826  0.00  0.00    +0.000 A 
ATOM     11  C   UNL     1      97.744  11.114  40.731  0.00  0.00    +0.000 A 
ENDROOT
BRANCH   4  12
ATOM     12  C   UNL     1      92.193  13.143  39.583  0.00  0.00    +0.000 A 
ATOM     13  C   UNL     1      91.139  12.314  39.969  0.00  0.00    +0.000 A 
ATOM     14  C   UNL     1      92.066  13.951  38.453  0.00  0.00    +0.000 A 
ATOM     15  C   UNL     1      89.960  12.292  39.225  0.00  0.00    +0.000 A 
ATOM     16  C   UNL     1      90.886  13.929  37.708  0.00  0.00    +0.000 A 
ATOM     17  C   UNL     1      89.833  13.100  38.095  0.00  0.00    +0.000 A 
BRANCH  17  18
ATOM     18  O   UNL     1      88.682  13.079  37.370  0.00  0.00    +0.000 OA
ATOM     19  H   UNL     1      88.107  12.372  37.710  0.00  0.00    +0.000 HD
ENDBRANCH  17  18
ENDBRANCH   4  12
BRANCH   8  20
ATOM     20  O   UNL     1      97.497  13.608  43.376  0.00  0.00    +0.000 OA
ATOM     21  H   UNL     1      97.674  13.046  44.145  0.00  0.00    +0.000 HD
ENDBRANCH   8  20
BRANCH  11  22
ATOM     22  O   UNL     1      98.649  10.208  40.269  0.00  0.00    +0.000 OA
ATOM     23  H   UNL     1      98.176   9.511  39.780  0.00  0.00    +0.000 HD
ENDBRANCH  11  22
BRANCH   3  24
ATOM     24  O   UNL     1      92.652  14.875  41.852  0.00  0.00    +0.000 OA
BRANCH  24  29
ATOM     25  O   UNL     1      90.902  13.850  43.071  0.00  0.00    +0.000 OA
ATOM     26  C   UNL     1      90.947  16.696  43.507  0.00  0.00    +0.000 C 
ATOM     27  C   UNL     1      92.049  15.770  44.026  0.00  0.00    +0.000 C 
ATOM     28  C   UNL     1      89.637  15.923  43.344  0.00  0.00    +0.000 C 
ATOM     29  C   UNL     1      92.161  14.522  43.146  0.00  0.00    +0.000 C 
ATOM     30  C   UNL     1      89.855  14.657  42.520  0.00  0.00    +0.000 C 
BRANCH  26  31
ATOM     31  O   UNL     1      90.738  17.778  44.409  0.00  0.00    +0.000 OA
ATOM     32  H   UNL     1      91.609  18.164  44.606  0.00  0.00    +0.000 HD
ENDBRANCH  26  31
BRANCH  27  33
ATOM     33  O   UNL     1      93.303  16.443  44.040  0.00  0.00    +0.000 OA
ATOM     34  H   UNL     1      93.826  16.111  43.291  0.00  0.00    +0.000 HD
ENDBRANCH  27  33
BRANCH  28  35
ATOM     35  O   UNL     1      89.151  15.545  44.635  0.00  0.00    +0.000 OA
ATOM     36  H   UNL     1      88.191  15.411  44.558  0.00  0.00    +0.000 HD
ENDBRANCH  28  35
ENDBRANCH  24  29
ENDBRANCH   3  24
TORSDOF 9
ENDMDL
MODEL 9
REMARK VINA RESULT:    -7.600     14.588     16.973
REMARK INTER + INTRA:         -11.315
REMARK INTER:                 -10.122
REMARK INTRA:                  -1.193
REMARK UNBOUND:                -1.050
REMARK  Name = 14749097
REMARK  9 active torsions:
REMARK  status: ('A' for Active; 'I' for Inactive)
REMARK    1  A    between atoms: O_2  and  C_14
REMARK    2  A    between atoms: O_2  and  C_16
REMARK    3  A    between atoms: O_3  and  C_11
REMARK    4  A    between atoms: O_4  and  C_12
REMARK    5  A    between atoms: O_5  and  C_13
REMARK    6  A    between atoms: O_8  and  C_22
REMARK    7  A    between atoms: O_9  and  C_27
REMARK    8  A    between atoms: O_10  and  C_30
REMARK    9  A    between atoms: C_17  and  C_21
REMARK                            x       y       z     vdW  Elec       q    Type
REMARK                         _______ _______ _______ _____ _____    ______ ____
ROOT
ATOM      1  O   UNL     1      81.869  20.877  30.821  0.00  0.00    +0.000 OA
ATOM      2  O   UNL     1      78.074  21.209  29.373  0.00  0.00    +0.000 OA
ATOM      3  C   UNL     1      79.722  21.986  30.887  0.00  0.00    +0.000 A 
ATOM      4  C   UNL     1      80.984  21.817  31.322  0.00  0.00    +0.000 A 
ATOM      5  C   UNL     1      79.213  21.104  29.809  0.00  0.00    +0.000 A 
ATOM      6  C   UNL     1      80.154  20.099  29.290  0.00  0.00    +0.000 A 
ATOM      7  C   UNL     1      81.438  20.038  29.826  0.00  0.00    +0.000 A 
ATOM      8  C   UNL     1      79.770  19.218  28.276  0.00  0.00    +0.000 A 
ATOM      9  C   UNL     1      82.349  19.095  29.349  0.00  0.00    +0.000 A 
ATOM     10  C   UNL     1      80.683  18.275  27.800  0.00  0.00    +0.000 A 
ATOM     11  C   UNL     1      81.969  18.214  28.336  0.00  0.00    +0.000 A 
ENDROOT
BRANCH   4  12
ATOM     12  C   UNL     1      81.573  22.653  32.384  0.00  0.00    +0.000 A 
ATOM     13  C   UNL     1      80.994  22.681  33.653  0.00  0.00    +0.000 A 
ATOM     14  C   UNL     1      82.711  23.416  32.120  0.00  0.00    +0.000 A 
ATOM     15  C   UNL     1      81.552  23.471  34.657  0.00  0.00    +0.000 A 
ATOM     16  C   UNL     1      83.269  24.207  33.124  0.00  0.00    +0.000 A 
ATOM     17  C   UNL     1      82.690  24.234  34.393  0.00  0.00    +0.000 A 
BRANCH  17  18
ATOM     18  O   UNL     1      83.234  25.005  35.374  0.00  0.00    +0.000 OA
ATOM     19  H   UNL     1      83.872  24.471  35.879  0.00  0.00    +0.000 HD
ENDBRANCH  17  18
ENDBRANCH   4  12
BRANCH   8  20
ATOM     20  O   UNL     1      78.527  19.237  27.717  0.00  0.00    +0.000 OA
ATOM     21  H   UNL     1      78.587  19.390  26.762  0.00  0.00    +0.000 HD
ENDBRANCH   8  20
BRANCH  11  22
ATOM     22  O   UNL     1      82.856  17.292  27.870  0.00  0.00    +0.000 OA
ATOM     23  H   UNL     1      82.832  16.510  28.449  0.00  0.00    +0.000 HD
ENDBRANCH  11  22
BRANCH   3  24
ATOM     24  O   UNL     1      78.877  22.954  31.384  0.00  0.00    +0.000 OA
BRANCH  24  29
ATOM     25  O   UNL     1      79.656  25.140  30.921  0.00  0.00    +0.000 OA
ATOM     26  C   UNL     1      76.900  25.171  31.754  0.00  0.00    +0.000 C 
ATOM     27  C   UNL     1      77.346  24.571  30.418  0.00  0.00    +0.000 C 
ATOM     28  C   UNL     1      77.897  26.234  32.217  0.00  0.00    +0.000 C 
ATOM     29  C   UNL     1      78.793  24.078  30.508  0.00  0.00    +0.000 C 
ATOM     30  C   UNL     1      79.320  25.684  32.203  0.00  0.00    +0.000 C 
BRANCH  26  31
ATOM     31  O   UNL     1      75.612  25.767  31.628  0.00  0.00    +0.000 OA
ATOM     32  H   UNL     1      75.076  25.460  32.380  0.00  0.00    +0.000 HD
ENDBRANCH  26  31
BRANCH  27  33
ATOM     33  O   UNL     1      76.506  23.482  30.055  0.00  0.00    +0.000 OA
ATOM     34  H   UNL     1      75.850  23.812  29.417  0.00  0.00    +0.000 HD
ENDBRANCH  27  33
BRANCH  28  35
ATOM     35  O   UNL     1      77.836  27.354  31.330  0.00  0.00    +0.000 OA
ATOM     36  H   UNL     1      77.544  27.024  30.463  0.00  0.00    +0.000 HD
ENDBRANCH  28  35
ENDBRANCH  24  29
ENDBRANCH   3  24
TORSDOF 9
ENDMDL
MODEL 10
REMARK VINA RESULT:    -7.594      2.248      5.957
REMARK INTER + INTRA:         -11.307
REMARK INTER:                 -10.450
REMARK INTRA:                  -0.857
REMARK UNBOUND:                -1.050
REMARK  Name = 14749097
REMARK  9 active torsions:
REMARK  status: ('A' for Active; 'I' for Inactive)
REMARK    1  A    between atoms: O_2  and  C_14
REMARK    2  A    between atoms: O_2  and  C_16
REMARK    3  A    between atoms: O_3  and  C_11
REMARK    4  A    between atoms: O_4  and  C_12
REMARK    5  A    between atoms: O_5  and  C_13
REMARK    6  A    between atoms: O_8  and  C_22
REMARK    7  A    between atoms: O_9  and  C_27
REMARK    8  A    between atoms: O_10  and  C_30
REMARK    9  A    between atoms: C_17  and  C_21
REMARK                            x       y       z     vdW  Elec       q    Type
REMARK                         _______ _______ _______ _____ _____    ______ ____
ROOT
ATOM      1  O   UNL     1      94.972  13.506  39.348  0.00  0.00    +0.000 OA
ATOM      2  O   UNL     1      93.498  13.637  43.145  0.00  0.00    +0.000 OA
ATOM      3  C   UNL     1      93.056  13.497  40.823  0.00  0.00    +0.000 A 
ATOM      4  C   UNL     1      93.609  13.465  39.596  0.00  0.00    +0.000 A 
ATOM      5  C   UNL     1      93.943  13.602  42.006  0.00  0.00    +0.000 A 
ATOM      6  C   UNL     1      95.388  13.658  41.734  0.00  0.00    +0.000 A 
ATOM      7  C   UNL     1      95.828  13.608  40.414  0.00  0.00    +0.000 A 
ATOM      8  C   UNL     1      96.308  13.761  42.782  0.00  0.00    +0.000 A 
ATOM      9  C   UNL     1      97.193  13.657  40.131  0.00  0.00    +0.000 A 
ATOM     10  C   UNL     1      97.673  13.811  42.496  0.00  0.00    +0.000 A 
ATOM     11  C   UNL     1      98.115  13.759  41.174  0.00  0.00    +0.000 A 
ENDROOT
BRANCH   4  12
ATOM     12  C   UNL     1      92.804  13.355  38.367  0.00  0.00    +0.000 A 
ATOM     13  C   UNL     1      92.522  14.494  37.612  0.00  0.00    +0.000 A 
ATOM     14  C   UNL     1      92.323  12.111  37.958  0.00  0.00    +0.000 A 
ATOM     15  C   UNL     1      91.761  14.389  36.449  0.00  0.00    +0.000 A 
ATOM     16  C   UNL     1      91.560  12.006  36.794  0.00  0.00    +0.000 A 
ATOM     17  C   UNL     1      91.280  13.145  36.039  0.00  0.00    +0.000 A 
BRANCH  17  18
ATOM     18  O   UNL     1      90.537  13.044  34.904  0.00  0.00    +0.000 OA
ATOM     19  H   UNL     1      89.892  13.772  34.882  0.00  0.00    +0.000 HD
ENDBRANCH  17  18
ENDBRANCH   4  12
BRANCH   8  20
ATOM     20  O   UNL     1      95.930  13.813  44.090  0.00  0.00    +0.000 OA
ATOM     21  H   UNL     1      96.458  13.197  44.620  0.00  0.00    +0.000 HD
ENDBRANCH   8  20
BRANCH  11  22
ATOM     22  O   UNL     1      99.448  13.809  40.900  0.00  0.00    +0.000 OA
ATOM     23  H   UNL     1      99.939  13.441  41.655  0.00  0.00    +0.000 HD
ENDBRANCH  11  22
BRANCH   3  24
ATOM     24  O   UNL     1      91.696  13.421  41.037  0.00  0.00    +0.000 OA
BRANCH  24  29
ATOM     25  O   UNL     1      91.212  15.478  42.100  0.00  0.00    +0.000 OA
ATOM     26  C   UNL     1      88.825  13.913  41.724  0.00  0.00    +0.000 C 
ATOM     27  C   UNL     1      89.593  14.530  40.553  0.00  0.00    +0.000 C 
ATOM     28  C   UNL     1      89.074  14.713  43.003  0.00  0.00    +0.000 C 
ATOM     29  C   UNL     1      91.073  14.698  40.911  0.00  0.00    +0.000 C 
ATOM     30  C   UNL     1      90.569  14.899  43.242  0.00  0.00    +0.000 C 
BRANCH  26  31
ATOM     31  O   UNL     1      87.427  13.898  41.451  0.00  0.00    +0.000 OA
ATOM     32  H   UNL     1      87.308  13.504  40.569  0.00  0.00    +0.000 HD
ENDBRANCH  26  31
BRANCH  27  33
ATOM     33  O   UNL     1      89.486  13.709  39.396  0.00  0.00    +0.000 OA
ATOM     34  H   UNL     1      89.286  12.805  39.691  0.00  0.00    +0.000 HD
ENDBRANCH  27  33
BRANCH  28  35
ATOM     35  O   UNL     1      88.472  16.004  42.874  0.00  0.00    +0.000 OA
ATOM     36  H   UNL     1      87.603  15.881  42.455  0.00  0.00    +0.000 HD
ENDBRANCH  28  35
ENDBRANCH  24  29
ENDBRANCH   3  24
TORSDOF 9
ENDMDL
