MODEL 1
REMARK VINA RESULT:    -6.878      0.000      0.000
REMARK INTER + INTRA:          -8.195
REMARK INTER:                  -8.090
REMARK INTRA:                  -0.105
REMARK UNBOUND:                -0.111
REMARK  Name = 7431
REMARK  4 active torsions:
REMARK  status: ('A' for Active; 'I' for Inactive)
REMARK    1  A    between atoms: O_3  and  C_12
REMARK    2  A    between atoms: O_4  and  C_13
REMARK    3  A    between atoms: C_7  and  C_12
REMARK    4  A    between atoms: C_8  and  C_13
REMARK                            x       y       z     vdW  Elec       q    Type
REMARK                         _______ _______ _______ _____ _____    ______ ____
ROOT
ATOM      1  O   UNL     1      85.282  26.438  39.459  0.00  0.00    +0.000 OA
ATOM      2  O   UNL     1      82.312  27.056  36.779  0.00  0.00    +0.000 OA
ATOM      3  C   UNL     1      84.487  27.562  39.526  0.00  0.00    +0.000 A 
ATOM      4  C   UNL     1      85.035  25.530  38.450  0.00  0.00    +0.000 A 
ATOM      5  C   UNL     1      83.488  27.834  38.678  0.00  0.00    +0.000 A 
ATOM      6  C   UNL     1      84.072  25.667  37.530  0.00  0.00    +0.000 A 
ATOM      7  C   UNL     1      83.211  26.869  37.591  0.00  0.00    +0.000 A 
ENDROOT
BRANCH   3   9
ATOM      8  O   UNL     1      84.033  28.702  41.563  0.00  0.00    +0.000 OA
ATOM      9  C   UNL     1      84.758  28.517  40.600  0.00  0.00    +0.000 C 
BRANCH   9  10
ATOM     10  O   UNL     1      85.924  29.155  40.358  0.00  0.00    +0.000 OA
ATOM     11  H   UNL     1      86.175  29.757  41.091  0.00  0.00    +0.000 HD
ENDBRANCH   9  10
ENDBRANCH   3   9
BRANCH   4  13
ATOM     12  O   UNL     1      85.472  23.202  38.246  0.00  0.00    +0.000 OA
ATOM     13  C   UNL     1      85.884  24.342  38.387  0.00  0.00    +0.000 C 
BRANCH  13  14
ATOM     14  O   UNL     1      87.180  24.702  38.509  0.00  0.00    +0.000 OA
ATOM     15  H   UNL     1      87.679  24.092  39.093  0.00  0.00    +0.000 HD
ENDBRANCH  13  14
ENDBRANCH   4  13
TORSDOF 4
ENDMDL
MODEL 2
REMARK VINA RESULT:    -6.850     10.831     13.289
REMARK INTER + INTRA:          -8.162
REMARK INTER:                  -8.067
REMARK INTRA:                  -0.095
REMARK UNBOUND:                -0.111
REMARK  Name = 7431
REMARK  4 active torsions:
REMARK  status: ('A' for Active; 'I' for Inactive)
REMARK    1  A    between atoms: O_3  and  C_12
REMARK    2  A    between atoms: O_4  and  C_13
REMARK    3  A    between atoms: C_7  and  C_12
REMARK    4  A    between atoms: C_8  and  C_13
REMARK                            x       y       z     vdW  Elec       q    Type
REMARK                         _______ _______ _______ _____ _____    ______ ____
ROOT
ATOM      1  O   UNL     1      90.078  17.331  43.961  0.00  0.00    +0.000 OA
ATOM      2  O   UNL     1      93.577  15.296  43.942  0.00  0.00    +0.000 OA
ATOM      3  C   UNL     1      90.098  15.952  43.936  0.00  0.00    +0.000 A 
ATOM      4  C   UNL     1      91.287  17.995  43.978  0.00  0.00    +0.000 A 
ATOM      5  C   UNL     1      91.214  15.212  43.929  0.00  0.00    +0.000 A 
ATOM      6  C   UNL     1      92.481  17.392  43.973  0.00  0.00    +0.000 A 
ATOM      7  C   UNL     1      92.517  15.912  43.948  0.00  0.00    +0.000 A 
ENDROOT
BRANCH   3   9
ATOM      8  O   UNL     1      88.198  14.910  44.913  0.00  0.00    +0.000 OA
ATOM      9  C   UNL     1      88.811  15.259  43.918  0.00  0.00    +0.000 C 
BRANCH   9  10
ATOM     10  O   UNL     1      88.415  15.069  42.641  0.00  0.00    +0.000 OA
ATOM     11  H   UNL     1      88.136  14.143  42.475  0.00  0.00    +0.000 HD
ENDBRANCH   9  10
ENDBRANCH   3   9
BRANCH   4  13
ATOM     12  O   UNL     1      91.191  20.166  43.014  0.00  0.00    +0.000 OA
ATOM     13  C   UNL     1      91.253  19.457  44.004  0.00  0.00    +0.000 C 
BRANCH  13  14
ATOM     14  O   UNL     1      91.302  19.891  45.282  0.00  0.00    +0.000 OA
ATOM     15  H   UNL     1      92.110  19.585  45.745  0.00  0.00    +0.000 HD
ENDBRANCH  13  14
ENDBRANCH   4  13
TORSDOF 4
ENDMDL
MODEL 3
REMARK VINA RESULT:    -6.836     10.824     12.938
REMARK INTER + INTRA:          -8.145
REMARK INTER:                  -8.050
REMARK INTRA:                  -0.095
REMARK UNBOUND:                -0.111
REMARK  Name = 7431
REMARK  4 active torsions:
REMARK  status: ('A' for Active; 'I' for Inactive)
REMARK    1  A    between atoms: O_3  and  C_12
REMARK    2  A    between atoms: O_4  and  C_13
REMARK    3  A    between atoms: C_7  and  C_12
REMARK    4  A    between atoms: C_8  and  C_13
REMARK                            x       y       z     vdW  Elec       q    Type
REMARK                         _______ _______ _______ _____ _____    ______ ____
ROOT
ATOM      1  O   UNL     1      90.097  17.304  43.951  0.00  0.00    +0.000 OA
ATOM      2  O   UNL     1      93.622  15.314  43.957  0.00  0.00    +0.000 OA
ATOM      3  C   UNL     1      91.297  17.983  43.972  0.00  0.00    +0.000 A 
ATOM      4  C   UNL     1      90.135  15.925  43.932  0.00  0.00    +0.000 A 
ATOM      5  C   UNL     1      92.499  17.395  43.975  0.00  0.00    +0.000 A 
ATOM      6  C   UNL     1      91.259  15.199  43.933  0.00  0.00    +0.000 A 
ATOM      7  C   UNL     1      92.554  15.916  43.955  0.00  0.00    +0.000 A 
ENDROOT
BRANCH   3   9
ATOM      8  O   UNL     1      91.161  20.149  43.000  0.00  0.00    +0.000 OA
ATOM      9  C   UNL     1      91.245  19.445  43.992  0.00  0.00    +0.000 C 
BRANCH   9  10
ATOM     10  O   UNL     1      91.303  19.885  45.268  0.00  0.00    +0.000 OA
ATOM     11  H   UNL     1      92.226  20.015  45.572  0.00  0.00    +0.000 HD
ENDBRANCH   9  10
ENDBRANCH   3   9
BRANCH   4  13
ATOM     12  O   UNL     1      88.241  14.865  44.903  0.00  0.00    +0.000 OA
ATOM     13  C   UNL     1      88.857  15.215  43.910  0.00  0.00    +0.000 C 
BRANCH  13  14
ATOM     14  O   UNL     1      88.471  15.011  42.632  0.00  0.00    +0.000 OA
ATOM     15  H   UNL     1      89.193  14.634  42.085  0.00  0.00    +0.000 HD
ENDBRANCH  13  14
ENDBRANCH   4  13
TORSDOF 4
ENDMDL
MODEL 4
REMARK VINA RESULT:    -6.673     16.618     19.222
REMARK INTER + INTRA:          -7.954
REMARK INTER:                  -7.849
REMARK INTRA:                  -0.105
REMARK UNBOUND:                -0.111
REMARK  Name = 7431
REMARK  4 active torsions:
REMARK  status: ('A' for Active; 'I' for Inactive)
REMARK    1  A    between atoms: O_3  and  C_12
REMARK    2  A    between atoms: O_4  and  C_13
REMARK    3  A    between atoms: C_7  and  C_12
REMARK    4  A    between atoms: C_8  and  C_13
REMARK                            x       y       z     vdW  Elec       q    Type
REMARK                         _______ _______ _______ _____ _____    ______ ____
ROOT
ATOM      1  O   UNL     1      86.012  12.120  26.848  0.00  0.00    +0.000 OA
ATOM      2  O   UNL     1      87.540   9.612  29.633  0.00  0.00    +0.000 OA
ATOM      3  C   UNL     1      85.630  12.209  28.170  0.00  0.00    +0.000 A 
ATOM      4  C   UNL     1      86.931  11.151  26.504  0.00  0.00    +0.000 A 
ATOM      5  C   UNL     1      86.091  11.417  29.145  0.00  0.00    +0.000 A 
ATOM      6  C   UNL     1      87.478  10.287  27.367  0.00  0.00    +0.000 A 
ATOM      7  C   UNL     1      87.077  10.372  28.790  0.00  0.00    +0.000 A 
ENDROOT
BRANCH   3   9
ATOM      8  O   UNL     1      84.930  14.411  28.731  0.00  0.00    +0.000 OA
ATOM      9  C   UNL     1      84.656  13.241  28.523  0.00  0.00    +0.000 C 
BRANCH   9  10
ATOM     10  O   UNL     1      83.420  12.699  28.582  0.00  0.00    +0.000 OA
ATOM     11  H   UNL     1      82.747  13.267  28.151  0.00  0.00    +0.000 HD
ENDBRANCH   9  10
ENDBRANCH   3   9
BRANCH   4  13
ATOM     12  O   UNL     1      87.494  12.027  24.367  0.00  0.00    +0.000 OA
ATOM     13  C   UNL     1      87.328  11.066  25.099  0.00  0.00    +0.000 C 
BRANCH  13  14
ATOM     14  O   UNL     1      87.480   9.771  24.746  0.00  0.00    +0.000 OA
ATOM     15  H   UNL     1      88.254   9.357  25.185  0.00  0.00    +0.000 HD
ENDBRANCH  13  14
ENDBRANCH   4  13
TORSDOF 4
ENDMDL
MODEL 5
REMARK VINA RESULT:    -6.661     11.185     13.843
REMARK INTER + INTRA:          -7.940
REMARK INTER:                  -7.844
REMARK INTRA:                  -0.096
REMARK UNBOUND:                -0.111
REMARK  Name = 7431
REMARK  4 active torsions:
REMARK  status: ('A' for Active; 'I' for Inactive)
REMARK    1  A    between atoms: O_3  and  C_12
REMARK    2  A    between atoms: O_4  and  C_13
REMARK    3  A    between atoms: C_7  and  C_12
REMARK    4  A    between atoms: C_8  and  C_13
REMARK                            x       y       z     vdW  Elec       q    Type
REMARK                         _______ _______ _______ _____ _____    ______ ____
ROOT
ATOM      1  O   UNL     1      92.550  17.081  43.925  0.00  0.00    +0.000 OA
ATOM      2  O   UNL     1      89.302  14.786  43.171  0.00  0.00    +0.000 OA
ATOM      3  C   UNL     1      92.675  15.727  43.690  0.00  0.00    +0.000 A 
ATOM      4  C   UNL     1      91.284  17.628  43.896  0.00  0.00    +0.000 A 
ATOM      5  C   UNL     1      91.649  14.906  43.434  0.00  0.00    +0.000 A 
ATOM      6  C   UNL     1      90.166  16.934  43.654  0.00  0.00    +0.000 A 
ATOM      7  C   UNL     1      90.286  15.481  43.399  0.00  0.00    +0.000 A 
ENDROOT
BRANCH   3   9
ATOM      8  O   UNL     1      94.544  14.673  44.713  0.00  0.00    +0.000 OA
ATOM      9  C   UNL     1      94.021  15.158  43.724  0.00  0.00    +0.000 C 
BRANCH   9  10
ATOM     10  O   UNL     1      94.587  15.252  42.501  0.00  0.00    +0.000 OA
ATOM     11  H   UNL     1      94.160  14.656  41.850  0.00  0.00    +0.000 HD
ENDBRANCH   9  10
ENDBRANCH   3   9
BRANCH   4  13
ATOM     12  O   UNL     1      91.074  19.914  43.277  0.00  0.00    +0.000 OA
ATOM     13  C   UNL     1      91.164  19.063  44.147  0.00  0.00    +0.000 C 
BRANCH  13  14
ATOM     14  O   UNL     1      91.167  19.295  45.478  0.00  0.00    +0.000 OA
ATOM     15  H   UNL     1      90.265  19.257  45.861  0.00  0.00    +0.000 HD
ENDBRANCH  13  14
ENDBRANCH   4  13
TORSDOF 4
ENDMDL
MODEL 6
REMARK VINA RESULT:    -6.660     16.596     19.536
REMARK INTER + INTRA:          -7.939
REMARK INTER:                  -7.834
REMARK INTRA:                  -0.105
REMARK UNBOUND:                -0.111
REMARK  Name = 7431
REMARK  4 active torsions:
REMARK  status: ('A' for Active; 'I' for Inactive)
REMARK    1  A    between atoms: O_3  and  C_12
REMARK    2  A    between atoms: O_4  and  C_13
REMARK    3  A    between atoms: C_7  and  C_12
REMARK    4  A    between atoms: C_8  and  C_13
REMARK                            x       y       z     vdW  Elec       q    Type
REMARK                         _______ _______ _______ _____ _____    ______ ____
ROOT
ATOM      1  O   UNL     1      86.008  12.149  26.840  0.00  0.00    +0.000 OA
ATOM      2  O   UNL     1      87.538   9.684  29.664  0.00  0.00    +0.000 OA
ATOM      3  C   UNL     1      86.932  11.178  26.512  0.00  0.00    +0.000 A 
ATOM      4  C   UNL     1      85.622  12.253  28.160  0.00  0.00    +0.000 A 
ATOM      5  C   UNL     1      87.481  10.329  27.389  0.00  0.00    +0.000 A 
ATOM      6  C   UNL     1      86.083  11.476  29.147  0.00  0.00    +0.000 A 
ATOM      7  C   UNL     1      87.075  10.431  28.808  0.00  0.00    +0.000 A 
ENDROOT
BRANCH   3   9
ATOM      8  O   UNL     1      87.495  12.027  24.364  0.00  0.00    +0.000 OA
ATOM      9  C   UNL     1      87.335  11.076  25.109  0.00  0.00    +0.000 C 
BRANCH   9  10
ATOM     10  O   UNL     1      87.498   9.777  24.776  0.00  0.00    +0.000 OA
ATOM     11  H   UNL     1      87.275   9.606  23.837  0.00  0.00    +0.000 HD
ENDBRANCH   9  10
ENDBRANCH   3   9
BRANCH   4  13
ATOM     12  O   UNL     1      84.915  14.453  28.719  0.00  0.00    +0.000 OA
ATOM     13  C   UNL     1      84.642  13.286  28.496  0.00  0.00    +0.000 C 
BRANCH  13  14
ATOM     14  O   UNL     1      83.404  12.748  28.519  0.00  0.00    +0.000 OA
ATOM     15  H   UNL     1      82.794  13.250  29.100  0.00  0.00    +0.000 HD
ENDBRANCH  13  14
ENDBRANCH   4  13
TORSDOF 4
ENDMDL
MODEL 7
REMARK VINA RESULT:    -6.648     11.162     13.321
REMARK INTER + INTRA:          -7.924
REMARK INTER:                  -7.828
REMARK INTRA:                  -0.096
REMARK UNBOUND:                -0.111
REMARK  Name = 7431
REMARK  4 active torsions:
REMARK  status: ('A' for Active; 'I' for Inactive)
REMARK    1  A    between atoms: O_3  and  C_12
REMARK    2  A    between atoms: O_4  and  C_13
REMARK    3  A    between atoms: C_7  and  C_12
REMARK    4  A    between atoms: C_8  and  C_13
REMARK                            x       y       z     vdW  Elec       q    Type
REMARK                         _______ _______ _______ _____ _____    ______ ____
ROOT
ATOM      1  O   UNL     1      92.524  17.066  43.923  0.00  0.00    +0.000 OA
ATOM      2  O   UNL     1      89.269  14.824  43.049  0.00  0.00    +0.000 OA
ATOM      3  C   UNL     1      91.266  17.629  43.872  0.00  0.00    +0.000 A 
ATOM      4  C   UNL     1      92.639  15.715  43.667  0.00  0.00    +0.000 A 
ATOM      5  C   UNL     1      90.146  16.953  43.590  0.00  0.00    +0.000 A 
ATOM      6  C   UNL     1      91.610  14.912  43.372  0.00  0.00    +0.000 A 
ATOM      7  C   UNL     1      90.255  15.503  43.314  0.00  0.00    +0.000 A 
ENDROOT
BRANCH   3   9
ATOM      8  O   UNL     1      91.073  19.926  43.288  0.00  0.00    +0.000 OA
ATOM      9  C   UNL     1      91.156  19.062  44.145  0.00  0.00    +0.000 C 
BRANCH   9  10
ATOM     10  O   UNL     1      91.162  19.273  45.479  0.00  0.00    +0.000 OA
ATOM     11  H   UNL     1      90.472  18.748  45.938  0.00  0.00    +0.000 HD
ENDBRANCH   9  10
ENDBRANCH   3   9
BRANCH   4  13
ATOM     12  O   UNL     1      94.473  14.631  44.721  0.00  0.00    +0.000 OA
ATOM     13  C   UNL     1      93.977  15.129  43.725  0.00  0.00    +0.000 C 
BRANCH  13  14
ATOM     14  O   UNL     1      94.568  15.225  42.514  0.00  0.00    +0.000 OA
ATOM     15  H   UNL     1      95.236  14.521  42.373  0.00  0.00    +0.000 HD
ENDBRANCH  13  14
ENDBRANCH   4  13
TORSDOF 4
ENDMDL
MODEL 8
REMARK VINA RESULT:    -6.597     11.023     12.783
REMARK INTER + INTRA:          -7.864
REMARK INTER:                  -7.751
REMARK INTRA:                  -0.113
REMARK UNBOUND:                -0.111
REMARK  Name = 7431
REMARK  4 active torsions:
REMARK  status: ('A' for Active; 'I' for Inactive)
REMARK    1  A    between atoms: O_3  and  C_12
REMARK    2  A    between atoms: O_4  and  C_13
REMARK    3  A    between atoms: C_7  and  C_12
REMARK    4  A    between atoms: C_8  and  C_13
REMARK                            x       y       z     vdW  Elec       q    Type
REMARK                         _______ _______ _______ _____ _____    ______ ____
ROOT
ATOM      1  O   UNL     1      90.495  17.183  42.828  0.00  0.00    +0.000 OA
ATOM      2  O   UNL     1      91.113  14.740  45.996  0.00  0.00    +0.000 OA
ATOM      3  C   UNL     1      90.901  17.687  44.047  0.00  0.00    +0.000 A 
ATOM      4  C   UNL     1      90.307  15.821  42.723  0.00  0.00    +0.000 A 
ATOM      5  C   UNL     1      91.125  16.943  45.136  0.00  0.00    +0.000 A 
ATOM      6  C   UNL     1      90.491  14.952  43.724  0.00  0.00    +0.000 A 
ATOM      7  C   UNL     1      90.926  15.480  45.037  0.00  0.00    +0.000 A 
ENDROOT
BRANCH   3   9
ATOM      8  O   UNL     1      91.129  19.895  43.196  0.00  0.00    +0.000 OA
ATOM      9  C   UNL     1      91.098  19.133  44.147  0.00  0.00    +0.000 C 
BRANCH   9  10
ATOM     10  O   UNL     1      91.238  19.484  45.443  0.00  0.00    +0.000 OA
ATOM     11  H   UNL     1      90.381  19.716  45.858  0.00  0.00    +0.000 HD
ENDBRANCH   9  10
ENDBRANCH   3   9
BRANCH   4  13
ATOM     12  O   UNL     1      90.497  15.431  40.386  0.00  0.00    +0.000 OA
ATOM     13  C   UNL     1      89.877  15.298  41.427  0.00  0.00    +0.000 C 
BRANCH  13  14
ATOM     14  O   UNL     1      88.698  14.652  41.565  0.00  0.00    +0.000 OA
ATOM     15  H   UNL     1      88.017  15.214  41.991  0.00  0.00    +0.000 HD
ENDBRANCH  13  14
ENDBRANCH   4  13
TORSDOF 4
ENDMDL
MODEL 9
REMARK VINA RESULT:    -6.442      1.926      4.333
REMARK INTER + INTRA:          -7.682
REMARK INTER:                  -7.570
REMARK INTRA:                  -0.112
REMARK UNBOUND:                -0.111
REMARK  Name = 7431
REMARK  4 active torsions:
REMARK  status: ('A' for Active; 'I' for Inactive)
REMARK    1  A    between atoms: O_3  and  C_12
REMARK    2  A    between atoms: O_4  and  C_13
REMARK    3  A    between atoms: C_7  and  C_12
REMARK    4  A    between atoms: C_8  and  C_13
REMARK                            x       y       z     vdW  Elec       q    Type
REMARK                         _______ _______ _______ _____ _____    ______ ____
ROOT
ATOM      1  O   UNL     1      84.253  24.267  36.893  0.00  0.00    +0.000 OA
ATOM      2  O   UNL     1      83.453  27.638  38.987  0.00  0.00    +0.000 OA
ATOM      3  C   UNL     1      85.053  24.656  37.948  0.00  0.00    +0.000 A 
ATOM      4  C   UNL     1      83.173  25.062  36.574  0.00  0.00    +0.000 A 
ATOM      5  C   UNL     1      84.851  25.755  38.685  0.00  0.00    +0.000 A 
ATOM      6  C   UNL     1      82.845  26.189  37.219  0.00  0.00    +0.000 A 
ATOM      7  C   UNL     1      83.695  26.617  38.353  0.00  0.00    +0.000 A 
ENDROOT
BRANCH   3   9
ATOM      8  O   UNL     1      86.202  22.589  38.190  0.00  0.00    +0.000 OA
ATOM      9  C   UNL     1      86.196  23.805  38.278  0.00  0.00    +0.000 C 
BRANCH   9  10
ATOM     10  O   UNL     1      87.229  24.570  38.689  0.00  0.00    +0.000 OA
ATOM     11  H   UNL     1      88.020  24.034  38.910  0.00  0.00    +0.000 HD
ENDBRANCH   9  10
ENDBRANCH   3   9
BRANCH   4  13
ATOM     12  O   UNL     1      82.022  25.353  34.514  0.00  0.00    +0.000 OA
ATOM     13  C   UNL     1      82.332  24.641  35.454  0.00  0.00    +0.000 C 
BRANCH  13  14
ATOM     14  O   UNL     1      81.958  23.354  35.624  0.00  0.00    +0.000 OA
ATOM     15  H   UNL     1      81.614  22.957  34.796  0.00  0.00    +0.000 HD
ENDBRANCH  13  14
ENDBRANCH   4  13
TORSDOF 4
ENDMDL
MODEL 10
REMARK VINA RESULT:    -6.429      1.965      4.243
REMARK INTER + INTRA:          -7.667
REMARK INTER:                  -7.556
REMARK INTRA:                  -0.111
REMARK UNBOUND:                -0.111
REMARK  Name = 7431
REMARK  4 active torsions:
REMARK  status: ('A' for Active; 'I' for Inactive)
REMARK    1  A    between atoms: O_3  and  C_12
REMARK    2  A    between atoms: O_4  and  C_13
REMARK    3  A    between atoms: C_7  and  C_12
REMARK    4  A    between atoms: C_8  and  C_13
REMARK                            x       y       z     vdW  Elec       q    Type
REMARK                         _______ _______ _______ _____ _____    ______ ____
ROOT
ATOM      1  O   UNL     1      84.252  24.281  36.846  0.00  0.00    +0.000 OA
ATOM      2  O   UNL     1      83.322  27.631  38.919  0.00  0.00    +0.000 OA
ATOM      3  C   UNL     1      83.153  25.044  36.509  0.00  0.00    +0.000 A 
ATOM      4  C   UNL     1      85.023  24.695  37.912  0.00  0.00    +0.000 A 
ATOM      5  C   UNL     1      82.784  26.162  37.146  0.00  0.00    +0.000 A 
ATOM      6  C   UNL     1      84.779  25.789  38.643  0.00  0.00    +0.000 A 
ATOM      7  C   UNL     1      83.603  26.617  38.292  0.00  0.00    +0.000 A 
ENDROOT
BRANCH   3   9
ATOM      8  O   UNL     1      82.079  25.278  34.401  0.00  0.00    +0.000 OA
ATOM      9  C   UNL     1      82.342  24.596  35.377  0.00  0.00    +0.000 C 
BRANCH   9  10
ATOM     10  O   UNL     1      81.936  23.325  35.584  0.00  0.00    +0.000 OA
ATOM     11  H   UNL     1      82.031  22.772  34.779  0.00  0.00    +0.000 HD
ENDBRANCH   9  10
ENDBRANCH   3   9
BRANCH   4  13
ATOM     12  O   UNL     1      86.215  22.660  38.215  0.00  0.00    +0.000 OA
ATOM     13  C   UNL     1      86.186  23.879  38.261  0.00  0.00    +0.000 C 
BRANCH  13  14
ATOM     14  O   UNL     1      87.207  24.678  38.637  0.00  0.00    +0.000 OA
ATOM     15  H   UNL     1      87.065  25.064  39.528  0.00  0.00    +0.000 HD
ENDBRANCH  13  14
ENDBRANCH   4  13
TORSDOF 4
ENDMDL
