MODEL 1
REMARK VINA RESULT:   -10.951      0.000      0.000
REMARK INTER + INTRA:         -32.291
REMARK INTER:                 -25.996
REMARK INTRA:                  -6.295
REMARK UNBOUND:                -6.295
REMARK  31 active torsions:
REMARK  status: ('A' for Active; 'I' for Inactive)
REMARK    1  A    between atoms: O_2  and  C_27 
REMARK    2  A    between atoms: O_2  and  C_33 
REMARK    3  A    between atoms: O_3  and  C_34 
REMARK    4  A    between atoms: O_3  and  C_28 
REMARK    5  A    between atoms: O_4  and  C_35 
REMARK    6  A    between atoms: O_4  and  C_29 
REMARK    7  A    between atoms: O_5  and  C_36 
REMARK    8  A    between atoms: O_5  and  C_31 
REMARK    9  A    between atoms: O_6  and  C_32 
REMARK   10  A    between atoms: O_6  and  C_39 
REMARK   11  A    between atoms: O_12  and  C_51 
REMARK   12  A    between atoms: O_13  and  C_52 
REMARK   13  A    between atoms: O_14  and  C_53 
REMARK   14  A    between atoms: O_15  and  C_54 
REMARK   15  A    between atoms: O_16  and  C_55 
REMARK   16  A    between atoms: O_17  and  C_56 
REMARK   17  A    between atoms: O_18  and  C_59 
REMARK   18  A    between atoms: O_19  and  C_60 
REMARK   19  A    between atoms: O_20  and  C_61 
REMARK   20  A    between atoms: O_21  and  C_62 
REMARK   21  A    between atoms: O_22  and  C_63 
REMARK   22  A    between atoms: O_23  and  C_64 
REMARK   23  A    between atoms: O_24  and  C_65 
REMARK   24  A    between atoms: O_25  and  C_66 
REMARK   25  A    between atoms: O_26  and  C_67 
REMARK   26  A    between atoms: C_30  and  C_32 
REMARK   27  A    between atoms: C_33  and  C_37 
REMARK   28  A    between atoms: C_34  and  C_38 
REMARK   29  A    between atoms: C_35  and  C_40 
REMARK   30  A    between atoms: C_36  and  C_41 
REMARK   31  A    between atoms: C_39  and  C_42 
ROOT
HETATM    1  O   UNL     1     109.082 146.186 162.172  1.00  0.00    -0.348 OA
HETATM    2  C   UNL     1     106.663 146.798 160.738  1.00  0.00     0.198 C 
HETATM    3  C   UNL     1     107.978 147.575 160.498  1.00  0.00     0.195 C 
HETATM    4  C   UNL     1     106.650 146.325 162.215  1.00  0.00     0.220 C 
HETATM    5  C   UNL     1     109.168 146.636 160.812  1.00  0.00     0.181 C 
HETATM    6  C   UNL     1     107.898 145.429 162.425  1.00  0.00     0.302 C 
ENDROOT
BRANCH   5   7
HETATM    7  C   UNL     1     110.514 147.341 160.578  1.00  0.00     0.213 C 
BRANCH   7   8
HETATM    8  O   UNL     1     111.101 146.954 159.324  1.00  0.00    -0.315 OA
BRANCH   8   9
HETATM    9  C   UNL     1     111.812 147.937 158.709  1.00  0.00     0.293 C 
HETATM   10  O   UNL     1     112.801 148.500 159.144  1.00  0.00    -0.259 OA
BRANCH   9  11
HETATM   11  C   UNL     1     111.210 148.243 157.393  1.00  0.00     0.045 A 
HETATM   12  C   UNL     1     111.253 149.544 156.859  1.00  0.00     0.057 A 
HETATM   13  C   UNL     1     110.731 149.770 155.589  1.00  0.00     0.102 A 
HETATM   14  C   UNL     1     110.168 148.723 154.866  1.00  0.00     0.132 A 
HETATM   15  C   UNL     1     110.125 147.442 155.402  1.00  0.00     0.102 A 
HETATM   16  C   UNL     1     110.651 147.187 156.660  1.00  0.00     0.057 A 
BRANCH  13  17
HETATM   17  O   UNL     1     110.762 151.003 155.000  1.00  0.00    -0.358 OA
HETATM   18  H   UNL     1     109.866 151.382 155.019  1.00  0.00     0.217 HD
ENDBRANCH  13  17
BRANCH  14  19
HETATM   19  O   UNL     1     109.659 148.936 153.615  1.00  0.00    -0.356 OA
HETATM   20  H   UNL     1     108.749 148.579 153.656  1.00  0.00     0.218 HD
ENDBRANCH  14  19
BRANCH  15  21
HETATM   21  O   UNL     1     109.573 146.419 154.689  1.00  0.00    -0.358 OA
HETATM   22  H   UNL     1     110.337 145.936 154.311  1.00  0.00     0.217 HD
ENDBRANCH  15  21
ENDBRANCH   9  11
ENDBRANCH   8   9
ENDBRANCH   7   8
ENDBRANCH   5   7
BRANCH   3  23
HETATM   23  O   UNL     1     108.090 148.029 159.132  1.00  0.00    -0.307 OA
BRANCH  23  24
HETATM   24  C   UNL     1     108.068 149.311 158.680  1.00  0.00     0.294 C 
HETATM   25  O   UNL     1     108.846 150.138 159.141  1.00  0.00    -0.259 OA
BRANCH  24  26
HETATM   26  C   UNL     1     107.169 149.716 157.572  1.00  0.00     0.045 A 
HETATM   27  C   UNL     1     106.969 148.924 156.431  1.00  0.00     0.057 A 
HETATM   28  C   UNL     1     106.190 149.412 155.387  1.00  0.00     0.102 A 
HETATM   29  C   UNL     1     105.536 150.631 155.514  1.00  0.00     0.132 A 
HETATM   30  C   UNL     1     105.654 151.367 156.684  1.00  0.00     0.102 A 
HETATM   31  C   UNL     1     106.462 150.919 157.721  1.00  0.00     0.057 A 
BRANCH  28  32
HETATM   32  O   UNL     1     106.054 148.736 154.208  1.00  0.00    -0.358 OA
HETATM   33  H   UNL     1     105.109 148.548 154.057  1.00  0.00     0.217 HD
ENDBRANCH  28  32
BRANCH  29  34
HETATM   34  O   UNL     1     104.771 151.119 154.491  1.00  0.00    -0.356 OA
HETATM   35  H   UNL     1     104.358 151.926 154.864  1.00  0.00     0.218 HD
ENDBRANCH  29  34
BRANCH  30  36
HETATM   36  O   UNL     1     104.987 152.549 156.817  1.00  0.00    -0.358 OA
HETATM   37  H   UNL     1     105.260 152.893 157.692  1.00  0.00     0.217 HD
ENDBRANCH  30  36
ENDBRANCH  24  26
ENDBRANCH  23  24
ENDBRANCH   3  23
BRANCH   6  38
HETATM   38  O   UNL     1     107.900 144.984 163.794  1.00  0.00    -0.283 OA
BRANCH  38  39
HETATM   39  C   UNL     1     107.702 143.728 164.258  1.00  0.00     0.295 C 
HETATM   40  O   UNL     1     107.163 142.887 163.547  1.00  0.00    -0.259 OA
BRANCH  39  41
HETATM   41  C   UNL     1     108.023 143.387 165.662  1.00  0.00     0.045 A 
HETATM   42  C   UNL     1     109.343 143.305 166.135  1.00  0.00     0.057 A 
HETATM   43  C   UNL     1     109.560 143.049 167.486  1.00  0.00     0.102 A 
HETATM   44  C   UNL     1     108.488 142.781 168.331  1.00  0.00     0.132 A 
HETATM   45  C   UNL     1     107.192 142.764 167.834  1.00  0.00     0.102 A 
HETATM   46  C   UNL     1     106.946 143.075 166.505  1.00  0.00     0.057 A 
BRANCH  43  47
HETATM   47  O   UNL     1     110.810 143.063 168.039  1.00  0.00    -0.358 OA
HETATM   48  H   UNL     1     110.949 143.913 168.494  1.00  0.00     0.217 HD
ENDBRANCH  43  47
BRANCH  44  49
HETATM   49  O   UNL     1     108.692 142.523 169.660  1.00  0.00    -0.356 OA
HETATM   50  H   UNL     1     109.087 143.345 170.014  1.00  0.00     0.218 HD
ENDBRANCH  44  49
BRANCH  45  51
HETATM   51  O   UNL     1     106.148 142.444 168.652  1.00  0.00    -0.358 OA
HETATM   52  H   UNL     1     105.620 143.264 168.722  1.00  0.00     0.217 HD
ENDBRANCH  45  51
ENDBRANCH  39  41
ENDBRANCH  38  39
ENDBRANCH   6  38
BRANCH   2  53
HETATM   53  O   UNL     1     105.483 147.534 160.319  1.00  0.00    -0.306 OA
BRANCH  53  54
HETATM   54  C   UNL     1     104.608 146.953 159.474  1.00  0.00     0.294 C 
HETATM   55  O   UNL     1     104.786 146.793 158.275  1.00  0.00    -0.259 OA
BRANCH  54  56
HETATM   56  C   UNL     1     103.368 146.577 160.182  1.00  0.00     0.045 A 
HETATM   57  C   UNL     1     102.997 145.225 160.193  1.00  0.00     0.057 A 
HETATM   58  C   UNL     1     101.878 144.819 160.906  1.00  0.00     0.102 A 
HETATM   59  C   UNL     1     101.152 145.746 161.639  1.00  0.00     0.132 A 
HETATM   60  C   UNL     1     101.526 147.086 161.637  1.00  0.00     0.102 A 
HETATM   61  C   UNL     1     102.619 147.522 160.895  1.00  0.00     0.057 A 
BRANCH  58  62
HETATM   62  O   UNL     1     101.470 143.515 160.923  1.00  0.00    -0.358 OA
HETATM   63  H   UNL     1     101.481 143.203 161.846  1.00  0.00     0.217 HD
ENDBRANCH  58  62
BRANCH  59  64
HETATM   64  O   UNL     1     100.074 145.352 162.382  1.00  0.00    -0.356 OA
HETATM   65  H   UNL     1     100.294 144.438 162.662  1.00  0.00     0.218 HD
ENDBRANCH  59  64
BRANCH  60  66
HETATM   66  O   UNL     1     100.831 147.985 162.393  1.00  0.00    -0.358 OA
HETATM   67  H   UNL     1     101.401 148.144 163.174  1.00  0.00     0.217 HD
ENDBRANCH  60  66
ENDBRANCH  54  56
ENDBRANCH  53  54
ENDBRANCH   2  53
BRANCH   4  68
HETATM   68  O   UNL     1     105.446 145.576 162.515  1.00  0.00    -0.304 OA
BRANCH  68  69
HETATM   69  C   UNL     1     104.690 145.905 163.607  1.00  0.00     0.294 C 
HETATM   70  O   UNL     1     104.530 147.063 163.957  1.00  0.00    -0.259 OA
BRANCH  69  71
HETATM   71  C   UNL     1     104.171 144.776 164.412  1.00  0.00     0.045 A 
HETATM   72  C   UNL     1     104.103 144.860 165.811  1.00  0.00     0.057 A 
HETATM   73  C   UNL     1     103.468 143.840 166.514  1.00  0.00     0.102 A 
HETATM   74  C   UNL     1     102.939 142.746 165.836  1.00  0.00     0.132 A 
HETATM   75  C   UNL     1     103.083 142.636 164.460  1.00  0.00     0.102 A 
HETATM   76  C   UNL     1     103.712 143.639 163.737  1.00  0.00     0.057 A 
BRANCH  73  77
HETATM   77  O   UNL     1     103.319 143.872 167.872  1.00  0.00    -0.358 OA
HETATM   78  H   UNL     1     102.386 144.066 168.077  1.00  0.00     0.217 HD
ENDBRANCH  73  77
BRANCH  74  79
HETATM   79  O   UNL     1     102.265 141.762 166.509  1.00  0.00    -0.356 OA
HETATM   80  H   UNL     1     101.489 142.220 166.894  1.00  0.00     0.218 HD
ENDBRANCH  74  79
BRANCH  75  81
HETATM   81  O   UNL     1     102.576 141.546 163.810  1.00  0.00    -0.358 OA
HETATM   82  H   UNL     1     103.359 140.978 163.648  1.00  0.00     0.217 HD
ENDBRANCH  75  81
ENDBRANCH  69  71
ENDBRANCH  68  69
ENDBRANCH   4  68
TORSDOF 31
ENDMDL
MODEL 2
REMARK VINA RESULT:   -10.600      1.798      7.986
REMARK INTER + INTRA:         -31.458
REMARK INTER:                 -25.288
REMARK INTRA:                  -6.171
REMARK UNBOUND:                -6.295
REMARK  31 active torsions:
REMARK  status: ('A' for Active; 'I' for Inactive)
REMARK    1  A    between atoms: O_2  and  C_27 
REMARK    2  A    between atoms: O_2  and  C_33 
REMARK    3  A    between atoms: O_3  and  C_34 
REMARK    4  A    between atoms: O_3  and  C_28 
REMARK    5  A    between atoms: O_4  and  C_35 
REMARK    6  A    between atoms: O_4  and  C_29 
REMARK    7  A    between atoms: O_5  and  C_36 
REMARK    8  A    between atoms: O_5  and  C_31 
REMARK    9  A    between atoms: O_6  and  C_32 
REMARK   10  A    between atoms: O_6  and  C_39 
REMARK   11  A    between atoms: O_12  and  C_51 
REMARK   12  A    between atoms: O_13  and  C_52 
REMARK   13  A    between atoms: O_14  and  C_53 
REMARK   14  A    between atoms: O_15  and  C_54 
REMARK   15  A    between atoms: O_16  and  C_55 
REMARK   16  A    between atoms: O_17  and  C_56 
REMARK   17  A    between atoms: O_18  and  C_59 
REMARK   18  A    between atoms: O_19  and  C_60 
REMARK   19  A    between atoms: O_20  and  C_61 
REMARK   20  A    between atoms: O_21  and  C_62 
REMARK   21  A    between atoms: O_22  and  C_63 
REMARK   22  A    between atoms: O_23  and  C_64 
REMARK   23  A    between atoms: O_24  and  C_65 
REMARK   24  A    between atoms: O_25  and  C_66 
REMARK   25  A    between atoms: O_26  and  C_67 
REMARK   26  A    between atoms: C_30  and  C_32 
REMARK   27  A    between atoms: C_33  and  C_37 
REMARK   28  A    between atoms: C_34  and  C_38 
REMARK   29  A    between atoms: C_35  and  C_40 
REMARK   30  A    between atoms: C_36  and  C_41 
REMARK   31  A    between atoms: C_39  and  C_42 
ROOT
HETATM    1  O   UNL     1     106.196 145.788 162.540  1.00  0.00    -0.348 OA
HETATM    2  C   UNL     1     106.603 146.899 159.917  1.00  0.00     0.198 C 
HETATM    3  C   UNL     1     107.737 146.833 160.965  1.00  0.00     0.195 C 
HETATM    4  C   UNL     1     105.258 147.045 160.676  1.00  0.00     0.220 C 
HETATM    5  C   UNL     1     107.472 145.631 161.902  1.00  0.00     0.181 C 
HETATM    6  C   UNL     1     105.116 145.813 161.606  1.00  0.00     0.302 C 
ENDROOT
BRANCH   5   7
HETATM    7  C   UNL     1     108.575 145.494 162.965  1.00  0.00     0.213 C 
BRANCH   7   8
HETATM    8  O   UNL     1     108.035 145.091 164.235  1.00  0.00    -0.315 OA
BRANCH   8   9
HETATM    9  C   UNL     1     107.989 143.745 164.424  1.00  0.00     0.293 C 
HETATM   10  O   UNL     1     107.796 142.897 163.570  1.00  0.00    -0.259 OA
BRANCH   9  11
HETATM   11  C   UNL     1     108.214 143.430 165.852  1.00  0.00     0.045 A 
HETATM   12  C   UNL     1     107.138 143.154 166.714  1.00  0.00     0.057 A 
HETATM   13  C   UNL     1     107.403 142.799 168.032  1.00  0.00     0.102 A 
HETATM   14  C   UNL     1     108.716 142.730 168.489  1.00  0.00     0.132 A 
HETATM   15  C   UNL     1     109.773 143.010 167.634  1.00  0.00     0.102 A 
HETATM   16  C   UNL     1     109.536 143.352 166.310  1.00  0.00     0.057 A 
BRANCH  13  17
HETATM   17  O   UNL     1     106.407 142.493 168.918  1.00  0.00    -0.358 OA
HETATM   18  H   UNL     1     106.021 143.321 169.255  1.00  0.00     0.217 HD
ENDBRANCH  13  17
BRANCH  14  19
HETATM   19  O   UNL     1     108.984 142.377 169.783  1.00  0.00    -0.356 OA
HETATM   20  H   UNL     1     108.899 143.211 170.288  1.00  0.00     0.218 HD
ENDBRANCH  14  19
BRANCH  15  21
HETATM   21  O   UNL     1     111.058 142.941 168.086  1.00  0.00    -0.358 OA
HETATM   22  H   UNL     1     111.324 142.009 167.942  1.00  0.00     0.217 HD
ENDBRANCH  15  21
ENDBRANCH   9  11
ENDBRANCH   8   9
ENDBRANCH   7   8
ENDBRANCH   5   7
BRANCH   3  23
HETATM   23  O   UNL     1     109.030 146.665 160.346  1.00  0.00    -0.307 OA
BRANCH  23  24
HETATM   24  C   UNL     1     109.878 147.639 159.917  1.00  0.00     0.294 C 
HETATM   25  O   UNL     1     110.700 148.120 160.688  1.00  0.00    -0.259 OA
BRANCH  24  26
HETATM   26  C   UNL     1     109.885 148.078 158.501  1.00  0.00     0.045 A 
HETATM   27  C   UNL     1     109.746 149.422 158.124  1.00  0.00     0.057 A 
HETATM   28  C   UNL     1     109.661 149.749 156.775  1.00  0.00     0.102 A 
HETATM   29  C   UNL     1     109.811 148.765 155.806  1.00  0.00     0.132 A 
HETATM   30  C   UNL     1     110.048 147.450 156.179  1.00  0.00     0.102 A 
HETATM   31  C   UNL     1     110.092 147.095 157.521  1.00  0.00     0.057 A 
BRANCH  28  32
HETATM   32  O   UNL     1     109.412 151.026 156.353  1.00  0.00    -0.358 OA
HETATM   33  H   UNL     1     109.172 151.573 157.124  1.00  0.00     0.217 HD
ENDBRANCH  28  32
BRANCH  29  34
HETATM   34  O   UNL     1     109.726 149.078 154.478  1.00  0.00    -0.356 OA
HETATM   35  H   UNL     1     109.462 148.238 154.049  1.00  0.00     0.218 HD
ENDBRANCH  29  34
BRANCH  30  36
HETATM   36  O   UNL     1     110.224 146.491 155.226  1.00  0.00    -0.358 OA
HETATM   37  H   UNL     1     110.671 145.755 155.691  1.00  0.00     0.217 HD
ENDBRANCH  30  36
ENDBRANCH  24  26
ENDBRANCH  23  24
ENDBRANCH   3  23
BRANCH   6  38
HETATM   38  O   UNL     1     103.872 145.937 162.319  1.00  0.00    -0.283 OA
BRANCH  38  39
HETATM   39  C   UNL     1     102.994 144.956 162.632  1.00  0.00     0.295 C 
HETATM   40  O   UNL     1     101.927 144.869 162.034  1.00  0.00    -0.259 OA
BRANCH  39  41
HETATM   41  C   UNL     1     103.255 144.050 163.774  1.00  0.00     0.045 A 
HETATM   42  C   UNL     1     104.115 142.943 163.677  1.00  0.00     0.057 A 
HETATM   43  C   UNL     1     104.364 142.182 164.816  1.00  0.00     0.102 A 
HETATM   44  C   UNL     1     103.695 142.457 166.004  1.00  0.00     0.132 A 
HETATM   45  C   UNL     1     102.770 143.490 166.065  1.00  0.00     0.102 A 
HETATM   46  C   UNL     1     102.549 144.300 164.960  1.00  0.00     0.057 A 
BRANCH  43  47
HETATM   47  O   UNL     1     105.271 141.160 164.825  1.00  0.00    -0.358 OA
HETATM   48  H   UNL     1     105.643 141.069 165.721  1.00  0.00     0.217 HD
ENDBRANCH  43  47
BRANCH  44  49
HETATM   49  O   UNL     1     103.929 141.710 167.127  1.00  0.00    -0.356 OA
HETATM   50  H   UNL     1     103.407 142.148 167.830  1.00  0.00     0.218 HD
ENDBRANCH  44  49
BRANCH  45  51
HETATM   51  O   UNL     1     102.073 143.720 167.214  1.00  0.00    -0.358 OA
HETATM   52  H   UNL     1     101.437 144.428 166.989  1.00  0.00     0.217 HD
ENDBRANCH  45  51
ENDBRANCH  39  41
ENDBRANCH  38  39
ENDBRANCH   6  38
BRANCH   2  53
HETATM   53  O   UNL     1     106.838 147.895 158.886  1.00  0.00    -0.306 OA
BRANCH  53  54
HETATM   54  C   UNL     1     106.499 147.619 157.611  1.00  0.00     0.294 C 
HETATM   55  O   UNL     1     106.599 146.524 157.076  1.00  0.00    -0.259 OA
BRANCH  54  56
HETATM   56  C   UNL     1     106.035 148.838 156.918  1.00  0.00     0.045 A 
HETATM   57  C   UNL     1     105.414 148.691 155.669  1.00  0.00     0.057 A 
HETATM   58  C   UNL     1     104.900 149.802 155.016  1.00  0.00     0.102 A 
HETATM   59  C   UNL     1     104.965 151.050 155.619  1.00  0.00     0.132 A 
HETATM   60  C   UNL     1     105.572 151.193 156.863  1.00  0.00     0.102 A 
HETATM   61  C   UNL     1     106.132 150.100 157.515  1.00  0.00     0.057 A 
BRANCH  58  62
HETATM   62  O   UNL     1     104.309 149.705 153.788  1.00  0.00    -0.358 OA
HETATM   63  H   UNL     1     105.006 149.545 153.124  1.00  0.00     0.217 HD
ENDBRANCH  58  62
BRANCH  59  64
HETATM   64  O   UNL     1     104.423 152.145 155.006  1.00  0.00    -0.356 OA
HETATM   65  H   UNL     1     105.037 152.875 155.227  1.00  0.00     0.218 HD
ENDBRANCH  59  64
BRANCH  60  66
HETATM   66  O   UNL     1     105.596 152.416 157.468  1.00  0.00    -0.358 OA
HETATM   67  H   UNL     1     105.823 152.226 158.402  1.00  0.00     0.217 HD
ENDBRANCH  60  66
ENDBRANCH  54  56
ENDBRANCH  53  54
ENDBRANCH   2  53
BRANCH   4  68
HETATM   68  O   UNL     1     104.141 147.103 159.755  1.00  0.00    -0.304 OA
BRANCH  68  69
HETATM   69  C   UNL     1     103.231 148.120 159.846  1.00  0.00     0.294 C 
HETATM   70  O   UNL     1     102.874 148.573 160.922  1.00  0.00    -0.259 OA
BRANCH  69  71
HETATM   71  C   UNL     1     102.610 148.565 158.578  1.00  0.00     0.045 A 
HETATM   72  C   UNL     1     102.361 149.924 158.334  1.00  0.00     0.057 A 
HETATM   73  C   UNL     1     101.921 150.308 157.071  1.00  0.00     0.102 A 
HETATM   74  C   UNL     1     101.706 149.353 156.082  1.00  0.00     0.132 A 
HETATM   75  C   UNL     1     101.880 148.004 156.360  1.00  0.00     0.102 A 
HETATM   76  C   UNL     1     102.318 147.595 157.612  1.00  0.00     0.057 A 
BRANCH  73  77
HETATM   77  O   UNL     1     101.701 151.616 156.741  1.00  0.00    -0.358 OA
HETATM   78  H   UNL     1     101.979 151.754 155.816  1.00  0.00     0.217 HD
ENDBRANCH  73  77
BRANCH  74  79
HETATM   79  O   UNL     1     101.325 149.722 154.820  1.00  0.00    -0.356 OA
HETATM   80  H   UNL     1     101.301 148.881 154.318  1.00  0.00     0.218 HD
ENDBRANCH  74  79
BRANCH  75  81
HETATM   81  O   UNL     1     101.646 147.076 155.385  1.00  0.00    -0.358 OA
HETATM   82  H   UNL     1     101.281 147.598 154.639  1.00  0.00     0.217 HD
ENDBRANCH  75  81
ENDBRANCH  69  71
ENDBRANCH  68  69
ENDBRANCH   4  68
TORSDOF 31
ENDMDL
MODEL 3
REMARK VINA RESULT:   -10.503      2.519      5.399
REMARK INTER + INTRA:         -31.227
REMARK INTER:                 -25.472
REMARK INTRA:                  -5.755
REMARK UNBOUND:                -6.295
REMARK  31 active torsions:
REMARK  status: ('A' for Active; 'I' for Inactive)
REMARK    1  A    between atoms: O_2  and  C_27 
REMARK    2  A    between atoms: O_2  and  C_33 
REMARK    3  A    between atoms: O_3  and  C_34 
REMARK    4  A    between atoms: O_3  and  C_28 
REMARK    5  A    between atoms: O_4  and  C_35 
REMARK    6  A    between atoms: O_4  and  C_29 
REMARK    7  A    between atoms: O_5  and  C_36 
REMARK    8  A    between atoms: O_5  and  C_31 
REMARK    9  A    between atoms: O_6  and  C_32 
REMARK   10  A    between atoms: O_6  and  C_39 
REMARK   11  A    between atoms: O_12  and  C_51 
REMARK   12  A    between atoms: O_13  and  C_52 
REMARK   13  A    between atoms: O_14  and  C_53 
REMARK   14  A    between atoms: O_15  and  C_54 
REMARK   15  A    between atoms: O_16  and  C_55 
REMARK   16  A    between atoms: O_17  and  C_56 
REMARK   17  A    between atoms: O_18  and  C_59 
REMARK   18  A    between atoms: O_19  and  C_60 
REMARK   19  A    between atoms: O_20  and  C_61 
REMARK   20  A    between atoms: O_21  and  C_62 
REMARK   21  A    between atoms: O_22  and  C_63 
REMARK   22  A    between atoms: O_23  and  C_64 
REMARK   23  A    between atoms: O_24  and  C_65 
REMARK   24  A    between atoms: O_25  and  C_66 
REMARK   25  A    between atoms: O_26  and  C_67 
REMARK   26  A    between atoms: C_30  and  C_32 
REMARK   27  A    between atoms: C_33  and  C_37 
REMARK   28  A    between atoms: C_34  and  C_38 
REMARK   29  A    between atoms: C_35  and  C_40 
REMARK   30  A    between atoms: C_36  and  C_41 
REMARK   31  A    between atoms: C_39  and  C_42 
ROOT
HETATM    1  O   UNL     1     109.360 146.247 162.905  1.00  0.00    -0.348 OA
HETATM    2  C   UNL     1     107.480 146.786 160.793  1.00  0.00     0.198 C 
HETATM    3  C   UNL     1     108.782 147.601 160.959  1.00  0.00     0.195 C 
HETATM    4  C   UNL     1     107.029 146.313 162.200  1.00  0.00     0.220 C 
HETATM    5  C   UNL     1     109.845 146.699 161.631  1.00  0.00     0.181 C 
HETATM    6  C   UNL     1     108.177 145.456 162.791  1.00  0.00     0.302 C 
ENDROOT
BRANCH   5   7
HETATM    7  C   UNL     1     111.178 147.443 161.813  1.00  0.00     0.213 C 
BRANCH   7   8
HETATM    8  O   UNL     1     110.968 148.824 162.154  1.00  0.00    -0.315 OA
BRANCH   8   9
HETATM    9  C   UNL     1     111.528 149.203 163.334  1.00  0.00     0.293 C 
HETATM   10  O   UNL     1     111.380 148.662 164.417  1.00  0.00    -0.259 OA
BRANCH   9  11
HETATM   11  C   UNL     1     112.374 150.399 163.128  1.00  0.00     0.045 A 
HETATM   12  C   UNL     1     113.006 150.638 161.894  1.00  0.00     0.057 A 
HETATM   13  C   UNL     1     113.737 151.809 161.727  1.00  0.00     0.102 A 
HETATM   14  C   UNL     1     113.848 152.722 162.771  1.00  0.00     0.132 A 
HETATM   15  C   UNL     1     113.226 152.477 163.988  1.00  0.00     0.102 A 
HETATM   16  C   UNL     1     112.478 151.323 164.176  1.00  0.00     0.057 A 
BRANCH  13  17
HETATM   17  O   UNL     1     114.356 152.117 160.547  1.00  0.00    -0.358 OA
HETATM   18  H   UNL     1     114.002 152.962 160.217  1.00  0.00     0.217 HD
ENDBRANCH  13  17
BRANCH  14  19
HETATM   19  O   UNL     1     114.561 153.878 162.611  1.00  0.00    -0.356 OA
HETATM   20  H   UNL     1     114.374 154.396 163.421  1.00  0.00     0.218 HD
ENDBRANCH  14  19
BRANCH  15  21
HETATM   21  O   UNL     1     113.337 153.375 165.008  1.00  0.00    -0.358 OA
HETATM   22  H   UNL     1     112.509 153.272 165.522  1.00  0.00     0.217 HD
ENDBRANCH  15  21
ENDBRANCH   9  11
ENDBRANCH   8   9
ENDBRANCH   7   8
ENDBRANCH   5   7
BRANCH   3  23
HETATM   23  O   UNL     1     109.294 148.057 159.689  1.00  0.00    -0.307 OA
BRANCH  23  24
HETATM   24  C   UNL     1     109.300 149.327 159.204  1.00  0.00     0.294 C 
HETATM   25  O   UNL     1     108.467 150.137 159.595  1.00  0.00    -0.259 OA
BRANCH  24  26
HETATM   26  C   UNL     1     110.352 149.782 158.264  1.00  0.00     0.045 A 
HETATM   27  C   UNL     1     110.067 150.209 156.957  1.00  0.00     0.057 A 
HETATM   28  C   UNL     1     111.114 150.527 156.098  1.00  0.00     0.102 A 
HETATM   29  C   UNL     1     112.424 150.517 156.559  1.00  0.00     0.132 A 
HETATM   30  C   UNL     1     112.696 150.192 157.880  1.00  0.00     0.102 A 
HETATM   31  C   UNL     1     111.670 149.829 158.742  1.00  0.00     0.057 A 
BRANCH  28  32
HETATM   32  O   UNL     1     110.904 150.838 154.784  1.00  0.00    -0.358 OA
HETATM   33  H   UNL     1     111.589 150.406 154.241  1.00  0.00     0.217 HD
ENDBRANCH  28  32
BRANCH  29  34
HETATM   34  O   UNL     1     113.459 150.826 155.720  1.00  0.00    -0.356 OA
HETATM   35  H   UNL     1     113.368 151.790 155.571  1.00  0.00     0.218 HD
ENDBRANCH  29  34
BRANCH  30  36
HETATM   36  O   UNL     1     113.981 150.212 158.338  1.00  0.00    -0.358 OA
HETATM   37  H   UNL     1     114.274 151.139 158.222  1.00  0.00     0.217 HD
ENDBRANCH  30  36
ENDBRANCH  24  26
ENDBRANCH  23  24
ENDBRANCH   3  23
BRANCH   6  38
HETATM   38  O   UNL     1     107.773 145.013 164.099  1.00  0.00    -0.283 OA
BRANCH  38  39
HETATM   39  C   UNL     1     107.614 143.740 164.531  1.00  0.00     0.295 C 
HETATM   40  O   UNL     1     107.051 142.914 163.820  1.00  0.00    -0.259 OA
BRANCH  39  41
HETATM   41  C   UNL     1     108.007 143.358 165.906  1.00  0.00     0.045 A 
HETATM   42  C   UNL     1     109.350 143.251 166.303  1.00  0.00     0.057 A 
HETATM   43  C   UNL     1     109.639 142.957 167.633  1.00  0.00     0.102 A 
HETATM   44  C   UNL     1     108.611 142.677 168.529  1.00  0.00     0.132 A 
HETATM   45  C   UNL     1     107.290 142.687 168.104  1.00  0.00     0.102 A 
HETATM   46  C   UNL     1     106.975 143.035 166.799  1.00  0.00     0.057 A 
BRANCH  43  47
HETATM   47  O   UNL     1     110.917 142.944 168.116  1.00  0.00    -0.358 OA
HETATM   48  H   UNL     1     111.097 143.787 168.570  1.00  0.00     0.217 HD
ENDBRANCH  43  47
BRANCH  44  49
HETATM   49  O   UNL     1     108.886 142.382 169.837  1.00  0.00    -0.356 OA
HETATM   50  H   UNL     1     109.155 143.235 170.232  1.00  0.00     0.218 HD
ENDBRANCH  44  49
BRANCH  45  51
HETATM   51  O   UNL     1     106.290 142.356 168.970  1.00  0.00    -0.358 OA
HETATM   52  H   UNL     1     105.461 142.551 168.488  1.00  0.00     0.217 HD
ENDBRANCH  45  51
ENDBRANCH  39  41
ENDBRANCH  38  39
ENDBRANCH   6  38
BRANCH   2  53
HETATM   53  O   UNL     1     106.464 147.485 160.026  1.00  0.00    -0.306 OA
BRANCH  53  54
HETATM   54  C   UNL     1     105.906 146.877 158.960  1.00  0.00     0.294 C 
HETATM   55  O   UNL     1     105.017 146.039 159.012  1.00  0.00    -0.259 OA
BRANCH  54  56
HETATM   56  C   UNL     1     106.552 147.319 157.708  1.00  0.00     0.045 A 
HETATM   57  C   UNL     1     106.098 148.505 157.113  1.00  0.00     0.057 A 
HETATM   58  C   UNL     1     106.724 148.994 155.976  1.00  0.00     0.102 A 
HETATM   59  C   UNL     1     107.824 148.330 155.453  1.00  0.00     0.132 A 
HETATM   60  C   UNL     1     108.281 147.159 156.049  1.00  0.00     0.102 A 
HETATM   61  C   UNL     1     107.642 146.628 157.164  1.00  0.00     0.057 A 
BRANCH  58  62
HETATM   62  O   UNL     1     106.297 150.133 155.354  1.00  0.00    -0.358 OA
HETATM   63  H   UNL     1     107.081 150.645 155.080  1.00  0.00     0.217 HD
ENDBRANCH  58  62
BRANCH  59  64
HETATM   64  O   UNL     1     108.477 148.826 154.359  1.00  0.00    -0.356 OA
HETATM   65  H   UNL     1     107.759 149.131 153.766  1.00  0.00     0.218 HD
ENDBRANCH  59  64
BRANCH  60  66
HETATM   66  O   UNL     1     109.388 146.533 155.552  1.00  0.00    -0.358 OA
HETATM   67  H   UNL     1     109.992 146.455 156.319  1.00  0.00     0.217 HD
ENDBRANCH  60  66
ENDBRANCH  54  56
ENDBRANCH  53  54
ENDBRANCH   2  53
BRANCH   4  68
HETATM   68  O   UNL     1     105.813 145.529 162.125  1.00  0.00    -0.304 OA
BRANCH  68  69
HETATM   69  C   UNL     1     104.672 145.974 162.737  1.00  0.00     0.294 C 
HETATM   70  O   UNL     1     104.185 147.063 162.481  1.00  0.00    -0.259 OA
BRANCH  69  71
HETATM   71  C   UNL     1     104.126 145.117 163.814  1.00  0.00     0.045 A 
HETATM   72  C   UNL     1     103.856 143.759 163.587  1.00  0.00     0.057 A 
HETATM   73  C   UNL     1     103.491 142.959 164.666  1.00  0.00     0.102 A 
HETATM   74  C   UNL     1     103.369 143.510 165.938  1.00  0.00     0.132 A 
HETATM   75  C   UNL     1     103.560 144.871 166.134  1.00  0.00     0.102 A 
HETATM   76  C   UNL     1     103.925 145.690 165.075  1.00  0.00     0.057 A 
BRANCH  73  77
HETATM   77  O   UNL     1     103.258 141.619 164.536  1.00  0.00    -0.358 OA
HETATM   78  H   UNL     1     102.330 141.440 164.776  1.00  0.00     0.217 HD
ENDBRANCH  73  77
BRANCH  74  79
HETATM   79  O   UNL     1     103.062 142.725 167.017  1.00  0.00    -0.356 OA
HETATM   80  H   UNL     1     103.933 142.431 167.357  1.00  0.00     0.218 HD
ENDBRANCH  74  79
BRANCH  75  81
HETATM   81  O   UNL     1     103.417 145.402 167.385  1.00  0.00    -0.358 OA
HETATM   82  H   UNL     1     102.500 145.751 167.394  1.00  0.00     0.217 HD
ENDBRANCH  75  81
ENDBRANCH  69  71
ENDBRANCH  68  69
ENDBRANCH   4  68
TORSDOF 31
ENDMDL
MODEL 4
REMARK VINA RESULT:   -10.436     17.298     22.826
REMARK INTER + INTRA:         -31.068
REMARK INTER:                 -24.891
REMARK INTRA:                  -6.177
REMARK UNBOUND:                -6.295
REMARK  31 active torsions:
REMARK  status: ('A' for Active; 'I' for Inactive)
REMARK    1  A    between atoms: O_2  and  C_27 
REMARK    2  A    between atoms: O_2  and  C_33 
REMARK    3  A    between atoms: O_3  and  C_34 
REMARK    4  A    between atoms: O_3  and  C_28 
REMARK    5  A    between atoms: O_4  and  C_35 
REMARK    6  A    between atoms: O_4  and  C_29 
REMARK    7  A    between atoms: O_5  and  C_36 
REMARK    8  A    between atoms: O_5  and  C_31 
REMARK    9  A    between atoms: O_6  and  C_32 
REMARK   10  A    between atoms: O_6  and  C_39 
REMARK   11  A    between atoms: O_12  and  C_51 
REMARK   12  A    between atoms: O_13  and  C_52 
REMARK   13  A    between atoms: O_14  and  C_53 
REMARK   14  A    between atoms: O_15  and  C_54 
REMARK   15  A    between atoms: O_16  and  C_55 
REMARK   16  A    between atoms: O_17  and  C_56 
REMARK   17  A    between atoms: O_18  and  C_59 
REMARK   18  A    between atoms: O_19  and  C_60 
REMARK   19  A    between atoms: O_20  and  C_61 
REMARK   20  A    between atoms: O_21  and  C_62 
REMARK   21  A    between atoms: O_22  and  C_63 
REMARK   22  A    between atoms: O_23  and  C_64 
REMARK   23  A    between atoms: O_24  and  C_65 
REMARK   24  A    between atoms: O_25  and  C_66 
REMARK   25  A    between atoms: O_26  and  C_67 
REMARK   26  A    between atoms: C_30  and  C_32 
REMARK   27  A    between atoms: C_33  and  C_37 
REMARK   28  A    between atoms: C_34  and  C_38 
REMARK   29  A    between atoms: C_35  and  C_40 
REMARK   30  A    between atoms: C_36  and  C_41 
REMARK   31  A    between atoms: C_39  and  C_42 
ROOT
HETATM    1  O   UNL     1     120.145 148.429 147.140  1.00  0.00    -0.348 OA
HETATM    2  C   UNL     1     122.079 150.005 145.707  1.00  0.00     0.198 C 
HETATM    3  C   UNL     1     120.731 149.590 145.076  1.00  0.00     0.195 C 
HETATM    4  C   UNL     1     122.496 148.902 146.714  1.00  0.00     0.220 C 
HETATM    5  C   UNL     1     119.689 149.422 146.209  1.00  0.00     0.181 C 
HETATM    6  C   UNL     1     121.370 148.793 147.774  1.00  0.00     0.302 C 
ENDROOT
BRANCH   5   7
HETATM    7  C   UNL     1     118.313 149.024 145.650  1.00  0.00     0.213 C 
BRANCH   7   8
HETATM    8  O   UNL     1     117.316 148.985 146.685  1.00  0.00    -0.315 OA
BRANCH   8   9
HETATM    9  C   UNL     1     116.034 148.983 146.230  1.00  0.00     0.293 C 
HETATM   10  O   UNL     1     115.397 149.948 145.843  1.00  0.00    -0.259 OA
BRANCH   9  11
HETATM   11  C   UNL     1     115.492 147.607 146.263  1.00  0.00     0.045 A 
HETATM   12  C   UNL     1     115.929 146.676 147.222  1.00  0.00     0.057 A 
HETATM   13  C   UNL     1     115.344 145.415 147.255  1.00  0.00     0.102 A 
HETATM   14  C   UNL     1     114.347 145.081 146.343  1.00  0.00     0.132 A 
HETATM   15  C   UNL     1     113.924 146.003 145.395  1.00  0.00     0.102 A 
HETATM   16  C   UNL     1     114.482 147.273 145.350  1.00  0.00     0.057 A 
BRANCH  13  17
HETATM   17  O   UNL     1     115.703 144.470 148.176  1.00  0.00    -0.358 OA
HETATM   18  H   UNL     1     115.945 143.652 147.709  1.00  0.00     0.217 HD
ENDBRANCH  13  17
BRANCH  14  19
HETATM   19  O   UNL     1     113.763 143.845 146.373  1.00  0.00    -0.356 OA
HETATM   20  H   UNL     1     114.124 143.383 145.589  1.00  0.00     0.218 HD
ENDBRANCH  14  19
BRANCH  15  21
HETATM   21  O   UNL     1     112.947 145.671 144.504  1.00  0.00    -0.358 OA
HETATM   22  H   UNL     1     112.833 144.703 144.606  1.00  0.00     0.217 HD
ENDBRANCH  15  21
ENDBRANCH   9  11
ENDBRANCH   8   9
ENDBRANCH   7   8
ENDBRANCH   5   7
BRANCH   3  23
HETATM   23  O   UNL     1     120.249 150.581 144.143  1.00  0.00    -0.307 OA
BRANCH  23  24
HETATM   24  C   UNL     1     119.836 150.383 142.862  1.00  0.00     0.294 C 
HETATM   25  O   UNL     1     120.489 149.669 142.110  1.00  0.00    -0.259 OA
BRANCH  24  26
HETATM   26  C   UNL     1     118.557 150.952 142.375  1.00  0.00     0.045 A 
HETATM   27  C   UNL     1     117.417 151.058 143.186  1.00  0.00     0.057 A 
HETATM   28  C   UNL     1     116.223 151.509 142.632  1.00  0.00     0.102 A 
HETATM   29  C   UNL     1     116.185 151.945 141.314  1.00  0.00     0.132 A 
HETATM   30  C   UNL     1     117.337 151.934 140.542  1.00  0.00     0.102 A 
HETATM   31  C   UNL     1     118.529 151.446 141.061  1.00  0.00     0.057 A 
BRANCH  28  32
HETATM   32  O   UNL     1     115.055 151.526 143.343  1.00  0.00    -0.358 OA
HETATM   33  H   UNL     1     115.118 150.880 144.071  1.00  0.00     0.217 HD
ENDBRANCH  28  32
BRANCH  29  34
HETATM   34  O   UNL     1     115.014 152.388 140.762  1.00  0.00    -0.356 OA
HETATM   35  H   UNL     1     114.790 153.188 141.282  1.00  0.00     0.218 HD
ENDBRANCH  29  34
BRANCH  30  36
HETATM   36  O   UNL     1     117.302 152.390 139.257  1.00  0.00    -0.358 OA
HETATM   37  H   UNL     1     118.229 152.333 138.947  1.00  0.00     0.217 HD
ENDBRANCH  30  36
ENDBRANCH  24  26
ENDBRANCH  23  24
ENDBRANCH   3  23
BRANCH   6  38
HETATM   38  O   UNL     1     121.743 147.770 148.715  1.00  0.00    -0.283 OA
BRANCH  38  39
HETATM   39  C   UNL     1     122.293 147.931 149.941  1.00  0.00     0.295 C 
HETATM   40  O   UNL     1     121.714 148.597 150.792  1.00  0.00    -0.259 OA
BRANCH  39  41
HETATM   41  C   UNL     1     123.646 147.408 150.232  1.00  0.00     0.045 A 
HETATM   42  C   UNL     1     124.235 146.378 149.480  1.00  0.00     0.057 A 
HETATM   43  C   UNL     1     125.540 145.991 149.772  1.00  0.00     0.102 A 
HETATM   44  C   UNL     1     126.212 146.549 150.855  1.00  0.00     0.132 A 
HETATM   45  C   UNL     1     125.587 147.495 151.655  1.00  0.00     0.102 A 
HETATM   46  C   UNL     1     124.309 147.940 151.349  1.00  0.00     0.057 A 
BRANCH  43  47
HETATM   47  O   UNL     1     126.215 145.075 149.016  1.00  0.00    -0.358 OA
HETATM   48  H   UNL     1     126.984 145.505 148.602  1.00  0.00     0.217 HD
ENDBRANCH  43  47
BRANCH  44  49
HETATM   49  O   UNL     1     127.494 146.171 151.152  1.00  0.00    -0.356 OA
HETATM   50  H   UNL     1     128.022 146.989 151.055  1.00  0.00     0.218 HD
ENDBRANCH  44  49
BRANCH  45  51
HETATM   51  O   UNL     1     126.227 147.998 152.750  1.00  0.00    -0.358 OA
HETATM   52  H   UNL     1     126.423 147.220 153.309  1.00  0.00     0.217 HD
ENDBRANCH  45  51
ENDBRANCH  39  41
ENDBRANCH  38  39
ENDBRANCH   6  38
BRANCH   2  53
HETATM   53  O   UNL     1     123.088 150.348 144.719  1.00  0.00    -0.306 OA
BRANCH  53  54
HETATM   54  C   UNL     1     123.439 151.639 144.553  1.00  0.00     0.294 C 
HETATM   55  O   UNL     1     122.952 152.402 143.732  1.00  0.00    -0.259 OA
BRANCH  54  56
HETATM   56  C   UNL     1     124.540 152.003 145.468  1.00  0.00     0.045 A 
HETATM   57  C   UNL     1     125.851 151.691 145.080  1.00  0.00     0.057 A 
HETATM   58  C   UNL     1     126.919 152.078 145.876  1.00  0.00     0.102 A 
HETATM   59  C   UNL     1     126.690 152.808 147.033  1.00  0.00     0.132 A 
HETATM   60  C   UNL     1     125.390 153.126 147.412  1.00  0.00     0.102 A 
HETATM   61  C   UNL     1     124.302 152.711 146.652  1.00  0.00     0.057 A 
BRANCH  58  62
HETATM   62  O   UNL     1     128.210 151.773 145.545  1.00  0.00    -0.358 OA
HETATM   63  H   UNL     1     128.622 151.319 146.303  1.00  0.00     0.217 HD
ENDBRANCH  58  62
BRANCH  59  64
HETATM   64  O   UNL     1     127.737 153.234 147.802  1.00  0.00    -0.356 OA
HETATM   65  H   UNL     1     128.530 152.864 147.359  1.00  0.00     0.218 HD
ENDBRANCH  59  64
BRANCH  60  66
HETATM   66  O   UNL     1     125.175 153.878 148.531  1.00  0.00    -0.358 OA
HETATM   67  H   UNL     1     125.478 153.312 149.271  1.00  0.00     0.217 HD
ENDBRANCH  60  66
ENDBRANCH  54  56
ENDBRANCH  53  54
ENDBRANCH   2  53
BRANCH   4  68
HETATM   68  O   UNL     1     123.753 149.226 147.357  1.00  0.00    -0.304 OA
BRANCH  68  69
HETATM   69  C   UNL     1     124.915 148.653 146.917  1.00  0.00     0.294 C 
HETATM   70  O   UNL     1     124.936 147.869 145.982  1.00  0.00    -0.259 OA
BRANCH  69  71
HETATM   71  C   UNL     1     126.132 148.938 147.711  1.00  0.00     0.045 A 
HETATM   72  C   UNL     1     126.096 149.838 148.787  1.00  0.00     0.057 A 
HETATM   73  C   UNL     1     127.221 149.958 149.598  1.00  0.00     0.102 A 
HETATM   74  C   UNL     1     128.366 149.218 149.323  1.00  0.00     0.132 A 
HETATM   75  C   UNL     1     128.417 148.392 148.208  1.00  0.00     0.102 A 
HETATM   76  C   UNL     1     127.309 148.254 147.384  1.00  0.00     0.057 A 
BRANCH  73  77
HETATM   77  O   UNL     1     127.248 150.776 150.693  1.00  0.00    -0.358 OA
HETATM   78  H   UNL     1     126.558 150.482 151.316  1.00  0.00     0.217 HD
ENDBRANCH  73  77
BRANCH  74  79
HETATM   79  O   UNL     1     129.461 149.286 150.143  1.00  0.00    -0.356 OA
HETATM   80  H   UNL     1     130.220 149.119 149.547  1.00  0.00     0.218 HD
ENDBRANCH  74  79
BRANCH  75  81
HETATM   81  O   UNL     1     129.555 147.686 147.938  1.00  0.00    -0.358 OA
HETATM   82  H   UNL     1     129.358 147.226 147.094  1.00  0.00     0.217 HD
ENDBRANCH  75  81
ENDBRANCH  69  71
ENDBRANCH  68  69
ENDBRANCH   4  68
TORSDOF 31
ENDMDL
MODEL 5
REMARK VINA RESULT:   -10.432      1.523      8.666
REMARK INTER + INTRA:         -31.059
REMARK INTER:                 -25.476
REMARK INTRA:                  -5.583
REMARK UNBOUND:                -6.295
REMARK  31 active torsions:
REMARK  status: ('A' for Active; 'I' for Inactive)
REMARK    1  A    between atoms: O_2  and  C_27 
REMARK    2  A    between atoms: O_2  and  C_33 
REMARK    3  A    between atoms: O_3  and  C_34 
REMARK    4  A    between atoms: O_3  and  C_28 
REMARK    5  A    between atoms: O_4  and  C_35 
REMARK    6  A    between atoms: O_4  and  C_29 
REMARK    7  A    between atoms: O_5  and  C_36 
REMARK    8  A    between atoms: O_5  and  C_31 
REMARK    9  A    between atoms: O_6  and  C_32 
REMARK   10  A    between atoms: O_6  and  C_39 
REMARK   11  A    between atoms: O_12  and  C_51 
REMARK   12  A    between atoms: O_13  and  C_52 
REMARK   13  A    between atoms: O_14  and  C_53 
REMARK   14  A    between atoms: O_15  and  C_54 
REMARK   15  A    between atoms: O_16  and  C_55 
REMARK   16  A    between atoms: O_17  and  C_56 
REMARK   17  A    between atoms: O_18  and  C_59 
REMARK   18  A    between atoms: O_19  and  C_60 
REMARK   19  A    between atoms: O_20  and  C_61 
REMARK   20  A    between atoms: O_21  and  C_62 
REMARK   21  A    between atoms: O_22  and  C_63 
REMARK   22  A    between atoms: O_23  and  C_64 
REMARK   23  A    between atoms: O_24  and  C_65 
REMARK   24  A    between atoms: O_25  and  C_66 
REMARK   25  A    between atoms: O_26  and  C_67 
REMARK   26  A    between atoms: C_30  and  C_32 
REMARK   27  A    between atoms: C_33  and  C_37 
REMARK   28  A    between atoms: C_34  and  C_38 
REMARK   29  A    between atoms: C_35  and  C_40 
REMARK   30  A    between atoms: C_36  and  C_41 
REMARK   31  A    between atoms: C_39  and  C_42 
ROOT
HETATM    1  O   UNL     1     106.329 145.650 163.147  1.00  0.00    -0.348 OA
HETATM    2  C   UNL     1     107.081 147.466 161.044  1.00  0.00     0.198 C 
HETATM    3  C   UNL     1     105.719 146.735 161.048  1.00  0.00     0.195 C 
HETATM    4  C   UNL     1     108.114 146.557 161.759  1.00  0.00     0.220 C 
HETATM    5  C   UNL     1     105.318 146.450 162.516  1.00  0.00     0.181 C 
HETATM    6  C   UNL     1     107.595 146.308 163.198  1.00  0.00     0.302 C 
ENDROOT
BRANCH   5   7
HETATM    7  C   UNL     1     103.959 145.735 162.597  1.00  0.00     0.213 C 
BRANCH   7   8
HETATM    8  O   UNL     1     102.971 146.554 163.245  1.00  0.00    -0.315 OA
BRANCH   8   9
HETATM    9  C   UNL     1     101.892 145.870 163.711  1.00  0.00     0.293 C 
HETATM   10  O   UNL     1     100.720 146.112 163.478  1.00  0.00    -0.259 OA
BRANCH   9  11
HETATM   11  C   UNL     1     102.339 144.750 164.568  1.00  0.00     0.045 A 
HETATM   12  C   UNL     1     102.734 144.968 165.901  1.00  0.00     0.057 A 
HETATM   13  C   UNL     1     103.085 143.876 166.688  1.00  0.00     0.102 A 
HETATM   14  C   UNL     1     103.052 142.590 166.156  1.00  0.00     0.132 A 
HETATM   15  C   UNL     1     102.667 142.383 164.839  1.00  0.00     0.102 A 
HETATM   16  C   UNL     1     102.298 143.454 164.037  1.00  0.00     0.057 A 
BRANCH  13  17
HETATM   17  O   UNL     1     103.454 144.011 167.997  1.00  0.00    -0.358 OA
HETATM   18  H   UNL     1     103.107 143.255 168.502  1.00  0.00     0.217 HD
ENDBRANCH  13  17
BRANCH  14  19
HETATM   19  O   UNL     1     103.390 141.511 166.926  1.00  0.00    -0.356 OA
HETATM   20  H   UNL     1     104.366 141.465 166.870  1.00  0.00     0.218 HD
ENDBRANCH  14  19
BRANCH  15  21
HETATM   21  O   UNL     1     102.636 141.121 164.323  1.00  0.00    -0.358 OA
HETATM   22  H   UNL     1     103.548 140.960 164.002  1.00  0.00     0.217 HD
ENDBRANCH  15  21
ENDBRANCH   9  11
ENDBRANCH   8   9
ENDBRANCH   7   8
ENDBRANCH   5   7
BRANCH   3  23
HETATM   23  O   UNL     1     104.684 147.526 160.427  1.00  0.00    -0.307 OA
BRANCH  23  24
HETATM   24  C   UNL     1     104.047 147.283 159.251  1.00  0.00     0.294 C 
HETATM   25  O   UNL     1     103.464 146.219 159.076  1.00  0.00    -0.259 OA
BRANCH  24  26
HETATM   26  C   UNL     1     103.972 148.319 158.193  1.00  0.00     0.045 A 
HETATM   27  C   UNL     1     103.072 149.394 158.248  1.00  0.00     0.057 A 
HETATM   28  C   UNL     1     102.988 150.272 157.172  1.00  0.00     0.102 A 
HETATM   29  C   UNL     1     103.858 150.145 156.097  1.00  0.00     0.132 A 
HETATM   30  C   UNL     1     104.816 149.141 156.090  1.00  0.00     0.102 A 
HETATM   31  C   UNL     1     104.887 148.227 157.132  1.00  0.00     0.057 A 
BRANCH  28  32
HETATM   32  O   UNL     1     102.052 151.267 157.121  1.00  0.00    -0.358 OA
HETATM   33  H   UNL     1     102.437 152.041 156.669  1.00  0.00     0.217 HD
ENDBRANCH  28  32
BRANCH  29  34
HETATM   34  O   UNL     1     103.780 151.003 155.034  1.00  0.00    -0.356 OA
HETATM   35  H   UNL     1     103.473 151.846 155.428  1.00  0.00     0.218 HD
ENDBRANCH  29  34
BRANCH  30  36
HETATM   36  O   UNL     1     105.687 149.037 155.046  1.00  0.00    -0.358 OA
HETATM   37  H   UNL     1     105.427 148.214 154.584  1.00  0.00     0.217 HD
ENDBRANCH  30  36
ENDBRANCH  24  26
ENDBRANCH  23  24
ENDBRANCH   3  23
BRANCH   6  38
HETATM   38  O   UNL     1     108.545 145.462 163.873  1.00  0.00    -0.283 OA
BRANCH  38  39
HETATM   39  C   UNL     1     108.432 144.141 164.145  1.00  0.00     0.295 C 
HETATM   40  O   UNL     1     108.265 143.337 163.235  1.00  0.00    -0.259 OA
BRANCH  39  41
HETATM   41  C   UNL     1     108.389 143.664 165.546  1.00  0.00     0.045 A 
HETATM   42  C   UNL     1     107.182 143.442 166.230  1.00  0.00     0.057 A 
HETATM   43  C   UNL     1     107.225 142.923 167.521  1.00  0.00     0.102 A 
HETATM   44  C   UNL     1     108.446 142.724 168.157  1.00  0.00     0.132 A 
HETATM   45  C   UNL     1     109.633 143.041 167.511  1.00  0.00     0.102 A 
HETATM   46  C   UNL     1     109.618 143.502 166.203  1.00  0.00     0.057 A 
BRANCH  43  47
HETATM   47  O   UNL     1     106.094 142.579 168.207  1.00  0.00    -0.358 OA
HETATM   48  H   UNL     1     105.626 143.389 168.480  1.00  0.00     0.217 HD
ENDBRANCH  43  47
BRANCH  44  49
HETATM   49  O   UNL     1     108.497 142.220 169.429  1.00  0.00    -0.356 OA
HETATM   50  H   UNL     1     108.344 141.260 169.322  1.00  0.00     0.218 HD
ENDBRANCH  44  49
BRANCH  45  51
HETATM   51  O   UNL     1     110.825 142.899 168.158  1.00  0.00    -0.358 OA
HETATM   52  H   UNL     1     110.655 142.243 168.863  1.00  0.00     0.217 HD
ENDBRANCH  45  51
ENDBRANCH  39  41
ENDBRANCH  38  39
ENDBRANCH   6  38
BRANCH   2  53
HETATM   53  O   UNL     1     107.476 147.925 159.724  1.00  0.00    -0.306 OA
BRANCH  53  54
HETATM   54  C   UNL     1     107.775 147.020 158.771  1.00  0.00     0.294 C 
HETATM   55  O   UNL     1     107.613 145.812 158.871  1.00  0.00    -0.259 OA
BRANCH  54  56
HETATM   56  C   UNL     1     108.381 147.678 157.596  1.00  0.00     0.045 A 
HETATM   57  C   UNL     1     108.463 149.078 157.593  1.00  0.00     0.057 A 
HETATM   58  C   UNL     1     109.088 149.732 156.541  1.00  0.00     0.102 A 
HETATM   59  C   UNL     1     109.666 148.998 155.516  1.00  0.00     0.132 A 
HETATM   60  C   UNL     1     109.593 147.609 155.525  1.00  0.00     0.102 A 
HETATM   61  C   UNL     1     108.934 146.934 156.547  1.00  0.00     0.057 A 
BRANCH  58  62
HETATM   62  O   UNL     1     109.168 151.095 156.489  1.00  0.00    -0.358 OA
HETATM   63  H   UNL     1     109.813 151.338 155.799  1.00  0.00     0.217 HD
ENDBRANCH  58  62
BRANCH  59  64
HETATM   64  O   UNL     1     110.324 149.630 154.497  1.00  0.00    -0.356 OA
HETATM   65  H   UNL     1     110.594 150.490 154.880  1.00  0.00     0.218 HD
ENDBRANCH  59  64
BRANCH  60  66
HETATM   66  O   UNL     1     110.199 146.892 154.534  1.00  0.00    -0.358 OA
HETATM   67  H   UNL     1     111.153 147.091 154.633  1.00  0.00     0.217 HD
ENDBRANCH  60  66
ENDBRANCH  54  56
ENDBRANCH  53  54
ENDBRANCH   2  53
BRANCH   4  68
HETATM   68  O   UNL     1     109.420 147.183 161.804  1.00  0.00    -0.304 OA
BRANCH  68  69
HETATM   69  C   UNL     1     110.469 146.629 161.120  1.00  0.00     0.294 C 
HETATM   70  O   UNL     1     110.840 145.484 161.323  1.00  0.00    -0.259 OA
BRANCH  69  71
HETATM   71  C   UNL     1     111.208 147.530 160.207  1.00  0.00     0.045 A 
HETATM   72  C   UNL     1     111.752 147.050 159.006  1.00  0.00     0.057 A 
HETATM   73  C   UNL     1     112.301 147.962 158.108  1.00  0.00     0.102 A 
HETATM   74  C   UNL     1     112.333 149.318 158.416  1.00  0.00     0.132 A 
HETATM   75  C   UNL     1     111.864 149.770 159.642  1.00  0.00     0.102 A 
HETATM   76  C   UNL     1     111.311 148.882 160.554  1.00  0.00     0.057 A 
BRANCH  73  77
HETATM   77  O   UNL     1     112.808 147.578 156.898  1.00  0.00    -0.358 OA
HETATM   78  H   UNL     1     113.779 147.657 156.930  1.00  0.00     0.217 HD
ENDBRANCH  73  77
BRANCH  74  79
HETATM   79  O   UNL     1     112.822 150.230 157.520  1.00  0.00    -0.356 OA
HETATM   80  H   UNL     1     113.690 150.493 157.891  1.00  0.00     0.218 HD
ENDBRANCH  74  79
BRANCH  75  81
HETATM   81  O   UNL     1     111.920 151.102 159.940  1.00  0.00    -0.358 OA
HETATM   82  H   UNL     1     112.880 151.295 160.000  1.00  0.00     0.217 HD
ENDBRANCH  75  81
ENDBRANCH  69  71
ENDBRANCH  68  69
ENDBRANCH   4  68
TORSDOF 31
ENDMDL
MODEL 6
REMARK VINA RESULT:   -10.384      1.641      7.059
REMARK INTER + INTRA:         -30.943
REMARK INTER:                 -24.675
REMARK INTRA:                  -6.269
REMARK UNBOUND:                -6.295
REMARK  31 active torsions:
REMARK  status: ('A' for Active; 'I' for Inactive)
REMARK    1  A    between atoms: O_2  and  C_27 
REMARK    2  A    between atoms: O_2  and  C_33 
REMARK    3  A    between atoms: O_3  and  C_34 
REMARK    4  A    between atoms: O_3  and  C_28 
REMARK    5  A    between atoms: O_4  and  C_35 
REMARK    6  A    between atoms: O_4  and  C_29 
REMARK    7  A    between atoms: O_5  and  C_36 
REMARK    8  A    between atoms: O_5  and  C_31 
REMARK    9  A    between atoms: O_6  and  C_32 
REMARK   10  A    between atoms: O_6  and  C_39 
REMARK   11  A    between atoms: O_12  and  C_51 
REMARK   12  A    between atoms: O_13  and  C_52 
REMARK   13  A    between atoms: O_14  and  C_53 
REMARK   14  A    between atoms: O_15  and  C_54 
REMARK   15  A    between atoms: O_16  and  C_55 
REMARK   16  A    between atoms: O_17  and  C_56 
REMARK   17  A    between atoms: O_18  and  C_59 
REMARK   18  A    between atoms: O_19  and  C_60 
REMARK   19  A    between atoms: O_20  and  C_61 
REMARK   20  A    between atoms: O_21  and  C_62 
REMARK   21  A    between atoms: O_22  and  C_63 
REMARK   22  A    between atoms: O_23  and  C_64 
REMARK   23  A    between atoms: O_24  and  C_65 
REMARK   24  A    between atoms: O_25  and  C_66 
REMARK   25  A    between atoms: O_26  and  C_67 
REMARK   26  A    between atoms: C_30  and  C_32 
REMARK   27  A    between atoms: C_33  and  C_37 
REMARK   28  A    between atoms: C_34  and  C_38 
REMARK   29  A    between atoms: C_35  and  C_40 
REMARK   30  A    between atoms: C_36  and  C_41 
REMARK   31  A    between atoms: C_39  and  C_42 
ROOT
HETATM    1  O   UNL     1     106.975 147.461 159.019  1.00  0.00    -0.348 OA
HETATM    2  C   UNL     1     105.404 145.640 160.600  1.00  0.00     0.198 C 
HETATM    3  C   UNL     1     104.762 146.798 159.803  1.00  0.00     0.195 C 
HETATM    4  C   UNL     1     106.829 146.083 161.023  1.00  0.00     0.220 C 
HETATM    5  C   UNL     1     105.655 147.107 158.578  1.00  0.00     0.181 C 
HETATM    6  C   UNL     1     107.618 146.402 159.727  1.00  0.00     0.302 C 
ENDROOT
BRANCH   5   7
HETATM    7  C   UNL     1     105.066 148.244 157.726  1.00  0.00     0.213 C 
BRANCH   7   8
HETATM    8  O   UNL     1     105.454 148.125 156.348  1.00  0.00    -0.315 OA
BRANCH   8   9
HETATM    9  C   UNL     1     106.404 149.015 155.952  1.00  0.00     0.293 C 
HETATM   10  O   UNL     1     106.535 150.161 156.345  1.00  0.00    -0.259 OA
BRANCH   9  11
HETATM   11  C   UNL     1     107.293 148.388 154.950  1.00  0.00     0.045 A 
HETATM   12  C   UNL     1     107.088 148.584 153.572  1.00  0.00     0.057 A 
HETATM   13  C   UNL     1     107.988 148.028 152.670  1.00  0.00     0.102 A 
HETATM   14  C   UNL     1     109.069 147.281 153.129  1.00  0.00     0.132 A 
HETATM   15  C   UNL     1     109.263 147.087 154.490  1.00  0.00     0.102 A 
HETATM   16  C   UNL     1     108.387 147.644 155.412  1.00  0.00     0.057 A 
BRANCH  13  17
HETATM   17  O   UNL     1     107.863 148.199 151.320  1.00  0.00    -0.358 OA
HETATM   18  H   UNL     1     108.729 148.047 150.902  1.00  0.00     0.217 HD
ENDBRANCH  13  17
BRANCH  14  19
HETATM   19  O   UNL     1     109.962 146.736 152.247  1.00  0.00    -0.356 OA
HETATM   20  H   UNL     1     109.529 145.917 151.933  1.00  0.00     0.218 HD
ENDBRANCH  14  19
BRANCH  15  21
HETATM   21  O   UNL     1     110.324 146.355 154.934  1.00  0.00    -0.358 OA
HETATM   22  H   UNL     1     110.224 146.336 155.908  1.00  0.00     0.217 HD
ENDBRANCH  15  21
ENDBRANCH   9  11
ENDBRANCH   8   9
ENDBRANCH   7   8
ENDBRANCH   5   7
BRANCH   3  23
HETATM   23  O   UNL     1     103.437 146.460 159.341  1.00  0.00    -0.307 OA
BRANCH  23  24
HETATM   24  C   UNL     1     102.249 146.907 159.828  1.00  0.00     0.294 C 
HETATM   25  O   UNL     1     101.833 148.016 159.512  1.00  0.00    -0.259 OA
BRANCH  24  26
HETATM   26  C   UNL     1     101.396 146.041 160.677  1.00  0.00     0.045 A 
HETATM   27  C   UNL     1     101.246 144.665 160.446  1.00  0.00     0.057 A 
HETATM   28  C   UNL     1     100.352 143.934 161.222  1.00  0.00     0.102 A 
HETATM   29  C   UNL     1      99.688 144.540 162.281  1.00  0.00     0.132 A 
HETATM   30  C   UNL     1      99.914 145.878 162.572  1.00  0.00     0.102 A 
HETATM   31  C   UNL     1     100.768 146.636 161.782  1.00  0.00     0.057 A 
BRANCH  28  32
HETATM   32  O   UNL     1     100.080 142.619 160.969  1.00  0.00    -0.358 OA
HETATM   33  H   UNL     1      99.117 142.476 161.030  1.00  0.00     0.217 HD
ENDBRANCH  28  32
BRANCH  29  34
HETATM   34  O   UNL     1      98.806 143.829 163.047  1.00  0.00    -0.356 OA
HETATM   35  H   UNL     1      97.944 144.269 162.892  1.00  0.00     0.218 HD
ENDBRANCH  29  34
BRANCH  30  36
HETATM   36  O   UNL     1      99.283 146.462 163.630  1.00  0.00    -0.358 OA
HETATM   37  H   UNL     1      99.617 147.382 163.643  1.00  0.00     0.217 HD
ENDBRANCH  30  36
ENDBRANCH  24  26
ENDBRANCH  23  24
ENDBRANCH   3  23
BRANCH   6  38
HETATM   38  O   UNL     1     108.944 146.817 160.105  1.00  0.00    -0.283 OA
BRANCH  38  39
HETATM   39  C   UNL     1     109.448 148.073 160.115  1.00  0.00     0.295 C 
HETATM   40  O   UNL     1     109.250 148.809 161.075  1.00  0.00    -0.259 OA
BRANCH  39  41
HETATM   41  C   UNL     1     110.141 148.614 158.924  1.00  0.00     0.045 A 
HETATM   42  C   UNL     1     111.420 148.183 158.535  1.00  0.00     0.057 A 
HETATM   43  C   UNL     1     111.974 148.688 157.362  1.00  0.00     0.102 A 
HETATM   44  C   UNL     1     111.311 149.676 156.641  1.00  0.00     0.132 A 
HETATM   45  C   UNL     1     110.092 150.169 157.086  1.00  0.00     0.102 A 
HETATM   46  C   UNL     1     109.493 149.639 158.219  1.00  0.00     0.057 A 
BRANCH  43  47
HETATM   47  O   UNL     1     113.164 148.236 156.864  1.00  0.00    -0.358 OA
HETATM   48  H   UNL     1     113.847 148.305 157.555  1.00  0.00     0.217 HD
ENDBRANCH  43  47
BRANCH  44  49
HETATM   49  O   UNL     1     111.851 150.182 155.490  1.00  0.00    -0.356 OA
HETATM   50  H   UNL     1     112.226 149.404 155.029  1.00  0.00     0.218 HD
ENDBRANCH  44  49
BRANCH  45  51
HETATM   51  O   UNL     1     109.473 151.178 156.409  1.00  0.00    -0.358 OA
HETATM   52  H   UNL     1     109.504 150.911 155.469  1.00  0.00     0.217 HD
ENDBRANCH  45  51
ENDBRANCH  39  41
ENDBRANCH  38  39
ENDBRANCH   6  38
BRANCH   2  53
HETATM   53  O   UNL     1     104.564 145.160 161.684  1.00  0.00    -0.306 OA
BRANCH  53  54
HETATM   54  C   UNL     1     104.356 145.948 162.758  1.00  0.00     0.294 C 
HETATM   55  O   UNL     1     104.722 147.110 162.861  1.00  0.00    -0.259 OA
BRANCH  54  56
HETATM   56  C   UNL     1     103.668 145.200 163.829  1.00  0.00     0.045 A 
HETATM   57  C   UNL     1     103.078 143.970 163.502  1.00  0.00     0.057 A 
HETATM   58  C   UNL     1     102.483 143.202 164.493  1.00  0.00     0.102 A 
HETATM   59  C   UNL     1     102.509 143.634 165.811  1.00  0.00     0.132 A 
HETATM   60  C   UNL     1     103.103 144.849 166.136  1.00  0.00     0.102 A 
HETATM   61  C   UNL     1     103.667 145.654 165.153  1.00  0.00     0.057 A 
BRANCH  58  62
HETATM   62  O   UNL     1     101.878 142.010 164.211  1.00  0.00    -0.358 OA
HETATM   63  H   UNL     1     102.200 141.345 164.847  1.00  0.00     0.217 HD
ENDBRANCH  58  62
BRANCH  59  64
HETATM   64  O   UNL     1     101.965 142.865 166.802  1.00  0.00    -0.356 OA
HETATM   65  H   UNL     1     101.266 142.347 166.351  1.00  0.00     0.218 HD
ENDBRANCH  59  64
BRANCH  60  66
HETATM   66  O   UNL     1     103.159 145.247 167.441  1.00  0.00    -0.358 OA
HETATM   67  H   UNL     1     102.331 144.907 167.839  1.00  0.00     0.217 HD
ENDBRANCH  60  66
ENDBRANCH  54  56
ENDBRANCH  53  54
ENDBRANCH   2  53
BRANCH   4  68
HETATM   68  O   UNL     1     107.503 145.040 161.770  1.00  0.00    -0.304 OA
BRANCH  68  69
HETATM   69  C   UNL     1     107.948 145.286 163.040  1.00  0.00     0.294 C 
HETATM   70  O   UNL     1     108.626 146.264 163.309  1.00  0.00    -0.259 OA
BRANCH  69  71
HETATM   71  C   UNL     1     107.666 144.241 164.050  1.00  0.00     0.045 A 
HETATM   72  C   UNL     1     108.271 144.280 165.316  1.00  0.00     0.057 A 
HETATM   73  C   UNL     1     107.859 143.367 166.283  1.00  0.00     0.102 A 
HETATM   74  C   UNL     1     106.886 142.418 165.984  1.00  0.00     0.132 A 
HETATM   75  C   UNL     1     106.354 142.339 164.705  1.00  0.00     0.102 A 
HETATM   76  C   UNL     1     106.747 143.237 163.722  1.00  0.00     0.057 A 
BRANCH  73  77
HETATM   77  O   UNL     1     108.365 143.371 167.553  1.00  0.00    -0.358 OA
HETATM   78  H   UNL     1     108.948 142.596 167.657  1.00  0.00     0.217 HD
ENDBRANCH  73  77
BRANCH  74  79
HETATM   79  O   UNL     1     106.434 141.550 166.941  1.00  0.00    -0.356 OA
HETATM   80  H   UNL     1     107.179 140.926 167.073  1.00  0.00     0.218 HD
ENDBRANCH  74  79
BRANCH  75  81
HETATM   81  O   UNL     1     105.414 141.389 164.419  1.00  0.00    -0.358 OA
HETATM   82  H   UNL     1     104.979 141.215 165.281  1.00  0.00     0.217 HD
ENDBRANCH  75  81
ENDBRANCH  69  71
ENDBRANCH  68  69
ENDBRANCH   4  68
TORSDOF 31
ENDMDL
MODEL 7
REMARK VINA RESULT:   -10.380     19.081     24.909
REMARK INTER + INTRA:         -30.935
REMARK INTER:                 -25.140
REMARK INTRA:                  -5.795
REMARK UNBOUND:                -6.295
REMARK  31 active torsions:
REMARK  status: ('A' for Active; 'I' for Inactive)
REMARK    1  A    between atoms: O_2  and  C_27 
REMARK    2  A    between atoms: O_2  and  C_33 
REMARK    3  A    between atoms: O_3  and  C_34 
REMARK    4  A    between atoms: O_3  and  C_28 
REMARK    5  A    between atoms: O_4  and  C_35 
REMARK    6  A    between atoms: O_4  and  C_29 
REMARK    7  A    between atoms: O_5  and  C_36 
REMARK    8  A    between atoms: O_5  and  C_31 
REMARK    9  A    between atoms: O_6  and  C_32 
REMARK   10  A    between atoms: O_6  and  C_39 
REMARK   11  A    between atoms: O_12  and  C_51 
REMARK   12  A    between atoms: O_13  and  C_52 
REMARK   13  A    between atoms: O_14  and  C_53 
REMARK   14  A    between atoms: O_15  and  C_54 
REMARK   15  A    between atoms: O_16  and  C_55 
REMARK   16  A    between atoms: O_17  and  C_56 
REMARK   17  A    between atoms: O_18  and  C_59 
REMARK   18  A    between atoms: O_19  and  C_60 
REMARK   19  A    between atoms: O_20  and  C_61 
REMARK   20  A    between atoms: O_21  and  C_62 
REMARK   21  A    between atoms: O_22  and  C_63 
REMARK   22  A    between atoms: O_23  and  C_64 
REMARK   23  A    between atoms: O_24  and  C_65 
REMARK   24  A    between atoms: O_25  and  C_66 
REMARK   25  A    between atoms: O_26  and  C_67 
REMARK   26  A    between atoms: C_30  and  C_32 
REMARK   27  A    between atoms: C_33  and  C_37 
REMARK   28  A    between atoms: C_34  and  C_38 
REMARK   29  A    between atoms: C_35  and  C_40 
REMARK   30  A    between atoms: C_36  and  C_41 
REMARK   31  A    between atoms: C_39  and  C_42 
ROOT
HETATM    1  O   UNL     1     122.295 151.828 144.358  1.00  0.00    -0.348 OA
HETATM    2  C   UNL     1     122.884 149.750 146.259  1.00  0.00     0.198 C 
HETATM    3  C   UNL     1     123.980 150.388 145.376  1.00  0.00     0.195 C 
HETATM    4  C   UNL     1     121.549 149.794 145.471  1.00  0.00     0.220 C 
HETATM    5  C   UNL     1     123.558 151.838 145.039  1.00  0.00     0.181 C 
HETATM    6  C   UNL     1     121.246 151.281 145.157  1.00  0.00     0.302 C 
ENDROOT
BRANCH   5   7
HETATM    7  C   UNL     1     124.615 152.542 144.172  1.00  0.00     0.213 C 
BRANCH   7   8
HETATM    8  O   UNL     1     124.827 153.899 144.598  1.00  0.00    -0.315 OA
BRANCH   8   9
HETATM    9  C   UNL     1     125.884 154.066 145.438  1.00  0.00     0.293 C 
HETATM   10  O   UNL     1     125.889 153.892 146.644  1.00  0.00    -0.259 OA
BRANCH   9  11
HETATM   11  C   UNL     1     127.072 154.499 144.670  1.00  0.00     0.045 A 
HETATM   12  C   UNL     1     126.940 155.107 143.408  1.00  0.00     0.057 A 
HETATM   13  C   UNL     1     128.082 155.557 142.754  1.00  0.00     0.102 A 
HETATM   14  C   UNL     1     129.334 155.396 143.338  1.00  0.00     0.132 A 
HETATM   15  C   UNL     1     129.457 154.790 144.581  1.00  0.00     0.102 A 
HETATM   16  C   UNL     1     128.333 154.346 145.262  1.00  0.00     0.057 A 
BRANCH  13  17
HETATM   17  O   UNL     1     128.025 156.178 141.538  1.00  0.00    -0.358 OA
HETATM   18  H   UNL     1     127.431 156.946 141.604  1.00  0.00     0.217 HD
ENDBRANCH  13  17
BRANCH  14  19
HETATM   19  O   UNL     1     130.461 155.841 142.702  1.00  0.00    -0.356 OA
HETATM   20  H   UNL     1     131.143 155.869 143.404  1.00  0.00     0.218 HD
ENDBRANCH  14  19
BRANCH  15  21
HETATM   21  O   UNL     1     130.687 154.635 145.150  1.00  0.00    -0.358 OA
HETATM   22  H   UNL     1     130.931 155.529 145.466  1.00  0.00     0.217 HD
ENDBRANCH  15  21
ENDBRANCH   9  11
ENDBRANCH   8   9
ENDBRANCH   7   8
ENDBRANCH   5   7
BRANCH   3  23
HETATM   23  O   UNL     1     125.258 150.417 146.046  1.00  0.00    -0.307 OA
BRANCH  23  24
HETATM   24  C   UNL     1     126.349 149.647 145.788  1.00  0.00     0.294 C 
HETATM   25  O   UNL     1     126.223 148.438 145.631  1.00  0.00    -0.259 OA
BRANCH  24  26
HETATM   26  C   UNL     1     127.689 150.255 145.610  1.00  0.00     0.045 A 
HETATM   27  C   UNL     1     128.207 150.591 144.350  1.00  0.00     0.057 A 
HETATM   28  C   UNL     1     129.512 151.064 144.250  1.00  0.00     0.102 A 
HETATM   29  C   UNL     1     130.260 151.296 145.397  1.00  0.00     0.132 A 
HETATM   30  C   UNL     1     129.711 151.058 146.649  1.00  0.00     0.102 A 
HETATM   31  C   UNL     1     128.427 150.543 146.769  1.00  0.00     0.057 A 
BRANCH  28  32
HETATM   32  O   UNL     1     130.107 151.300 143.043  1.00  0.00    -0.358 OA
HETATM   33  H   UNL     1     130.857 151.909 143.171  1.00  0.00     0.217 HD
ENDBRANCH  28  32
BRANCH  29  34
HETATM   34  O   UNL     1     131.544 151.759 145.308  1.00  0.00    -0.356 OA
HETATM   35  H   UNL     1     132.098 150.970 145.484  1.00  0.00     0.218 HD
ENDBRANCH  29  34
BRANCH  30  36
HETATM   36  O   UNL     1     130.438 151.314 147.773  1.00  0.00    -0.358 OA
HETATM   37  H   UNL     1     129.973 150.832 148.487  1.00  0.00     0.217 HD
ENDBRANCH  30  36
ENDBRANCH  24  26
ENDBRANCH  23  24
ENDBRANCH   3  23
BRANCH   6  38
HETATM   38  O   UNL     1     120.009 151.337 144.422  1.00  0.00    -0.283 OA
BRANCH  38  39
HETATM   39  C   UNL     1     119.753 150.838 143.191  1.00  0.00     0.295 C 
HETATM   40  O   UNL     1     120.576 150.120 142.633  1.00  0.00    -0.259 OA
BRANCH  39  41
HETATM   41  C   UNL     1     118.535 151.243 142.454  1.00  0.00     0.045 A 
HETATM   42  C   UNL     1     118.570 151.673 141.117  1.00  0.00     0.057 A 
HETATM   43  C   UNL     1     117.372 151.968 140.472  1.00  0.00     0.102 A 
HETATM   44  C   UNL     1     116.171 151.933 141.172  1.00  0.00     0.132 A 
HETATM   45  C   UNL     1     116.155 151.605 142.521  1.00  0.00     0.102 A 
HETATM   46  C   UNL     1     117.328 151.248 143.170  1.00  0.00     0.057 A 
BRANCH  43  47
HETATM   47  O   UNL     1     117.319 152.286 139.144  1.00  0.00    -0.358 OA
HETATM   48  H   UNL     1     117.934 153.020 138.965  1.00  0.00     0.217 HD
ENDBRANCH  43  47
BRANCH  44  49
HETATM   49  O   UNL     1     114.989 152.228 140.548  1.00  0.00    -0.356 OA
HETATM   50  H   UNL     1     115.216 152.931 139.907  1.00  0.00     0.218 HD
ENDBRANCH  44  49
BRANCH  45  51
HETATM   51  O   UNL     1     114.984 151.627 143.218  1.00  0.00    -0.358 OA
HETATM   52  H   UNL     1     114.290 151.786 142.547  1.00  0.00     0.217 HD
ENDBRANCH  45  51
ENDBRANCH  39  41
ENDBRANCH  38  39
ENDBRANCH   6  38
BRANCH   2  53
HETATM   53  O   UNL     1     123.254 148.440 146.768  1.00  0.00    -0.306 OA
BRANCH  53  54
HETATM   54  C   UNL     1     123.159 148.195 148.090  1.00  0.00     0.294 C 
HETATM   55  O   UNL     1     122.130 147.901 148.681  1.00  0.00    -0.259 OA
BRANCH  54  56
HETATM   56  C   UNL     1     124.467 148.381 148.751  1.00  0.00     0.045 A 
HETATM   57  C   UNL     1     125.362 147.301 148.761  1.00  0.00     0.057 A 
HETATM   58  C   UNL     1     126.627 147.455 149.308  1.00  0.00     0.102 A 
HETATM   59  C   UNL     1     127.019 148.689 149.807  1.00  0.00     0.132 A 
HETATM   60  C   UNL     1     126.135 149.762 149.788  1.00  0.00     0.102 A 
HETATM   61  C   UNL     1     124.847 149.619 149.284  1.00  0.00     0.057 A 
BRANCH  58  62
HETATM   62  O   UNL     1     127.520 146.422 149.357  1.00  0.00    -0.358 OA
HETATM   63  H   UNL     1     127.468 145.931 148.516  1.00  0.00     0.217 HD
ENDBRANCH  58  62
BRANCH  59  64
HETATM   64  O   UNL     1     128.279 148.865 150.308  1.00  0.00    -0.356 OA
HETATM   65  H   UNL     1     128.152 149.455 151.081  1.00  0.00     0.218 HD
ENDBRANCH  59  64
BRANCH  60  66
HETATM   66  O   UNL     1     126.541 150.983 150.245  1.00  0.00    -0.358 OA
HETATM   67  H   UNL     1     127.488 150.861 150.466  1.00  0.00     0.217 HD
ENDBRANCH  60  66
ENDBRANCH  54  56
ENDBRANCH  53  54
ENDBRANCH   2  53
BRANCH   4  68
HETATM   68  O   UNL     1     120.465 149.220 146.243  1.00  0.00    -0.304 OA
BRANCH  68  69
HETATM   69  C   UNL     1     119.727 148.190 145.726  1.00  0.00     0.294 C 
HETATM   70  O   UNL     1     120.250 147.191 145.258  1.00  0.00    -0.259 OA
BRANCH  69  71
HETATM   71  C   UNL     1     118.263 148.401 145.653  1.00  0.00     0.045 A 
HETATM   72  C   UNL     1     117.676 149.563 146.177  1.00  0.00     0.057 A 
HETATM   73  C   UNL     1     116.321 149.789 145.950  1.00  0.00     0.102 A 
HETATM   74  C   UNL     1     115.564 148.863 145.240  1.00  0.00     0.132 A 
HETATM   75  C   UNL     1     116.139 147.680 144.795  1.00  0.00     0.102 A 
HETATM   76  C   UNL     1     117.488 147.430 145.009  1.00  0.00     0.057 A 
BRANCH  73  77
HETATM   77  O   UNL     1     115.687 150.918 146.387  1.00  0.00    -0.358 OA
HETATM   78  H   UNL     1     116.156 151.253 147.174  1.00  0.00     0.217 HD
ENDBRANCH  73  77
BRANCH  74  79
HETATM   79  O   UNL     1     114.244 149.098 144.963  1.00  0.00    -0.356 OA
HETATM   80  H   UNL     1     113.993 149.819 145.577  1.00  0.00     0.218 HD
ENDBRANCH  74  79
BRANCH  75  81
HETATM   81  O   UNL     1     115.380 146.770 144.117  1.00  0.00    -0.358 OA
HETATM   82  H   UNL     1     115.656 145.904 144.486  1.00  0.00     0.217 HD
ENDBRANCH  75  81
ENDBRANCH  69  71
ENDBRANCH  68  69
ENDBRANCH   4  68
TORSDOF 31
ENDMDL
MODEL 8
REMARK VINA RESULT:   -10.356      1.804      8.271
REMARK INTER + INTRA:         -30.877
REMARK INTER:                 -25.301
REMARK INTRA:                  -5.577
REMARK UNBOUND:                -6.295
REMARK  31 active torsions:
REMARK  status: ('A' for Active; 'I' for Inactive)
REMARK    1  A    between atoms: O_2  and  C_27 
REMARK    2  A    between atoms: O_2  and  C_33 
REMARK    3  A    between atoms: O_3  and  C_34 
REMARK    4  A    between atoms: O_3  and  C_28 
REMARK    5  A    between atoms: O_4  and  C_35 
REMARK    6  A    between atoms: O_4  and  C_29 
REMARK    7  A    between atoms: O_5  and  C_36 
REMARK    8  A    between atoms: O_5  and  C_31 
REMARK    9  A    between atoms: O_6  and  C_32 
REMARK   10  A    between atoms: O_6  and  C_39 
REMARK   11  A    between atoms: O_12  and  C_51 
REMARK   12  A    between atoms: O_13  and  C_52 
REMARK   13  A    between atoms: O_14  and  C_53 
REMARK   14  A    between atoms: O_15  and  C_54 
REMARK   15  A    between atoms: O_16  and  C_55 
REMARK   16  A    between atoms: O_17  and  C_56 
REMARK   17  A    between atoms: O_18  and  C_59 
REMARK   18  A    between atoms: O_19  and  C_60 
REMARK   19  A    between atoms: O_20  and  C_61 
REMARK   20  A    between atoms: O_21  and  C_62 
REMARK   21  A    between atoms: O_22  and  C_63 
REMARK   22  A    between atoms: O_23  and  C_64 
REMARK   23  A    between atoms: O_24  and  C_65 
REMARK   24  A    between atoms: O_25  and  C_66 
REMARK   25  A    between atoms: O_26  and  C_67 
REMARK   26  A    between atoms: C_30  and  C_32 
REMARK   27  A    between atoms: C_33  and  C_37 
REMARK   28  A    between atoms: C_34  and  C_38 
REMARK   29  A    between atoms: C_35  and  C_40 
REMARK   30  A    between atoms: C_36  and  C_41 
REMARK   31  A    between atoms: C_39  and  C_42 
ROOT
HETATM    1  O   UNL     1     104.411 145.521 163.132  1.00  0.00    -0.348 OA
HETATM    2  C   UNL     1     106.392 146.852 161.525  1.00  0.00     0.198 C 
HETATM    3  C   UNL     1     105.009 146.456 160.960  1.00  0.00     0.195 C 
HETATM    4  C   UNL     1     106.773 145.824 162.622  1.00  0.00     0.220 C 
HETATM    5  C   UNL     1     103.987 146.449 162.122  1.00  0.00     0.181 C 
HETATM    6  C   UNL     1     105.668 145.874 163.708  1.00  0.00     0.302 C 
ENDROOT
BRANCH   5   7
HETATM    7  C   UNL     1     102.579 146.077 161.628  1.00  0.00     0.213 C 
BRANCH   7   8
HETATM    8  O   UNL     1     101.607 146.177 162.682  1.00  0.00    -0.315 OA
BRANCH   8   9
HETATM    9  C   UNL     1     100.987 145.006 162.988  1.00  0.00     0.293 C 
HETATM   10  O   UNL     1     100.018 144.527 162.424  1.00  0.00    -0.259 OA
BRANCH   9  11
HETATM   11  C   UNL     1     101.666 144.363 164.134  1.00  0.00     0.045 A 
HETATM   12  C   UNL     1     102.084 143.021 164.071  1.00  0.00     0.057 A 
HETATM   13  C   UNL     1     102.777 142.479 165.149  1.00  0.00     0.102 A 
HETATM   14  C   UNL     1     103.040 143.255 166.274  1.00  0.00     0.132 A 
HETATM   15  C   UNL     1     102.619 144.577 166.331  1.00  0.00     0.102 A 
HETATM   16  C   UNL     1     101.940 145.146 165.264  1.00  0.00     0.057 A 
BRANCH  13  17
HETATM   17  O   UNL     1     103.234 141.191 165.146  1.00  0.00    -0.358 OA
HETATM   18  H   UNL     1     104.039 141.142 165.691  1.00  0.00     0.217 HD
ENDBRANCH  13  17
BRANCH  14  19
HETATM   19  O   UNL     1     103.726 142.730 167.335  1.00  0.00    -0.356 OA
HETATM   20  H   UNL     1     104.161 143.502 167.752  1.00  0.00     0.218 HD
ENDBRANCH  14  19
BRANCH  15  21
HETATM   21  O   UNL     1     102.880 145.332 167.436  1.00  0.00    -0.358 OA
HETATM   22  H   UNL     1     102.856 144.700 168.183  1.00  0.00     0.217 HD
ENDBRANCH  15  21
ENDBRANCH   9  11
ENDBRANCH   8   9
ENDBRANCH   7   8
ENDBRANCH   5   7
BRANCH   3  23
HETATM   23  O   UNL     1     104.559 147.382 159.948  1.00  0.00    -0.307 OA
BRANCH  23  24
HETATM   24  C   UNL     1     104.944 147.439 158.645  1.00  0.00     0.294 C 
HETATM   25  O   UNL     1     105.239 146.412 158.047  1.00  0.00    -0.259 OA
BRANCH  24  26
HETATM   26  C   UNL     1     104.936 148.722 157.902  1.00  0.00     0.045 A 
HETATM   27  C   UNL     1     106.078 149.236 157.267  1.00  0.00     0.057 A 
HETATM   28  C   UNL     1     106.023 150.493 156.674  1.00  0.00     0.102 A 
HETATM   29  C   UNL     1     104.822 151.190 156.624  1.00  0.00     0.132 A 
HETATM   30  C   UNL     1     103.671 150.636 157.163  1.00  0.00     0.102 A 
HETATM   31  C   UNL     1     103.713 149.403 157.800  1.00  0.00     0.057 A 
BRANCH  28  32
HETATM   32  O   UNL     1     107.130 151.092 156.142  1.00  0.00    -0.358 OA
HETATM   33  H   UNL     1     107.881 150.471 156.191  1.00  0.00     0.217 HD
ENDBRANCH  28  32
BRANCH  29  34
HETATM   34  O   UNL     1     104.761 152.428 156.044  1.00  0.00    -0.356 OA
HETATM   35  H   UNL     1     104.986 152.265 155.105  1.00  0.00     0.218 HD
ENDBRANCH  29  34
BRANCH  30  36
HETATM   36  O   UNL     1     102.488 151.310 157.087  1.00  0.00    -0.358 OA
HETATM   37  H   UNL     1     102.440 151.827 157.916  1.00  0.00     0.217 HD
ENDBRANCH  30  36
ENDBRANCH  24  26
ENDBRANCH  23  24
ENDBRANCH   3  23
BRANCH   6  38
HETATM   38  O   UNL     1     106.008 144.922 164.732  1.00  0.00    -0.283 OA
BRANCH  38  39
HETATM   39  C   UNL     1     106.267 143.602 164.584  1.00  0.00     0.295 C 
HETATM   40  O   UNL     1     105.956 143.025 163.548  1.00  0.00    -0.259 OA
BRANCH  39  41
HETATM   41  C   UNL     1     106.819 142.814 165.709  1.00  0.00     0.045 A 
HETATM   42  C   UNL     1     107.167 143.396 166.939  1.00  0.00     0.057 A 
HETATM   43  C   UNL     1     107.612 142.576 167.972  1.00  0.00     0.102 A 
HETATM   44  C   UNL     1     107.802 141.215 167.755  1.00  0.00     0.132 A 
HETATM   45  C   UNL     1     107.552 140.663 166.506  1.00  0.00     0.102 A 
HETATM   46  C   UNL     1     107.051 141.449 165.479  1.00  0.00     0.057 A 
BRANCH  43  47
HETATM   47  O   UNL     1     107.864 143.055 169.226  1.00  0.00    -0.358 OA
HETATM   48  H   UNL     1     108.402 143.864 169.158  1.00  0.00     0.217 HD
ENDBRANCH  43  47
BRANCH  44  49
HETATM   49  O   UNL     1     108.245 140.401 168.763  1.00  0.00    -0.356 OA
HETATM   50  H   UNL     1     107.614 140.550 169.496  1.00  0.00     0.218 HD
ENDBRANCH  44  49
BRANCH  45  51
HETATM   51  O   UNL     1     107.794 139.340 166.280  1.00  0.00    -0.358 OA
HETATM   52  H   UNL     1     108.584 139.321 165.703  1.00  0.00     0.217 HD
ENDBRANCH  45  51
ENDBRANCH  39  41
ENDBRANCH  38  39
ENDBRANCH   6  38
BRANCH   2  53
HETATM   53  O   UNL     1     107.395 147.047 160.492  1.00  0.00    -0.306 OA
BRANCH  53  54
HETATM   54  C   UNL     1     108.074 148.210 160.442  1.00  0.00     0.294 C 
HETATM   55  O   UNL     1     107.949 149.134 161.233  1.00  0.00    -0.259 OA
BRANCH  54  56
HETATM   56  C   UNL     1     108.963 148.246 159.263  1.00  0.00     0.045 A 
HETATM   57  C   UNL     1     109.926 149.263 159.193  1.00  0.00     0.057 A 
HETATM   58  C   UNL     1     110.827 149.292 158.138  1.00  0.00     0.102 A 
HETATM   59  C   UNL     1     110.798 148.293 157.176  1.00  0.00     0.132 A 
HETATM   60  C   UNL     1     109.848 147.279 157.251  1.00  0.00     0.102 A 
HETATM   61  C   UNL     1     108.909 147.254 158.276  1.00  0.00     0.057 A 
BRANCH  58  62
HETATM   62  O   UNL     1     111.766 150.278 158.021  1.00  0.00    -0.358 OA
HETATM   63  H   UNL     1     112.362 150.226 158.791  1.00  0.00     0.217 HD
ENDBRANCH  58  62
BRANCH  59  64
HETATM   64  O   UNL     1     111.709 148.285 156.157  1.00  0.00    -0.356 OA
HETATM   65  H   UNL     1     112.387 147.639 156.443  1.00  0.00     0.218 HD
ENDBRANCH  59  64
BRANCH  60  66
HETATM   66  O   UNL     1     109.851 146.277 156.324  1.00  0.00    -0.358 OA
HETATM   67  H   UNL     1     109.781 145.454 156.850  1.00  0.00     0.217 HD
ENDBRANCH  60  66
ENDBRANCH  54  56
ENDBRANCH  53  54
ENDBRANCH   2  53
BRANCH   4  68
HETATM   68  O   UNL     1     108.060 146.136 163.209  1.00  0.00    -0.304 OA
BRANCH  68  69
HETATM   69  C   UNL     1     109.183 145.474 162.791  1.00  0.00     0.294 C 
HETATM   70  O   UNL     1     109.336 144.278 162.980  1.00  0.00    -0.259 OA
BRANCH  69  71
HETATM   71  C   UNL     1     110.257 146.306 162.203  1.00  0.00     0.045 A 
HETATM   72  C   UNL     1     110.614 147.535 162.778  1.00  0.00     0.057 A 
HETATM   73  C   UNL     1     111.728 148.208 162.284  1.00  0.00     0.102 A 
HETATM   74  C   UNL     1     112.453 147.678 161.221  1.00  0.00     0.132 A 
HETATM   75  C   UNL     1     112.043 146.502 160.609  1.00  0.00     0.102 A 
HETATM   76  C   UNL     1     110.935 145.812 161.082  1.00  0.00     0.057 A 
BRANCH  73  77
HETATM   77  O   UNL     1     112.167 149.385 162.821  1.00  0.00    -0.358 OA
HETATM   78  H   UNL     1     111.684 150.119 162.397  1.00  0.00     0.217 HD
ENDBRANCH  73  77
BRANCH  74  79
HETATM   79  O   UNL     1     113.582 148.301 160.761  1.00  0.00    -0.356 OA
HETATM   80  H   UNL     1     114.029 148.622 161.572  1.00  0.00     0.218 HD
ENDBRANCH  74  79
BRANCH  75  81
HETATM   81  O   UNL     1     112.752 146.003 159.553  1.00  0.00    -0.358 OA
HETATM   82  H   UNL     1     113.433 146.688 159.378  1.00  0.00     0.217 HD
ENDBRANCH  75  81
ENDBRANCH  69  71
ENDBRANCH  68  69
ENDBRANCH   4  68
TORSDOF 31
ENDMDL
MODEL 9
REMARK VINA RESULT:   -10.355      1.896      7.979
REMARK INTER + INTRA:         -30.877
REMARK INTER:                 -25.260
REMARK INTRA:                  -5.617
REMARK UNBOUND:                -6.295
REMARK  31 active torsions:
REMARK  status: ('A' for Active; 'I' for Inactive)
REMARK    1  A    between atoms: O_2  and  C_27 
REMARK    2  A    between atoms: O_2  and  C_33 
REMARK    3  A    between atoms: O_3  and  C_34 
REMARK    4  A    between atoms: O_3  and  C_28 
REMARK    5  A    between atoms: O_4  and  C_35 
REMARK    6  A    between atoms: O_4  and  C_29 
REMARK    7  A    between atoms: O_5  and  C_36 
REMARK    8  A    between atoms: O_5  and  C_31 
REMARK    9  A    between atoms: O_6  and  C_32 
REMARK   10  A    between atoms: O_6  and  C_39 
REMARK   11  A    between atoms: O_12  and  C_51 
REMARK   12  A    between atoms: O_13  and  C_52 
REMARK   13  A    between atoms: O_14  and  C_53 
REMARK   14  A    between atoms: O_15  and  C_54 
REMARK   15  A    between atoms: O_16  and  C_55 
REMARK   16  A    between atoms: O_17  and  C_56 
REMARK   17  A    between atoms: O_18  and  C_59 
REMARK   18  A    between atoms: O_19  and  C_60 
REMARK   19  A    between atoms: O_20  and  C_61 
REMARK   20  A    between atoms: O_21  and  C_62 
REMARK   21  A    between atoms: O_22  and  C_63 
REMARK   22  A    between atoms: O_23  and  C_64 
REMARK   23  A    between atoms: O_24  and  C_65 
REMARK   24  A    between atoms: O_25  and  C_66 
REMARK   25  A    between atoms: O_26  and  C_67 
REMARK   26  A    between atoms: C_30  and  C_32 
REMARK   27  A    between atoms: C_33  and  C_37 
REMARK   28  A    between atoms: C_34  and  C_38 
REMARK   29  A    between atoms: C_35  and  C_40 
REMARK   30  A    between atoms: C_36  and  C_41 
REMARK   31  A    between atoms: C_39  and  C_42 
ROOT
HETATM    1  O   UNL     1     105.241 144.829 162.548  1.00  0.00    -0.348 OA
HETATM    2  C   UNL     1     105.154 146.451 160.173  1.00  0.00     0.198 C 
HETATM    3  C   UNL     1     106.173 146.709 161.305  1.00  0.00     0.195 C 
HETATM    4  C   UNL     1     103.874 145.850 160.810  1.00  0.00     0.220 C 
HETATM    5  C   UNL     1     106.463 145.369 162.022  1.00  0.00     0.181 C 
HETATM    6  C   UNL     1     104.285 144.540 161.528  1.00  0.00     0.302 C 
ENDROOT
BRANCH   5   7
HETATM    7  C   UNL     1     107.487 145.548 163.155  1.00  0.00     0.213 C 
BRANCH   7   8
HETATM    8  O   UNL     1     107.141 144.761 164.306  1.00  0.00    -0.315 OA
BRANCH   8   9
HETATM    9  C   UNL     1     107.859 143.612 164.438  1.00  0.00     0.293 C 
HETATM   10  O   UNL     1     108.260 142.898 163.535  1.00  0.00    -0.259 OA
BRANCH   9  11
HETATM   11  C   UNL     1     108.100 143.332 165.870  1.00  0.00     0.045 A 
HETATM   12  C   UNL     1     107.037 143.042 166.744  1.00  0.00     0.057 A 
HETATM   13  C   UNL     1     107.319 142.721 168.067  1.00  0.00     0.102 A 
HETATM   14  C   UNL     1     108.635 142.698 168.517  1.00  0.00     0.132 A 
HETATM   15  C   UNL     1     109.680 142.991 167.650  1.00  0.00     0.102 A 
HETATM   16  C   UNL     1     109.426 143.300 166.322  1.00  0.00     0.057 A 
BRANCH  13  17
HETATM   17  O   UNL     1     106.337 142.404 168.963  1.00  0.00    -0.358 OA
HETATM   18  H   UNL     1     106.749 142.035 169.764  1.00  0.00     0.217 HD
ENDBRANCH  13  17
BRANCH  14  19
HETATM   19  O   UNL     1     108.921 142.377 169.816  1.00  0.00    -0.356 OA
HETATM   20  H   UNL     1     109.895 142.453 169.879  1.00  0.00     0.218 HD
ENDBRANCH  14  19
BRANCH  15  21
HETATM   21  O   UNL     1     110.968 142.966 168.097  1.00  0.00    -0.358 OA
HETATM   22  H   UNL     1     110.963 142.331 168.842  1.00  0.00     0.217 HD
ENDBRANCH  15  21
ENDBRANCH   9  11
ENDBRANCH   8   9
ENDBRANCH   7   8
ENDBRANCH   5   7
BRANCH   3  23
HETATM   23  O   UNL     1     107.415 147.243 160.796  1.00  0.00    -0.307 OA
BRANCH  23  24
HETATM   24  C   UNL     1     108.255 148.118 161.410  1.00  0.00     0.294 C 
HETATM   25  O   UNL     1     107.803 149.005 162.125  1.00  0.00    -0.259 OA
BRANCH  24  26
HETATM   26  C   UNL     1     109.726 147.972 161.298  1.00  0.00     0.045 A 
HETATM   27  C   UNL     1     110.335 147.153 160.335  1.00  0.00     0.057 A 
HETATM   28  C   UNL     1     111.716 146.986 160.353  1.00  0.00     0.102 A 
HETATM   29  C   UNL     1     112.495 147.702 161.253  1.00  0.00     0.132 A 
HETATM   30  C   UNL     1     111.900 148.589 162.138  1.00  0.00     0.102 A 
HETATM   31  C   UNL     1     110.519 148.737 162.168  1.00  0.00     0.057 A 
BRANCH  28  32
HETATM   32  O   UNL     1     112.351 146.114 159.514  1.00  0.00    -0.358 OA
HETATM   33  H   UNL     1     112.696 146.606 158.746  1.00  0.00     0.217 HD
ENDBRANCH  28  32
BRANCH  29  34
HETATM   34  O   UNL     1     113.853 147.542 161.278  1.00  0.00    -0.356 OA
HETATM   35  H   UNL     1     114.165 148.008 160.475  1.00  0.00     0.218 HD
ENDBRANCH  29  34
BRANCH  30  36
HETATM   36  O   UNL     1     112.670 149.312 163.001  1.00  0.00    -0.358 OA
HETATM   37  H   UNL     1     112.602 148.837 163.854  1.00  0.00     0.217 HD
ENDBRANCH  30  36
ENDBRANCH  24  26
ENDBRANCH  23  24
ENDBRANCH   3  23
BRANCH   6  38
HETATM   38  O   UNL     1     103.106 143.972 162.127  1.00  0.00    -0.283 OA
BRANCH  38  39
HETATM   39  C   UNL     1     103.038 143.113 163.170  1.00  0.00     0.295 C 
HETATM   40  O   UNL     1     103.167 141.907 162.985  1.00  0.00    -0.259 OA
BRANCH  39  41
HETATM   41  C   UNL     1     102.690 143.600 164.524  1.00  0.00     0.045 A 
HETATM   42  C   UNL     1     103.407 143.219 165.670  1.00  0.00     0.057 A 
HETATM   43  C   UNL     1     103.062 143.777 166.898  1.00  0.00     0.102 A 
HETATM   44  C   UNL     1     101.962 144.623 167.000  1.00  0.00     0.132 A 
HETATM   45  C   UNL     1     101.197 144.916 165.880  1.00  0.00     0.102 A 
HETATM   46  C   UNL     1     101.556 144.419 164.635  1.00  0.00     0.057 A 
BRANCH  43  47
HETATM   47  O   UNL     1     103.782 143.539 168.035  1.00  0.00    -0.358 OA
HETATM   48  H   UNL     1     103.922 144.379 168.508  1.00  0.00     0.217 HD
ENDBRANCH  43  47
BRANCH  44  49
HETATM   49  O   UNL     1     101.613 145.172 168.204  1.00  0.00    -0.356 OA
HETATM   50  H   UNL     1     101.117 145.984 167.972  1.00  0.00     0.218 HD
ENDBRANCH  44  49
BRANCH  45  51
HETATM   51  O   UNL     1     100.086 145.698 165.994  1.00  0.00    -0.358 OA
HETATM   52  H   UNL     1      99.670 145.680 165.109  1.00  0.00     0.217 HD
ENDBRANCH  45  51
ENDBRANCH  39  41
ENDBRANCH  38  39
ENDBRANCH   6  38
BRANCH   2  53
HETATM   53  O   UNL     1     104.932 147.613 159.330  1.00  0.00    -0.306 OA
BRANCH  53  54
HETATM   54  C   UNL     1     105.084 147.500 157.995  1.00  0.00     0.294 C 
HETATM   55  O   UNL     1     104.209 147.157 157.213  1.00  0.00    -0.259 OA
BRANCH  54  56
HETATM   56  C   UNL     1     106.476 147.796 157.600  1.00  0.00     0.045 A 
HETATM   57  C   UNL     1     106.907 149.129 157.649  1.00  0.00     0.057 A 
HETATM   58  C   UNL     1     108.226 149.442 157.354  1.00  0.00     0.102 A 
HETATM   59  C   UNL     1     109.125 148.430 157.052  1.00  0.00     0.132 A 
HETATM   60  C   UNL     1     108.700 147.106 157.013  1.00  0.00     0.102 A 
HETATM   61  C   UNL     1     107.372 146.775 157.263  1.00  0.00     0.057 A 
BRANCH  58  62
HETATM   62  O   UNL     1     108.679 150.731 157.369  1.00  0.00    -0.358 OA
HETATM   63  H   UNL     1     108.392 151.148 158.202  1.00  0.00     0.217 HD
ENDBRANCH  58  62
BRANCH  59  64
HETATM   64  O   UNL     1     110.438 148.721 156.804  1.00  0.00    -0.356 OA
HETATM   65  H   UNL     1     110.931 147.978 157.210  1.00  0.00     0.218 HD
ENDBRANCH  59  64
BRANCH  60  66
HETATM   66  O   UNL     1     109.599 146.113 156.754  1.00  0.00    -0.358 OA
HETATM   67  H   UNL     1     109.494 145.484 157.498  1.00  0.00     0.217 HD
ENDBRANCH  60  66
ENDBRANCH  54  56
ENDBRANCH  53  54
ENDBRANCH   2  53
BRANCH   4  68
HETATM   68  O   UNL     1     102.869 145.570 159.804  1.00  0.00    -0.304 OA
BRANCH  68  69
HETATM   69  C   UNL     1     101.672 146.233 159.828  1.00  0.00     0.294 C 
HETATM   70  O   UNL     1     101.504 147.283 159.228  1.00  0.00    -0.259 OA
BRANCH  69  71
HETATM   71  C   UNL     1     100.628 145.675 160.716  1.00  0.00     0.045 A 
HETATM   72  C   UNL     1     100.166 146.396 161.828  1.00  0.00     0.057 A 
HETATM   73  C   UNL     1      99.078 145.902 162.542  1.00  0.00     0.102 A 
HETATM   74  C   UNL     1      98.483 144.700 162.172  1.00  0.00     0.132 A 
HETATM   75  C   UNL     1      99.000 143.956 161.119  1.00  0.00     0.102 A 
HETATM   76  C   UNL     1     100.084 144.427 160.391  1.00  0.00     0.057 A 
BRANCH  73  77
HETATM   77  O   UNL     1      98.540 146.569 163.607  1.00  0.00    -0.358 OA
HETATM   78  H   UNL     1      99.195 146.577 164.330  1.00  0.00     0.217 HD
ENDBRANCH  73  77
BRANCH  74  79
HETATM   79  O   UNL     1      97.381 144.229 162.832  1.00  0.00    -0.356 OA
HETATM   80  H   UNL     1      97.703 143.435 163.307  1.00  0.00     0.218 HD
ENDBRANCH  74  79
BRANCH  75  81
HETATM   81  O   UNL     1      98.418 142.768 160.779  1.00  0.00    -0.358 OA
HETATM   82  H   UNL     1      98.363 142.276 161.627  1.00  0.00     0.217 HD
ENDBRANCH  75  81
ENDBRANCH  69  71
ENDBRANCH  68  69
ENDBRANCH   4  68
TORSDOF 31
ENDMDL
MODEL 10
REMARK VINA RESULT:   -10.156      1.870      9.041
REMARK INTER + INTRA:         -30.402
REMARK INTER:                 -24.823
REMARK INTRA:                  -5.579
REMARK UNBOUND:                -6.295
REMARK  31 active torsions:
REMARK  status: ('A' for Active; 'I' for Inactive)
REMARK    1  A    between atoms: O_2  and  C_27 
REMARK    2  A    between atoms: O_2  and  C_33 
REMARK    3  A    between atoms: O_3  and  C_34 
REMARK    4  A    between atoms: O_3  and  C_28 
REMARK    5  A    between atoms: O_4  and  C_35 
REMARK    6  A    between atoms: O_4  and  C_29 
REMARK    7  A    between atoms: O_5  and  C_36 
REMARK    8  A    between atoms: O_5  and  C_31 
REMARK    9  A    between atoms: O_6  and  C_32 
REMARK   10  A    between atoms: O_6  and  C_39 
REMARK   11  A    between atoms: O_12  and  C_51 
REMARK   12  A    between atoms: O_13  and  C_52 
REMARK   13  A    between atoms: O_14  and  C_53 
REMARK   14  A    between atoms: O_15  and  C_54 
REMARK   15  A    between atoms: O_16  and  C_55 
REMARK   16  A    between atoms: O_17  and  C_56 
REMARK   17  A    between atoms: O_18  and  C_59 
REMARK   18  A    between atoms: O_19  and  C_60 
REMARK   19  A    between atoms: O_20  and  C_61 
REMARK   20  A    between atoms: O_21  and  C_62 
REMARK   21  A    between atoms: O_22  and  C_63 
REMARK   22  A    between atoms: O_23  and  C_64 
REMARK   23  A    between atoms: O_24  and  C_65 
REMARK   24  A    between atoms: O_25  and  C_66 
REMARK   25  A    between atoms: O_26  and  C_67 
REMARK   26  A    between atoms: C_30  and  C_32 
REMARK   27  A    between atoms: C_33  and  C_37 
REMARK   28  A    between atoms: C_34  and  C_38 
REMARK   29  A    between atoms: C_35  and  C_40 
REMARK   30  A    between atoms: C_36  and  C_41 
REMARK   31  A    between atoms: C_39  and  C_42 
ROOT
HETATM    1  O   UNL     1     105.312 146.113 161.966  1.00  0.00    -0.348 OA
HETATM    2  C   UNL     1     106.001 147.096 159.351  1.00  0.00     0.198 C 
HETATM    3  C   UNL     1     106.910 147.328 160.579  1.00  0.00     0.195 C 
HETATM    4  C   UNL     1     104.534 147.028 159.847  1.00  0.00     0.220 C 
HETATM    5  C   UNL     1     106.693 146.165 161.577  1.00  0.00     0.181 C 
HETATM    6  C   UNL     1     104.442 145.861 160.863  1.00  0.00     0.302 C 
ENDROOT
BRANCH   5   7
HETATM    7  C   UNL     1     107.582 146.322 162.823  1.00  0.00     0.213 C 
BRANCH   7   8
HETATM    8  O   UNL     1     107.312 145.298 163.795  1.00  0.00    -0.315 OA
BRANCH   8   9
HETATM    9  C   UNL     1     108.344 144.437 164.005  1.00  0.00     0.293 C 
HETATM   10  O   UNL     1     109.260 144.199 163.238  1.00  0.00    -0.259 OA
BRANCH   9  11
HETATM   11  C   UNL     1     108.206 143.805 165.335  1.00  0.00     0.045 A 
HETATM   12  C   UNL     1     109.330 143.569 166.148  1.00  0.00     0.057 A 
HETATM   13  C   UNL     1     109.144 143.031 167.417  1.00  0.00     0.102 A 
HETATM   14  C   UNL     1     107.864 142.725 167.868  1.00  0.00     0.132 A 
HETATM   15  C   UNL     1     106.760 142.955 167.058  1.00  0.00     0.102 A 
HETATM   16  C   UNL     1     106.916 143.504 165.793  1.00  0.00     0.057 A 
BRANCH  13  17
HETATM   17  O   UNL     1     110.188 142.800 168.268  1.00  0.00    -0.358 OA
HETATM   18  H   UNL     1     109.841 142.702 169.173  1.00  0.00     0.217 HD
ENDBRANCH  13  17
BRANCH  14  19
HETATM   19  O   UNL     1     107.673 142.201 169.117  1.00  0.00    -0.356 OA
HETATM   20  H   UNL     1     107.497 141.251 168.961  1.00  0.00     0.218 HD
ENDBRANCH  14  19
BRANCH  15  21
HETATM   21  O   UNL     1     105.507 142.653 167.505  1.00  0.00    -0.358 OA
HETATM   22  H   UNL     1     104.963 142.581 166.693  1.00  0.00     0.217 HD
ENDBRANCH  15  21
ENDBRANCH   9  11
ENDBRANCH   8   9
ENDBRANCH   7   8
ENDBRANCH   5   7
BRANCH   3  23
HETATM   23  O   UNL     1     108.305 147.374 160.213  1.00  0.00    -0.307 OA
BRANCH  23  24
HETATM   24  C   UNL     1     109.145 148.442 160.277  1.00  0.00     0.294 C 
HETATM   25  O   UNL     1     108.728 149.566 160.026  1.00  0.00    -0.259 OA
BRANCH  24  26
HETATM   26  C   UNL     1     110.549 148.284 160.726  1.00  0.00     0.045 A 
HETATM   27  C   UNL     1     111.249 149.300 161.396  1.00  0.00     0.057 A 
HETATM   28  C   UNL     1     112.594 149.119 161.699  1.00  0.00     0.102 A 
HETATM   29  C   UNL     1     113.214 147.905 161.429  1.00  0.00     0.132 A 
HETATM   30  C   UNL     1     112.494 146.866 160.858  1.00  0.00     0.102 A 
HETATM   31  C   UNL     1     111.162 147.041 160.507  1.00  0.00     0.057 A 
BRANCH  28  32
HETATM   32  O   UNL     1     113.354 150.114 162.247  1.00  0.00    -0.358 OA
HETATM   33  H   UNL     1     114.296 149.920 162.087  1.00  0.00     0.217 HD
ENDBRANCH  28  32
BRANCH  29  34
HETATM   34  O   UNL     1     114.537 147.720 161.722  1.00  0.00    -0.356 OA
HETATM   35  H   UNL     1     114.634 146.748 161.794  1.00  0.00     0.218 HD
ENDBRANCH  29  34
BRANCH  30  36
HETATM   36  O   UNL     1     113.098 145.666 160.622  1.00  0.00    -0.358 OA
HETATM   37  H   UNL     1     113.624 145.488 161.428  1.00  0.00     0.217 HD
ENDBRANCH  30  36
ENDBRANCH  24  26
ENDBRANCH  23  24
ENDBRANCH   3  23
BRANCH   6  38
HETATM   38  O   UNL     1     103.084 145.787 161.334  1.00  0.00    -0.283 OA
BRANCH  38  39
HETATM   39  C   UNL     1     102.361 144.677 161.612  1.00  0.00     0.295 C 
HETATM   40  O   UNL     1     101.586 144.223 160.778  1.00  0.00    -0.259 OA
BRANCH  39  41
HETATM   41  C   UNL     1     102.408 144.068 162.960  1.00  0.00     0.045 A 
HETATM   42  C   UNL     1     101.564 144.483 164.004  1.00  0.00     0.057 A 
HETATM   43  C   UNL     1     101.619 143.812 165.222  1.00  0.00     0.102 A 
HETATM   44  C   UNL     1     102.563 142.812 165.431  1.00  0.00     0.132 A 
HETATM   45  C   UNL     1     103.461 142.476 164.427  1.00  0.00     0.102 A 
HETATM   46  C   UNL     1     103.387 143.089 163.185  1.00  0.00     0.057 A 
BRANCH  43  47
HETATM   47  O   UNL     1     100.756 144.087 166.246  1.00  0.00    -0.358 OA
HETATM   48  H   UNL     1     100.113 143.360 166.326  1.00  0.00     0.217 HD
ENDBRANCH  43  47
BRANCH  44  49
HETATM   49  O   UNL     1     102.628 142.150 166.627  1.00  0.00    -0.356 OA
HETATM   50  H   UNL     1     102.772 142.854 167.292  1.00  0.00     0.218 HD
ENDBRANCH  44  49
BRANCH  45  51
HETATM   51  O   UNL     1     104.423 141.536 164.654  1.00  0.00    -0.358 OA
HETATM   52  H   UNL     1     104.440 140.989 163.843  1.00  0.00     0.217 HD
ENDBRANCH  45  51
ENDBRANCH  39  41
ENDBRANCH  38  39
ENDBRANCH   6  38
BRANCH   2  53
HETATM   53  O   UNL     1     106.243 148.045 158.277  1.00  0.00    -0.306 OA
BRANCH  53  54
HETATM   54  C   UNL     1     106.735 147.602 157.103  1.00  0.00     0.294 C 
HETATM   55  O   UNL     1     106.216 146.748 156.398  1.00  0.00    -0.259 OA
BRANCH  54  56
HETATM   56  C   UNL     1     108.026 148.252 156.799  1.00  0.00     0.045 A 
HETATM   57  C   UNL     1     108.028 149.631 156.546  1.00  0.00     0.057 A 
HETATM   58  C   UNL     1     109.227 150.293 156.326  1.00  0.00     0.102 A 
HETATM   59  C   UNL     1     110.424 149.597 156.397  1.00  0.00     0.132 A 
HETATM   60  C   UNL     1     110.423 148.231 156.658  1.00  0.00     0.102 A 
HETATM   61  C   UNL     1     109.230 147.539 156.838  1.00  0.00     0.057 A 
BRANCH  58  62
HETATM   62  O   UNL     1     109.269 151.632 156.054  1.00  0.00    -0.358 OA
HETATM   63  H   UNL     1     108.517 152.060 156.503  1.00  0.00     0.217 HD
ENDBRANCH  58  62
BRANCH  59  64
HETATM   64  O   UNL     1     111.615 150.247 156.226  1.00  0.00    -0.356 OA
HETATM   65  H   UNL     1     112.275 149.656 156.645  1.00  0.00     0.218 HD
ENDBRANCH  59  64
BRANCH  60  66
HETATM   66  O   UNL     1     111.607 147.560 156.765  1.00  0.00    -0.358 OA
HETATM   67  H   UNL     1     112.037 147.677 155.893  1.00  0.00     0.217 HD
ENDBRANCH  60  66
ENDBRANCH  54  56
ENDBRANCH  53  54
ENDBRANCH   2  53
BRANCH   4  68
HETATM   68  O   UNL     1     103.618 146.801 158.747  1.00  0.00    -0.304 OA
BRANCH  68  69
HETATM   69  C   UNL     1     102.524 147.607 158.589  1.00  0.00     0.294 C 
HETATM   70  O   UNL     1     101.436 147.321 159.063  1.00  0.00    -0.259 OA
BRANCH  69  71
HETATM   71  C   UNL     1     102.697 148.788 157.712  1.00  0.00     0.045 A 
HETATM   72  C   UNL     1     102.217 150.049 158.097  1.00  0.00     0.057 A 
HETATM   73  C   UNL     1     102.537 151.155 157.315  1.00  0.00     0.102 A 
HETATM   74  C   UNL     1     103.294 151.000 156.158  1.00  0.00     0.132 A 
HETATM   75  C   UNL     1     103.695 149.737 155.745  1.00  0.00     0.102 A 
HETATM   76  C   UNL     1     103.389 148.618 156.507  1.00  0.00     0.057 A 
BRANCH  73  77
HETATM   77  O   UNL     1     102.148 152.422 157.649  1.00  0.00    -0.358 OA
HETATM   78  H   UNL     1     101.179 152.482 157.558  1.00  0.00     0.217 HD
ENDBRANCH  73  77
BRANCH  74  79
HETATM   79  O   UNL     1     103.661 152.086 155.409  1.00  0.00    -0.356 OA
HETATM   80  H   UNL     1     104.064 151.699 154.603  1.00  0.00     0.218 HD
ENDBRANCH  74  79
BRANCH  75  81
HETATM   81  O   UNL     1     104.421 149.598 154.596  1.00  0.00    -0.358 OA
HETATM   82  H   UNL     1     104.815 148.702 154.669  1.00  0.00     0.217 HD
ENDBRANCH  75  81
ENDBRANCH  69  71
ENDBRANCH  68  69
ENDBRANCH   4  68
TORSDOF 31
ENDMDL
