MODEL 1
REMARK VINA RESULT:     -10.6      0.000      0.000
REMARK  11 active torsions:
REMARK  status: ('A' for Active; 'I' for Inactive)
REMARK    1  A    between atoms: O_2  and  C_16 
REMARK    2  A    between atoms: O_2  and  C_18 
REMARK    3  A    between atoms: O_3  and  C_12 
REMARK    4  A    between atoms: O_4  and  C_13 
REMARK    5  A    between atoms: O_5  and  C_14 
REMARK    6  A    between atoms: O_6  and  C_17 
REMARK    7  A    between atoms: O_8  and  C_23 
REMARK    8  A    between atoms: O_10  and  C_30 
REMARK    9  A    between atoms: O_11  and  C_32 
REMARK   10  A    between atoms: C_15  and  C_17 
REMARK   11  A    between atoms: C_25  and  C_27 
ROOT
HETATM    1  O   UNK     0     188.150 175.274 178.780  0.00  0.00    -0.348 OA
HETATM    2  C   UNK     0     190.074 177.320 179.379  0.00  0.00     0.183 C 
HETATM    3  C   UNK     0     190.481 175.925 178.904  0.00  0.00     0.180 C 
HETATM    4  C   UNK     0     188.675 177.309 179.997  0.00  0.00     0.205 C 
HETATM    5  C   UNK     0     189.378 175.299 178.049  0.00  0.00     0.179 C 
HETATM    6  C   UNK     0     187.676 176.581 179.098  0.00  0.00     0.298 C 
ENDROOT
BRANCH   5   7
HETATM    7  C   UNK     0     189.712 173.862 177.661  0.00  0.00     0.198 C 
BRANCH   7   8
HETATM    8  O   UNK     0     190.623 173.888 176.578  0.00  0.00    -0.398 OA
HETATM    9  H   UNK     0     191.518 173.773 176.942  0.00  0.00     0.209 HD
ENDBRANCH   7   8
ENDBRANCH   5   7
BRANCH   6  10
HETATM   10  O   UNK     0     186.439 176.487 179.801  0.00  0.00    -0.318 OA
BRANCH  10  11
HETATM   11  C   UNK     0     185.326 176.919 179.142  0.00  0.00     0.077 A 
HETATM   12  C   UNK     0     184.080 176.859 179.766  0.00  0.00     0.075 A 
HETATM   13  C   UNK     0     182.944 177.302 179.090  0.00  0.00     0.095 A 
HETATM   14  O   UNK     0     181.746 177.218 179.755  0.00  0.00    -0.309 OA
HETATM   15  C   UNK     0     183.055 177.800 177.792  0.00  0.00     0.081 A 
HETATM   16  C   UNK     0     180.600 177.656 179.108  0.00  0.00     0.090 A 
HETATM   17  C   UNK     0     180.578 178.149 177.860  0.00  0.00     0.094 A 
HETATM   18  C   UNK     0     181.840 178.257 177.101  0.00  0.00     0.190 A 
HETATM   19  O   UNK     0     181.864 178.703 175.962  0.00  0.00    -0.287 OA
HETATM   20  C   UNK     0     184.301 177.861 177.163  0.00  0.00     0.085 A 
HETATM   21  C   UNK     0     185.436 177.418 177.844  0.00  0.00     0.074 A 
BRANCH  16  22
HETATM   22  C   UNK     0     179.368 177.517 179.912  0.00  0.00     0.001 A 
HETATM   23  C   UNK     0     178.175 177.124 179.302  0.00  0.00     0.053 A 
HETATM   24  C   UNK     0     177.012 176.991 180.061  0.00  0.00     0.099 A 
HETATM   25  C   UNK     0     177.039 177.251 181.430  0.00  0.00     0.098 A 
HETATM   26  C   UNK     0     178.230 177.643 182.042  0.00  0.00     0.040 A 
HETATM   27  C   UNK     0     179.393 177.776 181.285  0.00  0.00     0.017 A 
BRANCH  24  28
HETATM   28  O   UNK     0     175.853 176.610 179.452  0.00  0.00    -0.358 OA
HETATM   29  H   UNK     0     176.080 176.065 178.679  0.00  0.00     0.217 HD
ENDBRANCH  24  28
BRANCH  25  30
HETATM   30  O   UNK     0     175.910 177.124 182.182  0.00  0.00    -0.358 OA
HETATM   31  H   UNK     0     175.273 176.564 181.706  0.00  0.00     0.217 HD
ENDBRANCH  25  30
ENDBRANCH  16  22
BRANCH  20  32
HETATM   32  O   UNK     0     184.461 178.339 175.899  0.00  0.00    -0.360 OA
HETATM   33  H   UNK     0     184.011 177.767 175.258  0.00  0.00     0.217 HD
ENDBRANCH  20  32
ENDBRANCH  10  11
ENDBRANCH   6  10
BRANCH   3  34
HETATM   34  O   UNK     0     191.678 176.020 178.135  0.00  0.00    -0.390 OA
HETATM   35  H   UNK     0     191.950 176.953 178.117  0.00  0.00     0.210 HD
ENDBRANCH   3  34
BRANCH   4  36
HETATM   36  O   UNK     0     188.224 178.651 180.173  0.00  0.00    -0.388 OA
HETATM   37  H   UNK     0     187.344 178.622 180.586  0.00  0.00     0.210 HD
ENDBRANCH   4  36
BRANCH   2  38
HETATM   38  O   UNK     0     191.023 177.750 180.357  0.00  0.00    -0.390 OA
HETATM   39  H   UNK     0     191.644 177.015 180.501  0.00  0.00     0.210 HD
ENDBRANCH   2  38
TORSDOF 11
ENDMDL
MODEL 2
REMARK VINA RESULT:     -10.2      2.355     10.100
REMARK  11 active torsions:
REMARK  status: ('A' for Active; 'I' for Inactive)
REMARK    1  A    between atoms: O_2  and  C_16 
REMARK    2  A    between atoms: O_2  and  C_18 
REMARK    3  A    between atoms: O_3  and  C_12 
REMARK    4  A    between atoms: O_4  and  C_13 
REMARK    5  A    between atoms: O_5  and  C_14 
REMARK    6  A    between atoms: O_6  and  C_17 
REMARK    7  A    between atoms: O_8  and  C_23 
REMARK    8  A    between atoms: O_10  and  C_30 
REMARK    9  A    between atoms: O_11  and  C_32 
REMARK   10  A    between atoms: C_15  and  C_17 
REMARK   11  A    between atoms: C_25  and  C_27 
ROOT
HETATM    1  O   UNK     0     178.976 177.133 180.100  0.00  0.00    -0.348 OA
HETATM    2  C   UNK     0     178.600 177.111 177.252  0.00  0.00     0.183 C 
HETATM    3  C   UNK     0     177.507 177.563 178.221  0.00  0.00     0.180 C 
HETATM    4  C   UNK     0     179.616 176.205 177.949  0.00  0.00     0.205 C 
HETATM    5  C   UNK     0     178.118 178.113 179.511  0.00  0.00     0.179 C 
HETATM    6  C   UNK     0     180.090 176.812 179.269  0.00  0.00     0.298 C 
ENDROOT
BRANCH   5   7
HETATM    7  C   UNK     0     177.046 178.462 180.539  0.00  0.00     0.198 C 
BRANCH   7   8
HETATM    8  O   UNK     0     176.557 179.760 180.256  0.00  0.00    -0.398 OA
HETATM    9  H   UNK     0     175.657 179.667 179.901  0.00  0.00     0.209 HD
ENDBRANCH   7   8
ENDBRANCH   5   7
BRANCH   6  10
HETATM   10  O   UNK     0     180.918 175.851 179.923  0.00  0.00    -0.318 OA
BRANCH  10  11
HETATM   11  C   UNK     0     182.105 176.304 180.418  0.00  0.00     0.077 A 
HETATM   12  C   UNK     0     183.306 175.817 179.899  0.00  0.00     0.075 A 
HETATM   13  C   UNK     0     184.519 176.281 180.406  0.00  0.00     0.095 A 
HETATM   14  O   UNK     0     185.666 175.766 179.857  0.00  0.00    -0.309 OA
HETATM   15  C   UNK     0     184.530 177.228 181.430  0.00  0.00     0.081 A 
HETATM   16  C   UNK     0     186.887 176.213 180.338  0.00  0.00     0.090 A 
HETATM   17  C   UNK     0     187.027 177.116 181.322  0.00  0.00     0.094 A 
HETATM   18  C   UNK     0     185.824 177.699 181.947  0.00  0.00     0.190 A 
HETATM   19  O   UNK     0     185.907 178.525 182.845  0.00  0.00    -0.287 OA
HETATM   20  C   UNK     0     183.330 177.718 181.952  0.00  0.00     0.085 A 
HETATM   21  C   UNK     0     182.117 177.252 181.441  0.00  0.00     0.074 A 
BRANCH  16  22
HETATM   22  C   UNK     0     188.055 175.590 179.682  0.00  0.00     0.001 A 
HETATM   23  C   UNK     0     188.218 174.203 179.713  0.00  0.00     0.053 A 
HETATM   24  C   UNK     0     189.321 173.615 179.091  0.00  0.00     0.099 A 
HETATM   25  C   UNK     0     190.262 174.411 178.440  0.00  0.00     0.098 A 
HETATM   26  C   UNK     0     190.100 175.797 178.407  0.00  0.00     0.040 A 
HETATM   27  C   UNK     0     188.999 176.385 179.027  0.00  0.00     0.017 A 
BRANCH  24  28
HETATM   28  O   UNK     0     189.470 172.261 179.132  0.00  0.00    -0.358 OA
HETATM   29  H   UNK     0     190.317 172.034 178.712  0.00  0.00     0.217 HD
ENDBRANCH  24  28
BRANCH  25  30
HETATM   30  O   UNK     0     191.341 173.849 177.829  0.00  0.00    -0.358 OA
HETATM   31  H   UNK     0     192.105 174.444 177.923  0.00  0.00     0.217 HD
ENDBRANCH  25  30
ENDBRANCH  16  22
BRANCH  20  32
HETATM   32  O   UNK     0     183.288 178.643 182.950  0.00  0.00    -0.360 OA
HETATM   33  H   UNK     0     183.069 179.518 182.596  0.00  0.00     0.217 HD
ENDBRANCH  20  32
ENDBRANCH  10  11
ENDBRANCH   6  10
BRANCH   3  34
HETATM   34  O   UNK     0     176.721 178.579 177.601  0.00  0.00    -0.390 OA
HETATM   35  H   UNK     0     177.169 179.431 177.740  0.00  0.00     0.210 HD
ENDBRANCH   3  34
BRANCH   4  36
HETATM   36  O   UNK     0     180.753 176.030 177.103  0.00  0.00    -0.388 OA
HETATM   37  H   UNK     0     181.487 176.547 177.475  0.00  0.00     0.210 HD
ENDBRANCH   4  36
BRANCH   2  38
HETATM   38  O   UNK     0     177.978 176.394 176.185  0.00  0.00    -0.390 OA
HETATM   39  H   UNK     0     177.787 177.034 175.477  0.00  0.00     0.210 HD
ENDBRANCH   2  38
TORSDOF 11
ENDMDL
MODEL 3
REMARK VINA RESULT:      -9.4      2.134      9.555
REMARK  11 active torsions:
REMARK  status: ('A' for Active; 'I' for Inactive)
REMARK    1  A    between atoms: O_2  and  C_16 
REMARK    2  A    between atoms: O_2  and  C_18 
REMARK    3  A    between atoms: O_3  and  C_12 
REMARK    4  A    between atoms: O_4  and  C_13 
REMARK    5  A    between atoms: O_5  and  C_14 
REMARK    6  A    between atoms: O_6  and  C_17 
REMARK    7  A    between atoms: O_8  and  C_23 
REMARK    8  A    between atoms: O_10  and  C_30 
REMARK    9  A    between atoms: O_11  and  C_32 
REMARK   10  A    between atoms: C_15  and  C_17 
REMARK   11  A    between atoms: C_25  and  C_27 
ROOT
HETATM    1  O   UNK     0     180.869 176.914 178.444  0.00  0.00    -0.348 OA
HETATM    2  C   UNK     0     177.999 176.913 178.331  0.00  0.00     0.183 C 
HETATM    3  C   UNK     0     178.843 178.048 177.751  0.00  0.00     0.180 C 
HETATM    4  C   UNK     0     178.775 176.136 179.396  0.00  0.00     0.205 C 
HETATM    5  C   UNK     0     180.224 177.540 177.333  0.00  0.00     0.179 C 
HETATM    6  C   UNK     0     180.171 175.758 178.902  0.00  0.00     0.298 C 
ENDROOT
BRANCH   5   7
HETATM    7  C   UNK     0     181.124 178.677 176.860  0.00  0.00     0.198 C 
BRANCH   7   8
HETATM    8  O   UNK     0     182.149 178.132 176.049  0.00  0.00    -0.398 OA
HETATM    9  H   UNK     0     182.082 178.545 175.171  0.00  0.00     0.209 HD
ENDBRANCH   7   8
ENDBRANCH   5   7
BRANCH   6  10
HETATM   10  O   UNK     0     180.878 175.167 179.991  0.00  0.00    -0.318 OA
BRANCH  10  11
HETATM   11  C   UNK     0     182.028 175.788 180.381  0.00  0.00     0.077 A 
HETATM   12  C   UNK     0     183.236 175.471 179.758  0.00  0.00     0.075 A 
HETATM   13  C   UNK     0     184.410 176.108 180.159  0.00  0.00     0.095 A 
HETATM   14  O   UNK     0     185.567 175.755 179.511  0.00  0.00    -0.309 OA
HETATM   15  C   UNK     0     184.375 177.056 181.181  0.00  0.00     0.081 A 
HETATM   16  C   UNK     0     186.749 176.375 179.885  0.00  0.00     0.090 A 
HETATM   17  C   UNK     0     186.844 177.298 180.855  0.00  0.00     0.094 A 
HETATM   18  C   UNK     0     185.629 177.710 181.585  0.00  0.00     0.190 A 
HETATM   19  O   UNK     0     185.671 178.548 182.475  0.00  0.00    -0.287 OA
HETATM   20  C   UNK     0     183.168 177.376 181.807  0.00  0.00     0.085 A 
HETATM   21  C   UNK     0     181.994 176.738 181.403  0.00  0.00     0.074 A 
BRANCH  16  22
HETATM   22  C   UNK     0     187.932 175.918 179.127  0.00  0.00     0.001 A 
HETATM   23  C   UNK     0     188.292 174.569 179.137  0.00  0.00     0.053 A 
HETATM   24  C   UNK     0     189.408 174.137 178.421  0.00  0.00     0.099 A 
HETATM   25  C   UNK     0     190.168 175.053 177.694  0.00  0.00     0.098 A 
HETATM   26  C   UNK     0     189.810 176.401 177.681  0.00  0.00     0.040 A 
HETATM   27  C   UNK     0     188.694 176.834 178.397  0.00  0.00     0.017 A 
BRANCH  24  28
HETATM   28  O   UNK     0     189.750 172.818 178.442  0.00  0.00    -0.358 OA
HETATM   29  H   UNK     0     188.970 172.305 178.715  0.00  0.00     0.217 HD
ENDBRANCH  24  28
BRANCH  25  30
HETATM   30  O   UNK     0     191.259 174.643 176.990  0.00  0.00    -0.358 OA
HETATM   31  H   UNK     0     191.612 173.832 177.394  0.00  0.00     0.217 HD
ENDBRANCH  25  30
ENDBRANCH  16  22
BRANCH  20  32
HETATM   32  O   UNK     0     183.082 178.294 182.808  0.00  0.00    -0.360 OA
HETATM   33  H   UNK     0     183.600 178.011 183.577  0.00  0.00     0.217 HD
ENDBRANCH  20  32
ENDBRANCH  10  11
ENDBRANCH   6  10
BRANCH   3  34
HETATM   34  O   UNK     0     178.178 178.595 176.614  0.00  0.00    -0.390 OA
HETATM   35  H   UNK     0     177.456 179.162 176.933  0.00  0.00     0.210 HD
ENDBRANCH   3  34
BRANCH   4  36
HETATM   36  O   UNK     0     178.071 174.934 179.711  0.00  0.00    -0.388 OA
HETATM   37  H   UNK     0     177.392 174.795 179.029  0.00  0.00     0.210 HD
ENDBRANCH   4  36
BRANCH   2  38
HETATM   38  O   UNK     0     176.829 177.485 178.918  0.00  0.00    -0.390 OA
HETATM   39  H   UNK     0     176.099 177.365 178.287  0.00  0.00     0.210 HD
ENDBRANCH   2  38
TORSDOF 11
ENDMDL
MODEL 4
REMARK VINA RESULT:      -9.1      2.150      3.859
REMARK  11 active torsions:
REMARK  status: ('A' for Active; 'I' for Inactive)
REMARK    1  A    between atoms: O_2  and  C_16 
REMARK    2  A    between atoms: O_2  and  C_18 
REMARK    3  A    between atoms: O_3  and  C_12 
REMARK    4  A    between atoms: O_4  and  C_13 
REMARK    5  A    between atoms: O_5  and  C_14 
REMARK    6  A    between atoms: O_6  and  C_17 
REMARK    7  A    between atoms: O_8  and  C_23 
REMARK    8  A    between atoms: O_10  and  C_30 
REMARK    9  A    between atoms: O_11  and  C_32 
REMARK   10  A    between atoms: C_15  and  C_17 
REMARK   11  A    between atoms: C_25  and  C_27 
ROOT
HETATM    1  O   UNK     0     187.162 177.202 178.671  0.00  0.00    -0.348 OA
HETATM    2  C   UNK     0     189.634 175.812 178.217  0.00  0.00     0.183 C 
HETATM    3  C   UNK     0     189.337 177.181 177.604  0.00  0.00     0.180 C 
HETATM    4  C   UNK     0     188.343 175.082 178.590  0.00  0.00     0.205 C 
HETATM    5  C   UNK     0     188.354 177.965 178.476  0.00  0.00     0.179 C 
HETATM    6  C   UNK     0     187.400 175.987 179.380  0.00  0.00     0.298 C 
ENDROOT
BRANCH   5   7
HETATM    7  C   UNK     0     187.953 179.286 177.826  0.00  0.00     0.198 C 
BRANCH   7   8
HETATM    8  O   UNK     0     187.269 180.070 178.786  0.00  0.00    -0.398 OA
HETATM    9  H   UNK     0     186.571 180.563 178.321  0.00  0.00     0.209 HD
ENDBRANCH   7   8
ENDBRANCH   5   7
BRANCH   6  10
HETATM   10  O   UNK     0     186.170 175.288 179.565  0.00  0.00    -0.318 OA
BRANCH  10  11
HETATM   11  C   UNK     0     185.234 175.894 180.349  0.00  0.00     0.077 A 
HETATM   12  C   UNK     0     183.958 176.145 179.842  0.00  0.00     0.075 A 
HETATM   13  C   UNK     0     183.002 176.765 180.645  0.00  0.00     0.095 A 
HETATM   14  O   UNK     0     181.766 176.987 180.092  0.00  0.00    -0.309 OA
HETATM   15  C   UNK     0     183.323 177.135 181.951  0.00  0.00     0.081 A 
HETATM   16  C   UNK     0     180.794 177.596 180.870  0.00  0.00     0.090 A 
HETATM   17  C   UNK     0     180.983 178.002 182.136  0.00  0.00     0.094 A 
HETATM   18  C   UNK     0     182.296 177.789 182.776  0.00  0.00     0.190 A 
HETATM   19  O   UNK     0     182.510 178.142 183.928  0.00  0.00    -0.287 OA
HETATM   20  C   UNK     0     184.599 176.885 182.463  0.00  0.00     0.085 A 
HETATM   21  C   UNK     0     185.553 176.263 181.656  0.00  0.00     0.074 A 
BRANCH  16  22
HETATM   22  C   UNK     0     179.505 177.791 180.175  0.00  0.00     0.001 A 
HETATM   23  C   UNK     0     178.548 178.660 180.705  0.00  0.00     0.053 A 
HETATM   24  C   UNK     0     177.331 178.844 180.047  0.00  0.00     0.099 A 
HETATM   25  C   UNK     0     177.067 178.159 178.862  0.00  0.00     0.098 A 
HETATM   26  C   UNK     0     178.022 177.292 178.331  0.00  0.00     0.040 A 
HETATM   27  C   UNK     0     179.238 177.107 178.986  0.00  0.00     0.017 A 
BRANCH  24  28
HETATM   28  O   UNK     0     176.405 179.693 180.577  0.00  0.00    -0.358 OA
HETATM   29  H   UNK     0     175.537 179.473 180.197  0.00  0.00     0.217 HD
ENDBRANCH  24  28
BRANCH  25  30
HETATM   30  O   UNK     0     175.883 178.332 178.211  0.00  0.00    -0.358 OA
HETATM   31  H   UNK     0     175.435 177.472 178.135  0.00  0.00     0.217 HD
ENDBRANCH  25  30
ENDBRANCH  16  22
BRANCH  20  32
HETATM   32  O   UNK     0     184.960 177.226 183.730  0.00  0.00    -0.360 OA
HETATM   33  H   UNK     0     184.348 176.840 184.375  0.00  0.00     0.217 HD
ENDBRANCH  20  32
ENDBRANCH  10  11
ENDBRANCH   6  10
BRANCH   3  34
HETATM   34  O   UNK     0     190.553 177.918 177.487  0.00  0.00    -0.390 OA
HETATM   35  H   UNK     0     190.591 178.291 176.590  0.00  0.00     0.210 HD
ENDBRANCH   3  34
BRANCH   4  36
HETATM   36  O   UNK     0     188.657 173.948 179.398  0.00  0.00    -0.388 OA
HETATM   37  H   UNK     0     189.421 173.496 179.000  0.00  0.00     0.210 HD
ENDBRANCH   4  36
BRANCH   2  38
HETATM   38  O   UNK     0     190.355 175.042 177.254  0.00  0.00    -0.390 OA
HETATM   39  H   UNK     0     191.073 175.603 176.912  0.00  0.00     0.210 HD
ENDBRANCH   2  38
TORSDOF 11
ENDMDL
MODEL 5
REMARK VINA RESULT:      -8.9      2.826      9.811
REMARK  11 active torsions:
REMARK  status: ('A' for Active; 'I' for Inactive)
REMARK    1  A    between atoms: O_2  and  C_16 
REMARK    2  A    between atoms: O_2  and  C_18 
REMARK    3  A    between atoms: O_3  and  C_12 
REMARK    4  A    between atoms: O_4  and  C_13 
REMARK    5  A    between atoms: O_5  and  C_14 
REMARK    6  A    between atoms: O_6  and  C_17 
REMARK    7  A    between atoms: O_8  and  C_23 
REMARK    8  A    between atoms: O_10  and  C_30 
REMARK    9  A    between atoms: O_11  and  C_32 
REMARK   10  A    between atoms: C_15  and  C_17 
REMARK   11  A    between atoms: C_25  and  C_27 
ROOT
HETATM    1  O   UNK     0     179.291 176.684 179.777  0.00  0.00    -0.348 OA
HETATM    2  C   UNK     0     179.322 174.695 177.706  0.00  0.00     0.183 C 
HETATM    3  C   UNK     0     178.353 175.877 177.693  0.00  0.00     0.180 C 
HETATM    4  C   UNK     0     179.828 174.409 179.121  0.00  0.00     0.205 C 
HETATM    5  C   UNK     0     178.943 177.071 178.446  0.00  0.00     0.179 C 
HETATM    6  C   UNK     0     180.309 175.686 179.808  0.00  0.00     0.298 C 
ENDROOT
BRANCH   5   7
HETATM    7  C   UNK     0     177.948 178.222 178.547  0.00  0.00     0.198 C 
BRANCH   7   8
HETATM    8  O   UNK     0     177.892 178.881 177.295  0.00  0.00    -0.398 OA
HETATM    9  H   UNK     0     178.369 178.331 176.650  0.00  0.00     0.209 HD
ENDBRANCH   7   8
ENDBRANCH   5   7
BRANCH   6  10
HETATM   10  O   UNK     0     180.628 175.365 181.161  0.00  0.00    -0.318 OA
BRANCH  10  11
HETATM   11  C   UNK     0     181.724 175.978 181.693  0.00  0.00     0.077 A 
HETATM   12  C   UNK     0     182.913 176.031 180.965  0.00  0.00     0.075 A 
HETATM   13  C   UNK     0     184.032 176.658 181.511  0.00  0.00     0.095 A 
HETATM   14  O   UNK     0     185.173 176.679 180.748  0.00  0.00    -0.309 OA
HETATM   15  C   UNK     0     183.962 177.229 182.781  0.00  0.00     0.081 A 
HETATM   16  C   UNK     0     186.300 177.301 181.263  0.00  0.00     0.090 A 
HETATM   17  C   UNK     0     186.358 177.880 182.473  0.00  0.00     0.094 A 
HETATM   18  C   UNK     0     185.158 177.882 183.333  0.00  0.00     0.190 A 
HETATM   19  O   UNK     0     185.167 178.400 184.441  0.00  0.00    -0.287 OA
HETATM   20  C   UNK     0     182.773 177.177 183.513  0.00  0.00     0.085 A 
HETATM   21  C   UNK     0     181.654 176.549 182.963  0.00  0.00     0.074 A 
BRANCH  16  22
HETATM   22  C   UNK     0     187.471 177.261 180.364  0.00  0.00     0.001 A 
HETATM   23  C   UNK     0     188.747 177.534 180.862  0.00  0.00     0.053 A 
HETATM   24  C   UNK     0     189.853 177.494 180.012  0.00  0.00     0.099 A 
HETATM   25  C   UNK     0     189.687 177.183 178.664  0.00  0.00     0.098 A 
HETATM   26  C   UNK     0     188.413 176.909 178.164  0.00  0.00     0.040 A 
HETATM   27  C   UNK     0     187.307 176.948 179.012  0.00  0.00     0.017 A 
BRANCH  24  28
HETATM   28  O   UNK     0     191.092 177.765 180.511  0.00  0.00    -0.358 OA
HETATM   29  H   UNK     0     191.648 178.098 179.786  0.00  0.00     0.217 HD
ENDBRANCH  24  28
BRANCH  25  30
HETATM   30  O   UNK     0     190.759 177.140 177.825  0.00  0.00    -0.358 OA
HETATM   31  H   UNK     0     191.481 176.653 178.258  0.00  0.00     0.217 HD
ENDBRANCH  25  30
ENDBRANCH  16  22
BRANCH  20  32
HETATM   32  O   UNK     0     182.654 177.719 184.756  0.00  0.00    -0.360 OA
HETATM   33  H   UNK     0     182.345 178.636 184.701  0.00  0.00     0.217 HD
ENDBRANCH  20  32
ENDBRANCH  10  11
ENDBRANCH   6  10
BRANCH   3  34
HETATM   34  O   UNK     0     178.088 176.254 176.344  0.00  0.00    -0.390 OA
HETATM   35  H   UNK     0     177.807 177.185 176.343  0.00  0.00     0.210 HD
ENDBRANCH   3  34
BRANCH   4  36
HETATM   36  O   UNK     0     180.923 173.495 179.056  0.00  0.00    -0.388 OA
HETATM   37  H   UNK     0     181.651 173.931 178.581  0.00  0.00     0.210 HD
ENDBRANCH   4  36
BRANCH   2  38
HETATM   38  O   UNK     0     178.630 173.549 177.208  0.00  0.00    -0.390 OA
HETATM   39  H   UNK     0     178.559 172.911 177.940  0.00  0.00     0.210 HD
ENDBRANCH   2  38
TORSDOF 11
ENDMDL
MODEL 6
REMARK VINA RESULT:      -8.8     13.882     19.082
REMARK  11 active torsions:
REMARK  status: ('A' for Active; 'I' for Inactive)
REMARK    1  A    between atoms: O_2  and  C_16 
REMARK    2  A    between atoms: O_2  and  C_18 
REMARK    3  A    between atoms: O_3  and  C_12 
REMARK    4  A    between atoms: O_4  and  C_13 
REMARK    5  A    between atoms: O_5  and  C_14 
REMARK    6  A    between atoms: O_6  and  C_17 
REMARK    7  A    between atoms: O_8  and  C_23 
REMARK    8  A    between atoms: O_10  and  C_30 
REMARK    9  A    between atoms: O_11  and  C_32 
REMARK   10  A    between atoms: C_15  and  C_17 
REMARK   11  A    between atoms: C_25  and  C_27 
ROOT
HETATM    1  O   UNK     0     170.636 180.665 172.038  0.00  0.00    -0.348 OA
HETATM    2  C   UNK     0     171.432 178.177 173.230  0.00  0.00     0.183 C 
HETATM    3  C   UNK     0     172.347 179.401 173.199  0.00  0.00     0.180 C 
HETATM    4  C   UNK     0     170.366 178.254 172.137  0.00  0.00     0.205 C 
HETATM    5  C   UNK     0     171.526 180.692 173.156  0.00  0.00     0.179 C 
HETATM    6  C   UNK     0     169.674 179.617 172.130  0.00  0.00     0.298 C 
ENDROOT
BRANCH   5   7
HETATM    7  C   UNK     0     172.417 181.921 173.006  0.00  0.00     0.198 C 
BRANCH   7   8
HETATM    8  O   UNK     0     172.973 182.232 174.270  0.00  0.00    -0.398 OA
HETATM    9  H   UNK     0     172.391 181.851 174.951  0.00  0.00     0.209 HD
ENDBRANCH   7   8
ENDBRANCH   5   7
BRANCH   6  10
HETATM   10  O   UNK     0     168.802 179.662 171.001  0.00  0.00    -0.318 OA
BRANCH  10  11
HETATM   11  C   UNK     0     167.588 180.251 171.191  0.00  0.00     0.077 A 
HETATM   12  C   UNK     0     166.622 179.619 171.975  0.00  0.00     0.075 A 
HETATM   13  C   UNK     0     165.380 180.223 172.167  0.00  0.00     0.095 A 
HETATM   14  O   UNK     0     164.472 179.554 172.948  0.00  0.00    -0.309 OA
HETATM   15  C   UNK     0     165.106 181.456 171.576  0.00  0.00     0.081 A 
HETATM   16  C   UNK     0     163.231 180.133 173.161  0.00  0.00     0.090 A 
HETATM   17  C   UNK     0     162.847 181.310 172.642  0.00  0.00     0.094 A 
HETATM   18  C   UNK     0     163.787 182.069 171.793  0.00  0.00     0.190 A 
HETATM   19  O   UNK     0     163.478 183.146 171.303  0.00  0.00    -0.287 OA
HETATM   20  C   UNK     0     166.070 182.092 170.790  0.00  0.00     0.085 A 
HETATM   21  C   UNK     0     167.312 181.485 170.600  0.00  0.00     0.074 A 
BRANCH  16  22
HETATM   22  C   UNK     0     162.329 179.327 174.010  0.00  0.00     0.001 A 
HETATM   23  C   UNK     0     161.012 179.739 174.222  0.00  0.00     0.053 A 
HETATM   24  C   UNK     0     160.161 178.976 175.022  0.00  0.00     0.099 A 
HETATM   25  C   UNK     0     160.625 177.801 175.613  0.00  0.00     0.098 A 
HETATM   26  C   UNK     0     161.940 177.387 175.401  0.00  0.00     0.040 A 
HETATM   27  C   UNK     0     162.792 178.148 174.602  0.00  0.00     0.017 A 
BRANCH  24  28
HETATM   28  O   UNK     0     158.878 179.391 175.223  0.00  0.00    -0.358 OA
HETATM   29  H   UNK     0     158.834 180.345 175.040  0.00  0.00     0.217 HD
ENDBRANCH  24  28
BRANCH  25  30
HETATM   30  O   UNK     0     159.803 177.048 176.395  0.00  0.00    -0.358 OA
HETATM   31  H   UNK     0     160.018 177.210 177.330  0.00  0.00     0.217 HD
ENDBRANCH  25  30
ENDBRANCH  16  22
BRANCH  20  32
HETATM   32  O   UNK     0     165.850 183.295 170.191  0.00  0.00    -0.360 OA
HETATM   33  H   UNK     0     165.519 183.172 169.289  0.00  0.00     0.217 HD
ENDBRANCH  20  32
ENDBRANCH  10  11
ENDBRANCH   6  10
BRANCH   3  34
HETATM   34  O   UNK     0     173.170 179.404 174.363  0.00  0.00    -0.390 OA
HETATM   35  H   UNK     0     173.561 178.519 174.457  0.00  0.00     0.210 HD
ENDBRANCH   3  34
BRANCH   4  36
HETATM   36  O   UNK     0     169.378 177.251 172.367  0.00  0.00    -0.388 OA
HETATM   37  H   UNK     0     169.634 176.455 171.869  0.00  0.00     0.210 HD
ENDBRANCH   4  36
BRANCH   2  38
HETATM   38  O   UNK     0     172.239 177.015 173.027  0.00  0.00    -0.390 OA
HETATM   39  H   UNK     0     173.168 177.305 173.018  0.00  0.00     0.210 HD
ENDBRANCH   2  38
TORSDOF 11
ENDMDL
MODEL 7
REMARK VINA RESULT:      -8.7     13.810     18.171
REMARK  11 active torsions:
REMARK  status: ('A' for Active; 'I' for Inactive)
REMARK    1  A    between atoms: O_2  and  C_16 
REMARK    2  A    between atoms: O_2  and  C_18 
REMARK    3  A    between atoms: O_3  and  C_12 
REMARK    4  A    between atoms: O_4  and  C_13 
REMARK    5  A    between atoms: O_5  and  C_14 
REMARK    6  A    between atoms: O_6  and  C_17 
REMARK    7  A    between atoms: O_8  and  C_23 
REMARK    8  A    between atoms: O_10  and  C_30 
REMARK    9  A    between atoms: O_11  and  C_32 
REMARK   10  A    between atoms: C_15  and  C_17 
REMARK   11  A    between atoms: C_25  and  C_27 
ROOT
HETATM    1  O   UNK     0     169.968 179.887 172.390  0.00  0.00    -0.348 OA
HETATM    2  C   UNK     0     172.134 179.267 174.171  0.00  0.00     0.183 C 
HETATM    3  C   UNK     0     171.388 178.192 173.381  0.00  0.00     0.180 C 
HETATM    4  C   UNK     0     171.284 180.529 174.327  0.00  0.00     0.205 C 
HETATM    5  C   UNK     0     170.809 178.771 172.089  0.00  0.00     0.179 C 
HETATM    6  C   UNK     0     170.684 180.964 172.991  0.00  0.00     0.298 C 
ENDROOT
BRANCH   5   7
HETATM    7  C   UNK     0     169.961 177.745 171.342  0.00  0.00     0.198 C 
BRANCH   7   8
HETATM    8  O   UNK     0     169.307 176.924 172.291  0.00  0.00    -0.398 OA
HETATM    9  H   UNK     0     169.887 176.851 173.069  0.00  0.00     0.209 HD
ENDBRANCH   7   8
ENDBRANCH   5   7
BRANCH   6  10
HETATM   10  O   UNK     0     169.796 182.053 173.240  0.00  0.00    -0.318 OA
BRANCH  10  11
HETATM   11  C   UNK     0     169.941 183.153 172.448  0.00  0.00     0.077 A 
HETATM   12  C   UNK     0     169.449 184.387 172.875  0.00  0.00     0.075 A 
HETATM   13  C   UNK     0     169.598 185.511 172.063  0.00  0.00     0.095 A 
HETATM   14  O   UNK     0     169.094 186.697 172.536  0.00  0.00    -0.309 OA
HETATM   15  C   UNK     0     170.235 185.400 170.828  0.00  0.00     0.081 A 
HETATM   16  C   UNK     0     169.232 187.832 171.752  0.00  0.00     0.090 A 
HETATM   17  C   UNK     0     169.820 187.851 170.546  0.00  0.00     0.094 A 
HETATM   18  C   UNK     0     170.376 186.601 169.991  0.00  0.00     0.190 A 
HETATM   19  O   UNK     0     170.921 186.574 168.896  0.00  0.00    -0.287 OA
HETATM   20  C   UNK     0     170.729 184.165 170.397  0.00  0.00     0.085 A 
HETATM   21  C   UNK     0     170.579 183.043 171.213  0.00  0.00     0.074 A 
BRANCH  16  22
HETATM   22  C   UNK     0     168.651 189.050 172.353  0.00  0.00     0.001 A 
HETATM   23  C   UNK     0     168.567 189.175 173.742  0.00  0.00     0.053 A 
HETATM   24  C   UNK     0     168.018 190.326 174.309  0.00  0.00     0.099 A 
HETATM   25  C   UNK     0     167.552 191.353 173.490  0.00  0.00     0.098 A 
HETATM   26  C   UNK     0     167.636 191.231 172.102  0.00  0.00     0.040 A 
HETATM   27  C   UNK     0     168.184 190.082 171.535  0.00  0.00     0.017 A 
BRANCH  24  28
HETATM   28  O   UNK     0     167.940 190.433 175.665  0.00  0.00    -0.358 OA
HETATM   29  H   UNK     0     167.933 191.378 175.897  0.00  0.00     0.217 HD
ENDBRANCH  24  28
BRANCH  25  30
HETATM   30  O   UNK     0     167.016 192.482 174.031  0.00  0.00    -0.358 OA
HETATM   31  H   UNK     0     166.636 192.267 174.900  0.00  0.00     0.217 HD
ENDBRANCH  25  30
ENDBRANCH  16  22
BRANCH  20  32
HETATM   32  O   UNK     0     171.358 184.005 169.200  0.00  0.00    -0.360 OA
HETATM   33  H   UNK     0     171.485 184.861 168.764  0.00  0.00     0.217 HD
ENDBRANCH  20  32
ENDBRANCH  10  11
ENDBRANCH   6  10
BRANCH   3  34
HETATM   34  O   UNK     0     172.288 177.133 173.061  0.00  0.00    -0.390 OA
HETATM   35  H   UNK     0     172.112 176.856 172.146  0.00  0.00     0.210 HD
ENDBRANCH   3  34
BRANCH   4  36
HETATM   36  O   UNK     0     172.100 181.591 174.819  0.00  0.00    -0.388 OA
HETATM   37  H   UNK     0     171.643 182.431 174.638  0.00  0.00     0.210 HD
ENDBRANCH   4  36
BRANCH   2  38
HETATM   38  O   UNK     0     172.439 178.737 175.462  0.00  0.00    -0.390 OA
HETATM   39  H   UNK     0     171.919 179.239 176.113  0.00  0.00     0.210 HD
ENDBRANCH   2  38
TORSDOF 11
ENDMDL
MODEL 8
REMARK VINA RESULT:      -8.5     34.823     39.430
REMARK  11 active torsions:
REMARK  status: ('A' for Active; 'I' for Inactive)
REMARK    1  A    between atoms: O_2  and  C_16 
REMARK    2  A    between atoms: O_2  and  C_18 
REMARK    3  A    between atoms: O_3  and  C_12 
REMARK    4  A    between atoms: O_4  and  C_13 
REMARK    5  A    between atoms: O_5  and  C_14 
REMARK    6  A    between atoms: O_6  and  C_17 
REMARK    7  A    between atoms: O_8  and  C_23 
REMARK    8  A    between atoms: O_10  and  C_30 
REMARK    9  A    between atoms: O_11  and  C_32 
REMARK   10  A    between atoms: C_15  and  C_17 
REMARK   11  A    between atoms: C_25  and  C_27 
ROOT
HETATM    1  O   UNK     0     157.882 186.952 157.777  0.00  0.00    -0.348 OA
HETATM    2  C   UNK     0     158.135 188.084 160.404  0.00  0.00     0.183 C 
HETATM    3  C   UNK     0     159.340 187.587 159.605  0.00  0.00     0.180 C 
HETATM    4  C   UNK     0     156.841 187.431 159.918  0.00  0.00     0.205 C 
HETATM    5  C   UNK     0     159.070 187.677 158.102  0.00  0.00     0.179 C 
HETATM    6  C   UNK     0     156.720 187.501 158.396  0.00  0.00     0.298 C 
ENDROOT
BRANCH   5   7
HETATM    7  C   UNK     0     160.211 187.077 157.286  0.00  0.00     0.198 C 
BRANCH   7   8
HETATM    8  O   UNK     0     160.754 185.985 158.006  0.00  0.00    -0.398 OA
HETATM    9  H   UNK     0     160.828 186.253 158.938  0.00  0.00     0.209 HD
ENDBRANCH   7   8
ENDBRANCH   5   7
BRANCH   6  10
HETATM   10  O   UNK     0     155.569 186.750 158.011  0.00  0.00    -0.318 OA
BRANCH  10  11
HETATM   11  C   UNK     0     154.554 187.446 157.424  0.00  0.00     0.077 A 
HETATM   12  C   UNK     0     154.640 187.796 156.075  0.00  0.00     0.075 A 
HETATM   13  C   UNK     0     153.601 188.507 155.476  0.00  0.00     0.095 A 
HETATM   14  O   UNK     0     153.742 188.823 154.148  0.00  0.00    -0.309 OA
HETATM   15  C   UNK     0     152.482 188.870 156.225  0.00  0.00     0.081 A 
HETATM   16  C   UNK     0     152.722 189.525 153.525  0.00  0.00     0.090 A 
HETATM   17  C   UNK     0     151.601 189.934 154.139  0.00  0.00     0.094 A 
HETATM   18  C   UNK     0     151.402 189.622 155.568  0.00  0.00     0.190 A 
HETATM   19  O   UNK     0     150.395 189.974 156.165  0.00  0.00    -0.287 OA
HETATM   20  C   UNK     0     152.393 188.522 157.575  0.00  0.00     0.085 A 
HETATM   21  C   UNK     0     153.434 187.809 158.171  0.00  0.00     0.074 A 
BRANCH  16  22
HETATM   22  C   UNK     0     152.978 189.816 152.099  0.00  0.00     0.001 A 
HETATM   23  C   UNK     0     153.263 188.775 151.212  0.00  0.00     0.053 A 
HETATM   24  C   UNK     0     153.504 189.051 149.865  0.00  0.00     0.099 A 
HETATM   25  C   UNK     0     153.461 190.365 149.403  0.00  0.00     0.098 A 
HETATM   26  C   UNK     0     153.176 191.406 150.287  0.00  0.00     0.040 A 
HETATM   27  C   UNK     0     152.935 191.133 151.633  0.00  0.00     0.017 A 
BRANCH  24  28
HETATM   28  O   UNK     0     153.783 188.026 149.011  0.00  0.00    -0.358 OA
HETATM   29  H   UNK     0     153.102 188.012 148.318  0.00  0.00     0.217 HD
ENDBRANCH  24  28
BRANCH  25  30
HETATM   30  O   UNK     0     153.693 190.646 148.091  0.00  0.00    -0.358 OA
HETATM   31  H   UNK     0     154.212 191.467 148.029  0.00  0.00     0.217 HD
ENDBRANCH  25  30
ENDBRANCH  16  22
BRANCH  20  32
HETATM   32  O   UNK     0     151.322 188.852 158.348  0.00  0.00    -0.360 OA
HETATM   33  H   UNK     0     151.530 189.610 158.914  0.00  0.00     0.217 HD
ENDBRANCH  20  32
ENDBRANCH  10  11
ENDBRANCH   6  10
BRANCH   3  34
HETATM   34  O   UNK     0     160.479 188.381 159.927  0.00  0.00    -0.390 OA
HETATM   35  H   UNK     0     161.275 187.857 159.732  0.00  0.00     0.210 HD
ENDBRANCH   3  34
BRANCH   4  36
HETATM   36  O   UNK     0     155.724 188.112 160.488  0.00  0.00    -0.388 OA
HETATM   37  H   UNK     0     155.715 189.020 160.140  0.00  0.00     0.210 HD
ENDBRANCH   4  36
BRANCH   2  38
HETATM   38  O   UNK     0     158.348 187.754 161.778  0.00  0.00    -0.390 OA
HETATM   39  H   UNK     0     158.962 188.415 162.143  0.00  0.00     0.210 HD
ENDBRANCH   2  38
TORSDOF 11
ENDMDL
MODEL 9
REMARK VINA RESULT:      -8.4     36.880     41.705
REMARK  11 active torsions:
REMARK  status: ('A' for Active; 'I' for Inactive)
REMARK    1  A    between atoms: O_2  and  C_16 
REMARK    2  A    between atoms: O_2  and  C_18 
REMARK    3  A    between atoms: O_3  and  C_12 
REMARK    4  A    between atoms: O_4  and  C_13 
REMARK    5  A    between atoms: O_5  and  C_14 
REMARK    6  A    between atoms: O_6  and  C_17 
REMARK    7  A    between atoms: O_8  and  C_23 
REMARK    8  A    between atoms: O_10  and  C_30 
REMARK    9  A    between atoms: O_11  and  C_32 
REMARK   10  A    between atoms: C_15  and  C_17 
REMARK   11  A    between atoms: C_25  and  C_27 
ROOT
HETATM    1  O   UNK     0     153.387 187.956 149.996  0.00  0.00    -0.348 OA
HETATM    2  C   UNK     0     153.382 189.939 147.918  0.00  0.00     0.183 C 
HETATM    3  C   UNK     0     153.206 188.448 147.630  0.00  0.00     0.180 C 
HETATM    4  C   UNK     0     154.080 190.164 149.260  0.00  0.00     0.205 C 
HETATM    5  C   UNK     0     152.588 187.731 148.832  0.00  0.00     0.179 C 
HETATM    6  C   UNK     0     153.435 189.332 150.368  0.00  0.00     0.298 C 
ENDROOT
BRANCH   5   7
HETATM    7  C   UNK     0     152.511 186.224 148.612  0.00  0.00     0.198 C 
BRANCH   7   8
HETATM    8  O   UNK     0     153.471 185.861 147.637  0.00  0.00    -0.398 OA
HETATM    9  H   UNK     0     153.150 186.176 146.774  0.00  0.00     0.209 HD
ENDBRANCH   7   8
ENDBRANCH   5   7
BRANCH   6  10
HETATM   10  O   UNK     0     154.223 189.484 151.548  0.00  0.00    -0.318 OA
BRANCH  10  11
HETATM   11  C   UNK     0     153.579 189.322 152.738  0.00  0.00     0.077 A 
HETATM   12  C   UNK     0     154.228 188.690 153.800  0.00  0.00     0.075 A 
HETATM   13  C   UNK     0     153.568 188.525 155.017  0.00  0.00     0.095 A 
HETATM   14  O   UNK     0     154.256 187.897 156.024  0.00  0.00    -0.309 OA
HETATM   15  C   UNK     0     152.261 188.989 155.170  0.00  0.00     0.081 A 
HETATM   16  C   UNK     0     153.626 187.724 157.246  0.00  0.00     0.090 A 
HETATM   17  C   UNK     0     152.372 188.121 157.513  0.00  0.00     0.094 A 
HETATM   18  C   UNK     0     151.587 188.800 156.463  0.00  0.00     0.190 A 
HETATM   19  O   UNK     0     150.443 189.179 156.665  0.00  0.00    -0.287 OA
HETATM   20  C   UNK     0     151.608 189.622 154.109  0.00  0.00     0.085 A 
HETATM   21  C   UNK     0     152.273 189.786 152.892  0.00  0.00     0.074 A 
BRANCH  16  22
HETATM   22  C   UNK     0     154.454 187.032 158.256  0.00  0.00     0.001 A 
HETATM   23  C   UNK     0     154.705 185.663 158.137  0.00  0.00     0.053 A 
HETATM   24  C   UNK     0     155.489 185.011 159.090  0.00  0.00     0.099 A 
HETATM   25  C   UNK     0     156.022 185.724 160.162  0.00  0.00     0.098 A 
HETATM   26  C   UNK     0     155.773 187.092 160.282  0.00  0.00     0.040 A 
HETATM   27  C   UNK     0     154.991 187.745 159.331  0.00  0.00     0.017 A 
BRANCH  24  28
HETATM   28  O   UNK     0     155.724 183.674 158.963  0.00  0.00    -0.358 OA
HETATM   29  H   UNK     0     156.459 183.551 158.340  0.00  0.00     0.217 HD
ENDBRANCH  24  28
BRANCH  25  30
HETATM   30  O   UNK     0     156.789 185.099 161.098  0.00  0.00    -0.358 OA
HETATM   31  H   UNK     0     156.499 185.377 161.984  0.00  0.00     0.217 HD
ENDBRANCH  25  30
ENDBRANCH  16  22
BRANCH  20  32
HETATM   32  O   UNK     0     150.334 190.092 154.208  0.00  0.00    -0.360 OA
HETATM   33  H   UNK     0     150.054 190.123 155.135  0.00  0.00     0.217 HD
ENDBRANCH  20  32
ENDBRANCH  10  11
ENDBRANCH   6  10
BRANCH   3  34
HETATM   34  O   UNK     0     152.356 188.284 146.496  0.00  0.00    -0.390 OA
HETATM   35  H   UNK     0     151.496 188.686 146.706  0.00  0.00     0.210 HD
ENDBRANCH   3  34
BRANCH   4  36
HETATM   36  O   UNK     0     153.980 191.542 149.619  0.00  0.00    -0.388 OA
HETATM   37  H   UNK     0     153.040 191.750 149.760  0.00  0.00     0.210 HD
ENDBRANCH   4  36
BRANCH   2  38
HETATM   38  O   UNK     0     154.174 190.502 146.870  0.00  0.00    -0.390 OA
HETATM   39  H   UNK     0     155.024 190.769 147.260  0.00  0.00     0.210 HD
ENDBRANCH   2  38
TORSDOF 11
ENDMDL
