MODEL 1
REMARK VINA RESULT:     -10.2      0.000      0.000
REMARK  11 active torsions:
REMARK  status: ('A' for Active; 'I' for Inactive)
REMARK    1  A    between atoms: O_1  and  C_9 
REMARK    2  A    between atoms: O_2  and  C_19 
REMARK    3  A    between atoms: O_3  and  C_26 
REMARK    4  A    between atoms: O_4  and  C_27 
REMARK    5  A    between atoms: O_6  and  C_28 
REMARK    6  A    between atoms: O_7  and  C_32 
REMARK    7  A    between atoms: C_10  and  C_19 
REMARK    8  A    between atoms: C_19  and  C_27 
REMARK    9  A    between atoms: C_27  and  C_30 
REMARK   10  A    between atoms: C_30  and  C_31 
REMARK   11  A    between atoms: C_31  and  C_32 
ROOT
HETATM    1  O   UNK     0      25.150  18.599  24.564  0.00  0.00    -0.384 OA
HETATM    2  H   UNK     0      25.008  17.639  24.496  0.00  0.00     0.211 HD
ENDROOT
BRANCH   1   3
HETATM    3  C   UNK     0      26.472  18.887  24.054  0.00  0.00     0.089 C 
HETATM    4  C   UNK     0      26.890  20.317  24.486  0.00  0.00    -0.002 C 
HETATM    5  C   UNK     0      25.840  21.167  23.725  0.00  0.00     0.034 C 
HETATM    6  C   UNK     0      26.781  20.418  26.018  0.00  0.00     0.014 C 
HETATM    7  C   UNK     0      28.330  20.688  24.039  0.00  0.00     0.019 C 
HETATM    8  C   UNK     0      25.719  20.461  22.355  0.00  0.00     0.012 C 
HETATM    9  C   UNK     0      26.303  19.043  22.535  0.00  0.00     0.044 C 
HETATM   10  C   UNK     0      27.684  19.380  26.704  0.00  0.00     0.011 C 
HETATM   11  C   UNK     0      27.529  17.918  26.182  0.00  0.00     0.027 C 
HETATM   12  C   UNK     0      28.643  16.955  26.753  0.00  0.00    -0.023 C 
HETATM   13  C   UNK     0      27.379  17.834  24.655  0.00  0.00    -0.037 C 
HETATM   14  C   UNK     0      28.561  15.570  26.050  0.00  0.00     0.071 C 
HETATM   15  C   UNK     0      28.485  16.740  28.285  0.00  0.00     0.044 C 
HETATM   16  C   UNK     0      30.067  17.528  26.521  0.00  0.00     0.016 C 
HETATM   17  C   UNK     0      27.314  14.757  26.438  0.00  0.00     0.047 C 
HETATM   18  C   UNK     0      28.620  15.717  24.542  0.00  0.00     0.154 C 
HETATM   19  C   UNK     0      27.204  14.577  27.951  0.00  0.00     0.147 C 
HETATM   20  C   UNK     0      27.243  15.927  28.667  0.00  0.00     0.147 C 
HETATM   21  O   UNK     0      29.174  14.879  23.832  0.00  0.00    -0.293 OA
HETATM   22  C   UNK     0      27.919  16.858  23.911  0.00  0.00     0.057 C 
BRANCH   5  23
HETATM   23  C   UNK     0      26.132  22.657  23.598  0.00  0.00     0.084 C 
HETATM   24  C   UNK     0      27.417  23.003  24.370  0.00  0.00     0.049 C 
BRANCH  23  25
HETATM   25  O   UNK     0      26.369  22.956  22.216  0.00  0.00    -0.387 OA
HETATM   26  H   UNK     0      27.160  23.516  22.146  0.00  0.00     0.210 HD
ENDBRANCH  23  25
BRANCH  23  27
HETATM   27  C   UNK     0      24.946  23.532  24.086  0.00  0.00     0.152 C 
BRANCH  27  28
HETATM   28  O   UNK     0      23.785  23.249  23.297  0.00  0.00    -0.393 OA
HETATM   29  H   UNK     0      23.047  23.095  23.912  0.00  0.00     0.210 HD
ENDBRANCH  27  28
BRANCH  27  30
HETATM   30  C   UNK     0      25.213  25.048  24.029  0.00  0.00     0.037 C 
BRANCH  30  31
HETATM   31  C   UNK     0      24.150  25.851  24.803  0.00  0.00     0.040 C 
BRANCH  31  32
HETATM   32  C   UNK     0      24.645  26.451  26.135  0.00  0.00     0.051 C 
HETATM   33  C   UNK     0      23.615  27.459  26.657  0.00  0.00     0.045 C 
HETATM   34  C   UNK     0      24.913  25.383  27.197  0.00  0.00     0.045 C 
BRANCH  32  35
HETATM   35  O   UNK     0      25.862  27.157  25.885  0.00  0.00    -0.391 OA
HETATM   36  H   UNK     0      25.963  27.248  24.923  0.00  0.00     0.210 HD
ENDBRANCH  32  35
ENDBRANCH  31  32
ENDBRANCH  30  31
ENDBRANCH  27  30
ENDBRANCH  23  27
ENDBRANCH   5  23
BRANCH  19  37
HETATM   37  O   UNK     0      28.293  13.771  28.407  0.00  0.00    -0.393 OA
HETATM   38  H   UNK     0      28.946  14.364  28.813  0.00  0.00     0.210 HD
ENDBRANCH  19  37
BRANCH  20  39
HETATM   39  O   UNK     0      27.230  15.706  30.075  0.00  0.00    -0.393 OA
HETATM   40  H   UNK     0      27.990  16.182  30.453  0.00  0.00     0.210 HD
ENDBRANCH  20  39
ENDBRANCH   1   3
TORSDOF 11
ENDMDL
MODEL 2
REMARK VINA RESULT:      -9.2      1.940      3.378
REMARK  11 active torsions:
REMARK  status: ('A' for Active; 'I' for Inactive)
REMARK    1  A    between atoms: O_1  and  C_9 
REMARK    2  A    between atoms: O_2  and  C_19 
REMARK    3  A    between atoms: O_3  and  C_26 
REMARK    4  A    between atoms: O_4  and  C_27 
REMARK    5  A    between atoms: O_6  and  C_28 
REMARK    6  A    between atoms: O_7  and  C_32 
REMARK    7  A    between atoms: C_10  and  C_19 
REMARK    8  A    between atoms: C_19  and  C_27 
REMARK    9  A    between atoms: C_27  and  C_30 
REMARK   10  A    between atoms: C_30  and  C_31 
REMARK   11  A    between atoms: C_31  and  C_32 
ROOT
HETATM    1  O   UNK     0      29.495  18.099  23.217  0.00  0.00    -0.384 OA
HETATM    2  H   UNK     0      30.422  17.820  23.313  0.00  0.00     0.211 HD
ENDROOT
BRANCH   1   3
HETATM    3  C   UNK     0      29.018  18.506  24.520  0.00  0.00     0.089 C 
HETATM    4  C   UNK     0      27.519  18.893  24.421  0.00  0.00    -0.002 C 
HETATM    5  C   UNK     0      27.600  20.126  23.486  0.00  0.00     0.034 C 
HETATM    6  C   UNK     0      26.745  17.705  23.822  0.00  0.00     0.014 C 
HETATM    7  C   UNK     0      26.903  19.279  25.793  0.00  0.00     0.019 C 
HETATM    8  C   UNK     0      28.862  20.874  23.972  0.00  0.00     0.012 C 
HETATM    9  C   UNK     0      29.686  19.862  24.798  0.00  0.00     0.044 C 
HETATM   10  C   UNK     0      26.905  16.447  24.691  0.00  0.00     0.011 C 
HETATM   11  C   UNK     0      28.375  16.083  25.066  0.00  0.00     0.027 C 
HETATM   12  C   UNK     0      28.452  14.934  26.147  0.00  0.00    -0.023 C 
HETATM   13  C   UNK     0      29.229  17.310  25.422  0.00  0.00    -0.037 C 
HETATM   14  C   UNK     0      29.919  14.752  26.627  0.00  0.00     0.071 C 
HETATM   15  C   UNK     0      27.946  13.578  25.579  0.00  0.00     0.044 C 
HETATM   16  C   UNK     0      27.577  15.259  27.389  0.00  0.00     0.016 C 
HETATM   17  C   UNK     0      30.844  14.143  25.559  0.00  0.00     0.047 C 
HETATM   18  C   UNK     0      30.504  16.064  27.114  0.00  0.00     0.154 C 
HETATM   19  C   UNK     0      30.302  12.815  25.032  0.00  0.00     0.147 C 
HETATM   20  C   UNK     0      28.871  12.973  24.517  0.00  0.00     0.147 C 
HETATM   21  O   UNK     0      31.304  16.109  28.047  0.00  0.00    -0.293 OA
HETATM   22  C   UNK     0      30.161  17.308  26.388  0.00  0.00     0.057 C 
BRANCH   5  23
HETATM   23  C   UNK     0      26.367  21.021  23.432  0.00  0.00     0.084 C 
HETATM   24  C   UNK     0      26.133  21.499  21.989  0.00  0.00     0.049 C 
BRANCH  23  25
HETATM   25  O   UNK     0      25.226  20.244  23.816  0.00  0.00    -0.387 OA
HETATM   26  H   UNK     0      25.314  19.351  23.444  0.00  0.00     0.210 HD
ENDBRANCH  23  25
BRANCH  23  27
HETATM   27  C   UNK     0      26.477  22.231  24.399  0.00  0.00     0.152 C 
BRANCH  27  28
HETATM   28  O   UNK     0      25.379  22.213  25.316  0.00  0.00    -0.393 OA
HETATM   29  H   UNK     0      24.573  22.031  24.801  0.00  0.00     0.210 HD
ENDBRANCH  27  28
BRANCH  27  30
HETATM   30  C   UNK     0      26.499  23.602  23.697  0.00  0.00     0.037 C 
BRANCH  30  31
HETATM   31  C   UNK     0      27.343  24.633  24.470  0.00  0.00     0.040 C 
BRANCH  31  32
HETATM   32  C   UNK     0      26.521  25.638  25.304  0.00  0.00     0.051 C 
HETATM   33  C   UNK     0      25.095  25.720  24.747  0.00  0.00     0.045 C 
HETATM   34  C   UNK     0      26.480  25.273  26.789  0.00  0.00     0.045 C 
BRANCH  32  35
HETATM   35  O   UNK     0      27.119  26.929  25.170  0.00  0.00    -0.391 OA
HETATM   36  H   UNK     0      26.444  27.536  24.822  0.00  0.00     0.210 HD
ENDBRANCH  32  35
ENDBRANCH  31  32
ENDBRANCH  30  31
ENDBRANCH  27  30
ENDBRANCH  23  27
ENDBRANCH   5  23
BRANCH  19  37
HETATM   37  O   UNK     0      30.319  11.852  26.087  0.00  0.00    -0.393 OA
HETATM   38  H   UNK     0      30.924  11.138  25.823  0.00  0.00     0.210 HD
ENDBRANCH  19  37
BRANCH  20  39
HETATM   39  O   UNK     0      28.377  11.696  24.122  0.00  0.00    -0.393 OA
HETATM   40  H   UNK     0      28.228  11.724  23.161  0.00  0.00     0.210 HD
ENDBRANCH  20  39
ENDBRANCH   1   3
TORSDOF 11
ENDMDL
MODEL 3
REMARK VINA RESULT:      -9.0      1.437      1.985
REMARK  11 active torsions:
REMARK  status: ('A' for Active; 'I' for Inactive)
REMARK    1  A    between atoms: O_1  and  C_9 
REMARK    2  A    between atoms: O_2  and  C_19 
REMARK    3  A    between atoms: O_3  and  C_26 
REMARK    4  A    between atoms: O_4  and  C_27 
REMARK    5  A    between atoms: O_6  and  C_28 
REMARK    6  A    between atoms: O_7  and  C_32 
REMARK    7  A    between atoms: C_10  and  C_19 
REMARK    8  A    between atoms: C_19  and  C_27 
REMARK    9  A    between atoms: C_27  and  C_30 
REMARK   10  A    between atoms: C_30  and  C_31 
REMARK   11  A    between atoms: C_31  and  C_32 
ROOT
HETATM    1  O   UNK     0      25.730  16.858  24.652  0.00  0.00    -0.384 OA
HETATM    2  H   UNK     0      25.226  17.651  24.905  0.00  0.00     0.211 HD
ENDROOT
BRANCH   1   3
HETATM    3  C   UNK     0      27.012  17.292  24.145  0.00  0.00     0.089 C 
HETATM    4  C   UNK     0      27.067  18.842  24.143  0.00  0.00    -0.002 C 
HETATM    5  C   UNK     0      25.958  19.169  23.110  0.00  0.00     0.034 C 
HETATM    6  C   UNK     0      26.761  19.345  25.565  0.00  0.00     0.014 C 
HETATM    7  C   UNK     0      28.439  19.399  23.676  0.00  0.00     0.019 C 
HETATM    8  C   UNK     0      26.150  18.096  22.013  0.00  0.00     0.012 C 
HETATM    9  C   UNK     0      26.993  16.966  22.644  0.00  0.00     0.044 C 
HETATM   10  C   UNK     0      27.775  18.788  26.577  0.00  0.00     0.011 C 
HETATM   11  C   UNK     0      27.993  17.244  26.516  0.00  0.00     0.027 C 
HETATM   12  C   UNK     0      29.210  16.773  27.405  0.00  0.00    -0.023 C 
HETATM   13  C   UNK     0      28.043  16.698  25.081  0.00  0.00    -0.037 C 
HETATM   14  C   UNK     0      29.503  15.267  27.152  0.00  0.00     0.071 C 
HETATM   15  C   UNK     0      28.922  16.971  28.921  0.00  0.00     0.044 C 
HETATM   16  C   UNK     0      30.499  17.576  27.080  0.00  0.00     0.016 C 
HETATM   17  C   UNK     0      28.418  14.328  27.706  0.00  0.00     0.047 C 
HETATM   18  C   UNK     0      29.706  14.990  25.675  0.00  0.00     0.154 C 
HETATM   19  C   UNK     0      28.173  14.564  29.196  0.00  0.00     0.147 C 
HETATM   20  C   UNK     0      27.843  16.032  29.470  0.00  0.00     0.147 C 
HETATM   21  O   UNK     0      30.503  14.139  25.281  0.00  0.00    -0.293 OA
HETATM   22  C   UNK     0      28.860  15.706  24.694  0.00  0.00     0.057 C 
BRANCH   5  23
HETATM   23  C   UNK     0      25.944  20.587  22.552  0.00  0.00     0.084 C 
HETATM   24  C   UNK     0      27.356  20.977  22.084  0.00  0.00     0.049 C 
BRANCH  23  25
HETATM   25  O   UNK     0      25.090  20.613  21.401  0.00  0.00    -0.387 OA
HETATM   26  H   UNK     0      25.321  21.381  20.854  0.00  0.00     0.210 HD
ENDBRANCH  23  25
BRANCH  23  27
HETATM   27  C   UNK     0      25.402  21.617  23.580  0.00  0.00     0.152 C 
BRANCH  27  28
HETATM   28  O   UNK     0      24.268  22.294  23.028  0.00  0.00    -0.393 OA
HETATM   29  H   UNK     0      23.951  22.924  23.699  0.00  0.00     0.210 HD
ENDBRANCH  27  28
BRANCH  27  30
HETATM   30  C   UNK     0      26.433  22.676  24.017  0.00  0.00     0.037 C 
BRANCH  30  31
HETATM   31  C   UNK     0      25.815  23.730  24.955  0.00  0.00     0.040 C 
BRANCH  31  32
HETATM   32  C   UNK     0      25.752  25.154  24.364  0.00  0.00     0.051 C 
HETATM   33  C   UNK     0      24.420  25.810  24.746  0.00  0.00     0.045 C 
HETATM   34  C   UNK     0      26.917  26.033  24.824  0.00  0.00     0.045 C 
BRANCH  32  35
HETATM   35  O   UNK     0      25.797  25.052  22.939  0.00  0.00    -0.391 OA
HETATM   36  H   UNK     0      26.726  24.939  22.677  0.00  0.00     0.210 HD
ENDBRANCH  32  35
ENDBRANCH  31  32
ENDBRANCH  30  31
ENDBRANCH  27  30
ENDBRANCH  23  27
ENDBRANCH   5  23
BRANCH  19  37
HETATM   37  O   UNK     0      29.345  14.200  29.927  0.00  0.00    -0.393 OA
HETATM   38  H   UNK     0      29.056  13.813  30.770  0.00  0.00     0.210 HD
ENDBRANCH  19  37
BRANCH  20  39
HETATM   39  O   UNK     0      27.712  16.223  30.876  0.00  0.00    -0.393 OA
HETATM   40  H   UNK     0      28.040  17.116  31.082  0.00  0.00     0.210 HD
ENDBRANCH  20  39
ENDBRANCH   1   3
TORSDOF 11
ENDMDL
MODEL 4
REMARK VINA RESULT:      -8.7     32.432     35.515
REMARK  11 active torsions:
REMARK  status: ('A' for Active; 'I' for Inactive)
REMARK    1  A    between atoms: O_1  and  C_9 
REMARK    2  A    between atoms: O_2  and  C_19 
REMARK    3  A    between atoms: O_3  and  C_26 
REMARK    4  A    between atoms: O_4  and  C_27 
REMARK    5  A    between atoms: O_6  and  C_28 
REMARK    6  A    between atoms: O_7  and  C_32 
REMARK    7  A    between atoms: C_10  and  C_19 
REMARK    8  A    between atoms: C_19  and  C_27 
REMARK    9  A    between atoms: C_27  and  C_30 
REMARK   10  A    between atoms: C_30  and  C_31 
REMARK   11  A    between atoms: C_31  and  C_32 
ROOT
HETATM    1  O   UNK     0      -1.862  10.112   5.474  0.00  0.00    -0.384 OA
HETATM    2  H   UNK     0      -1.962   9.270   4.997  0.00  0.00     0.211 HD
ENDROOT
BRANCH   1   3
HETATM    3  C   UNK     0      -0.952   9.890   6.575  0.00  0.00     0.089 C 
HETATM    4  C   UNK     0       0.444   9.504   6.019  0.00  0.00    -0.002 C 
HETATM    5  C   UNK     0       0.118   8.154   5.331  0.00  0.00     0.034 C 
HETATM    6  C   UNK     0       0.905  10.604   5.046  0.00  0.00     0.014 C 
HETATM    7  C   UNK     0       1.508   9.314   7.134  0.00  0.00     0.019 C 
HETATM    8  C   UNK     0      -0.864   7.470   6.310  0.00  0.00     0.012 C 
HETATM    9  C   UNK     0      -1.412   8.581   7.233  0.00  0.00     0.044 C 
HETATM   10  C   UNK     0       0.982  11.968   5.752  0.00  0.00     0.011 C 
HETATM   11  C   UNK     0      -0.291  12.370   6.559  0.00  0.00     0.027 C 
HETATM   12  C   UNK     0      -0.059  13.655   7.447  0.00  0.00    -0.023 C 
HETATM   13  C   UNK     0      -0.908  11.197   7.337  0.00  0.00    -0.037 C 
HETATM   14  C   UNK     0      -1.286  13.890   8.374  0.00  0.00     0.071 C 
HETATM   15  C   UNK     0       0.151  14.925   6.574  0.00  0.00     0.044 C 
HETATM   16  C   UNK     0       1.200  13.509   8.344  0.00  0.00     0.016 C 
HETATM   17  C   UNK     0      -2.548  14.341   7.619  0.00  0.00     0.047 C 
HETATM   18  C   UNK     0      -1.600  12.653   9.192  0.00  0.00     0.154 C 
HETATM   19  C   UNK     0      -2.289  15.589   6.776  0.00  0.00     0.147 C 
HETATM   20  C   UNK     0      -1.110  15.372   5.826  0.00  0.00     0.147 C 
HETATM   21  O   UNK     0      -2.034  12.731  10.340  0.00  0.00    -0.293 OA
HETATM   22  C   UNK     0      -1.457  11.325   8.555  0.00  0.00     0.057 C 
BRANCH   5  23
HETATM   23  C   UNK     0       1.305   7.269   4.971  0.00  0.00     0.084 C 
HETATM   24  C   UNK     0       1.079   6.631   3.590  0.00  0.00     0.049 C 
BRANCH  23  25
HETATM   25  O   UNK     0       2.473   8.094   4.876  0.00  0.00    -0.387 OA
HETATM   26  H   UNK     0       2.213   9.023   4.994  0.00  0.00     0.210 HD
ENDBRANCH  23  25
BRANCH  23  27
HETATM   27  C   UNK     0       1.569   6.177   6.044  0.00  0.00     0.152 C 
BRANCH  27  28
HETATM   28  O   UNK     0       2.928   6.261   6.488  0.00  0.00    -0.393 OA
HETATM   29  H   UNK     0       3.055   5.572   7.164  0.00  0.00     0.210 HD
ENDBRANCH  27  28
BRANCH  27  30
HETATM   30  C   UNK     0       1.305   4.738   5.560  0.00  0.00     0.037 C 
BRANCH  30  31
HETATM   31  C   UNK     0       0.182   4.056   6.364  0.00  0.00     0.040 C 
BRANCH  31  32
HETATM   32  C   UNK     0      -0.072   2.583   5.984  0.00  0.00     0.051 C 
HETATM   33  C   UNK     0      -1.286   2.495   5.053  0.00  0.00     0.045 C 
HETATM   34  C   UNK     0       1.142   1.930   5.321  0.00  0.00     0.045 C 
BRANCH  32  35
HETATM   35  O   UNK     0      -0.381   1.858   7.177  0.00  0.00    -0.391 OA
HETATM   36  H   UNK     0      -0.070   2.382   7.934  0.00  0.00     0.210 HD
ENDBRANCH  32  35
ENDBRANCH  31  32
ENDBRANCH  30  31
ENDBRANCH  27  30
ENDBRANCH  23  27
ENDBRANCH   5  23
BRANCH  19  37
HETATM   37  O   UNK     0      -1.999  16.687   7.643  0.00  0.00    -0.393 OA
HETATM   38  H   UNK     0      -1.137  16.515   8.057  0.00  0.00     0.210 HD
ENDBRANCH  19  37
BRANCH  20  39
HETATM   39  O   UNK     0      -0.847  16.587   5.128  0.00  0.00    -0.393 OA
HETATM   40  H   UNK     0      -0.667  17.273   5.794  0.00  0.00     0.210 HD
ENDBRANCH  20  39
ENDBRANCH   1   3
TORSDOF 11
ENDMDL
MODEL 5
REMARK VINA RESULT:      -8.6     24.168     26.702
REMARK  11 active torsions:
REMARK  status: ('A' for Active; 'I' for Inactive)
REMARK    1  A    between atoms: O_1  and  C_9 
REMARK    2  A    between atoms: O_2  and  C_19 
REMARK    3  A    between atoms: O_3  and  C_26 
REMARK    4  A    between atoms: O_4  and  C_27 
REMARK    5  A    between atoms: O_6  and  C_28 
REMARK    6  A    between atoms: O_7  and  C_32 
REMARK    7  A    between atoms: C_10  and  C_19 
REMARK    8  A    between atoms: C_19  and  C_27 
REMARK    9  A    between atoms: C_27  and  C_30 
REMARK   10  A    between atoms: C_30  and  C_31 
REMARK   11  A    between atoms: C_31  and  C_32 
ROOT
HETATM    1  O   UNK     0      22.401  43.543  12.276  0.00  0.00    -0.384 OA
HETATM    2  H   UNK     0      21.767  44.210  12.593  0.00  0.00     0.211 HD
ENDROOT
BRANCH   1   3
HETATM    3  C   UNK     0      22.363  42.426  13.194  0.00  0.00     0.089 C 
HETATM    4  C   UNK     0      23.236  41.272  12.637  0.00  0.00    -0.002 C 
HETATM    5  C   UNK     0      22.454  40.914  11.348  0.00  0.00     0.034 C 
HETATM    6  C   UNK     0      24.654  41.811  12.376  0.00  0.00     0.014 C 
HETATM    7  C   UNK     0      23.309  40.052  13.595  0.00  0.00     0.019 C 
HETATM    8  C   UNK     0      20.972  41.017  11.776  0.00  0.00     0.012 C 
HETATM    9  C   UNK     0      20.945  41.846  13.079  0.00  0.00     0.044 C 
HETATM   10  C   UNK     0      25.280  42.364  13.667  0.00  0.00     0.011 C 
HETATM   11  C   UNK     0      24.387  43.369  14.460  0.00  0.00     0.027 C 
HETATM   12  C   UNK     0      24.982  43.708  15.883  0.00  0.00    -0.023 C 
HETATM   13  C   UNK     0      22.907  42.957  14.504  0.00  0.00    -0.037 C 
HETATM   14  C   UNK     0      23.961  44.549  16.700  0.00  0.00     0.071 C 
HETATM   15  C   UNK     0      26.307  44.514  15.772  0.00  0.00     0.044 C 
HETATM   16  C   UNK     0      25.301  42.421  16.690  0.00  0.00     0.016 C 
HETATM   17  C   UNK     0      23.775  45.980  16.166  0.00  0.00     0.047 C 
HETATM   18  C   UNK     0      22.613  43.857  16.771  0.00  0.00     0.154 C 
HETATM   19  C   UNK     0      25.105  46.726  16.074  0.00  0.00     0.147 C 
HETATM   20  C   UNK     0      26.118  45.940  15.242  0.00  0.00     0.147 C 
HETATM   21  O   UNK     0      21.897  43.937  17.768  0.00  0.00    -0.293 OA
HETATM   22  C   UNK     0      22.120  43.137  15.575  0.00  0.00     0.057 C 
BRANCH   5  23
HETATM   23  C   UNK     0      22.788  39.578  10.696  0.00  0.00     0.084 C 
HETATM   24  C   UNK     0      23.976  38.926  11.424  0.00  0.00     0.049 C 
BRANCH  23  25
HETATM   25  O   UNK     0      21.662  38.705  10.848  0.00  0.00    -0.387 OA
HETATM   26  H   UNK     0      21.218  38.611   9.990  0.00  0.00     0.210 HD
ENDBRANCH  23  25
BRANCH  23  27
HETATM   27  C   UNK     0      23.087  39.723   9.179  0.00  0.00     0.152 C 
BRANCH  27  28
HETATM   28  O   UNK     0      23.280  38.427   8.603  0.00  0.00    -0.393 OA
HETATM   29  H   UNK     0      22.781  37.791   9.144  0.00  0.00     0.210 HD
ENDBRANCH  27  28
BRANCH  27  30
HETATM   30  C   UNK     0      24.323  40.585   8.857  0.00  0.00     0.037 C 
BRANCH  30  31
HETATM   31  C   UNK     0      25.358  39.819   8.012  0.00  0.00     0.040 C 
BRANCH  31  32
HETATM   32  C   UNK     0      26.789  39.831   8.586  0.00  0.00     0.051 C 
HETATM   33  C   UNK     0      27.746  40.459   7.567  0.00  0.00     0.045 C 
HETATM   34  C   UNK     0      26.881  40.580   9.917  0.00  0.00     0.045 C 
BRANCH  32  35
HETATM   35  O   UNK     0      27.200  38.478   8.798  0.00  0.00    -0.391 OA
HETATM   36  H   UNK     0      26.507  37.897   8.444  0.00  0.00     0.210 HD
ENDBRANCH  32  35
ENDBRANCH  31  32
ENDBRANCH  30  31
ENDBRANCH  27  30
ENDBRANCH  23  27
ENDBRANCH   5  23
BRANCH  19  37
HETATM   37  O   UNK     0      25.625  46.919  17.391  0.00  0.00    -0.393 OA
HETATM   38  H   UNK     0      26.593  46.842  17.338  0.00  0.00     0.210 HD
ENDBRANCH  19  37
BRANCH  20  39
HETATM   39  O   UNK     0      27.367  46.627  15.260  0.00  0.00    -0.393 OA
HETATM   40  H   UNK     0      27.853  46.371  14.457  0.00  0.00     0.210 HD
ENDBRANCH  20  39
ENDBRANCH   1   3
TORSDOF 11
ENDMDL
MODEL 6
REMARK VINA RESULT:      -8.6      2.110      3.764
REMARK  11 active torsions:
REMARK  status: ('A' for Active; 'I' for Inactive)
REMARK    1  A    between atoms: O_1  and  C_9 
REMARK    2  A    between atoms: O_2  and  C_19 
REMARK    3  A    between atoms: O_3  and  C_26 
REMARK    4  A    between atoms: O_4  and  C_27 
REMARK    5  A    between atoms: O_6  and  C_28 
REMARK    6  A    between atoms: O_7  and  C_32 
REMARK    7  A    between atoms: C_10  and  C_19 
REMARK    8  A    between atoms: C_19  and  C_27 
REMARK    9  A    between atoms: C_27  and  C_30 
REMARK   10  A    between atoms: C_30  and  C_31 
REMARK   11  A    between atoms: C_31  and  C_32 
ROOT
HETATM    1  O   UNK     0      29.050  18.072  27.913  0.00  0.00    -0.384 OA
HETATM    2  H   UNK     0      29.210  19.026  27.808  0.00  0.00     0.211 HD
ENDROOT
BRANCH   1   3
HETATM    3  C   UNK     0      27.924  17.719  27.078  0.00  0.00     0.089 C 
HETATM    4  C   UNK     0      28.018  18.488  25.734  0.00  0.00    -0.002 C 
HETATM    5  C   UNK     0      27.865  19.950  26.227  0.00  0.00     0.034 C 
HETATM    6  C   UNK     0      29.384  18.187  25.092  0.00  0.00     0.014 C 
HETATM    7  C   UNK     0      26.882  18.117  24.743  0.00  0.00     0.019 C 
HETATM    8  C   UNK     0      26.782  19.856  27.326  0.00  0.00     0.012 C 
HETATM    9  C   UNK     0      26.700  18.370  27.740  0.00  0.00     0.044 C 
HETATM   10  C   UNK     0      29.557  16.679  24.845  0.00  0.00     0.011 C 
HETATM   11  C   UNK     0      29.252  15.767  26.073  0.00  0.00     0.027 C 
HETATM   12  C   UNK     0      29.213  14.235  25.689  0.00  0.00    -0.023 C 
HETATM   13  C   UNK     0      28.022  16.222  26.873  0.00  0.00    -0.037 C 
HETATM   14  C   UNK     0      28.713  13.395  26.897  0.00  0.00     0.071 C 
HETATM   15  C   UNK     0      30.619  13.713  25.274  0.00  0.00     0.044 C 
HETATM   16  C   UNK     0      28.261  13.971  24.491  0.00  0.00     0.016 C 
HETATM   17  C   UNK     0      29.719  13.330  28.060  0.00  0.00     0.047 C 
HETATM   18  C   UNK     0      27.382  13.912  27.410  0.00  0.00     0.154 C 
HETATM   19  C   UNK     0      31.081  12.814  27.600  0.00  0.00     0.147 C 
HETATM   20  C   UNK     0      31.617  13.647  26.435  0.00  0.00     0.147 C 
HETATM   21  O   UNK     0      26.526  13.154  27.864  0.00  0.00    -0.293 OA
HETATM   22  C   UNK     0      27.149  15.373  27.437  0.00  0.00     0.057 C 
BRANCH   5  23
HETATM   23  C   UNK     0      27.542  20.996  25.167  0.00  0.00     0.084 C 
HETATM   24  C   UNK     0      28.841  21.646  24.662  0.00  0.00     0.049 C 
BRANCH  23  25
HETATM   25  O   UNK     0      26.932  20.335  24.050  0.00  0.00    -0.387 OA
HETATM   26  H   UNK     0      26.110  19.909  24.346  0.00  0.00     0.210 HD
ENDBRANCH  23  25
BRANCH  23  27
HETATM   27  C   UNK     0      26.555  22.075  25.688  0.00  0.00     0.152 C 
BRANCH  27  28
HETATM   28  O   UNK     0      25.353  22.042  24.911  0.00  0.00    -0.393 OA
HETATM   29  H   UNK     0      25.363  21.216  24.396  0.00  0.00     0.210 HD
ENDBRANCH  27  28
BRANCH  27  30
HETATM   30  C   UNK     0      27.113  23.511  25.657  0.00  0.00     0.037 C 
BRANCH  30  31
HETATM   31  C   UNK     0      26.089  24.540  26.171  0.00  0.00     0.040 C 
BRANCH  31  32
HETATM   32  C   UNK     0      25.813  25.708  25.202  0.00  0.00     0.051 C 
HETATM   33  C   UNK     0      26.359  25.361  23.812  0.00  0.00     0.045 C 
HETATM   34  C   UNK     0      24.325  26.052  25.105  0.00  0.00     0.045 C 
BRANCH  32  35
HETATM   35  O   UNK     0      26.515  26.860  25.673  0.00  0.00    -0.391 OA
HETATM   36  H   UNK     0      25.913  27.620  25.618  0.00  0.00     0.210 HD
ENDBRANCH  32  35
ENDBRANCH  31  32
ENDBRANCH  30  31
ENDBRANCH  27  30
ENDBRANCH  23  27
ENDBRANCH   5  23
BRANCH  19  37
HETATM   37  O   UNK     0      30.951  11.453  27.185  0.00  0.00    -0.393 OA
HETATM   38  H   UNK     0      31.842  11.066  27.166  0.00  0.00     0.210 HD
ENDBRANCH  19  37
BRANCH  20  39
HETATM   39  O   UNK     0      32.842  13.076  25.981  0.00  0.00    -0.393 OA
HETATM   40  H   UNK     0      33.122  12.421  26.643  0.00  0.00     0.210 HD
ENDBRANCH  20  39
ENDBRANCH   1   3
TORSDOF 11
ENDMDL
MODEL 7
REMARK VINA RESULT:      -8.6     15.119     17.697
REMARK  11 active torsions:
REMARK  status: ('A' for Active; 'I' for Inactive)
REMARK    1  A    between atoms: O_1  and  C_9 
REMARK    2  A    between atoms: O_2  and  C_19 
REMARK    3  A    between atoms: O_3  and  C_26 
REMARK    4  A    between atoms: O_4  and  C_27 
REMARK    5  A    between atoms: O_6  and  C_28 
REMARK    6  A    between atoms: O_7  and  C_32 
REMARK    7  A    between atoms: C_10  and  C_19 
REMARK    8  A    between atoms: C_19  and  C_27 
REMARK    9  A    between atoms: C_27  and  C_30 
REMARK   10  A    between atoms: C_30  and  C_31 
REMARK   11  A    between atoms: C_31  and  C_32 
ROOT
HETATM    1  O   UNK     0      19.067  23.538   8.064  0.00  0.00    -0.384 OA
HETATM    2  H   UNK     0      18.416  22.823   7.960  0.00  0.00     0.211 HD
ENDROOT
BRANCH   1   3
HETATM    3  C   UNK     0      20.317  23.084   7.495  0.00  0.00     0.089 C 
HETATM    4  C   UNK     0      21.480  23.941   8.058  0.00  0.00    -0.002 C 
HETATM    5  C   UNK     0      21.119  25.334   7.480  0.00  0.00     0.034 C 
HETATM    6  C   UNK     0      21.439  23.874   9.595  0.00  0.00     0.014 C 
HETATM    7  C   UNK     0      22.873  23.477   7.552  0.00  0.00     0.019 C 
HETATM    8  C   UNK     0      20.623  25.021   6.050  0.00  0.00     0.012 C 
HETATM    9  C   UNK     0      20.279  23.516   6.021  0.00  0.00     0.044 C 
HETATM   10  C   UNK     0      21.572  22.424  10.088  0.00  0.00     0.011 C 
HETATM   11  C   UNK     0      20.605  21.403   9.412  0.00  0.00     0.027 C 
HETATM   12  C   UNK     0      20.954  19.908   9.783  0.00  0.00    -0.023 C 
HETATM   13  C   UNK     0      20.445  21.632   7.901  0.00  0.00    -0.037 C 
HETATM   14  C   UNK     0      20.093  18.933   8.932  0.00  0.00     0.071 C 
HETATM   15  C   UNK     0      20.691  19.615  11.288  0.00  0.00     0.044 C 
HETATM   16  C   UNK     0      22.450  19.588   9.515  0.00  0.00     0.016 C 
HETATM   17  C   UNK     0      18.602  18.937   9.314  0.00  0.00     0.047 C 
HETATM   18  C   UNK     0      20.236  19.225   7.451  0.00  0.00     0.154 C 
HETATM   19  C   UNK     0      18.398  18.646  10.800  0.00  0.00     0.147 C 
HETATM   20  C   UNK     0      19.205  19.617  11.663  0.00  0.00     0.147 C 
HETATM   21  O   UNK     0      20.209  18.328   6.610  0.00  0.00    -0.293 OA
HETATM   22  C   UNK     0      20.327  20.635   7.010  0.00  0.00     0.057 C 
BRANCH   5  23
HETATM   23  C   UNK     0      22.219  26.388   7.506  0.00  0.00     0.084 C 
HETATM   24  C   UNK     0      23.569  25.724   7.826  0.00  0.00     0.049 C 
BRANCH  23  25
HETATM   25  O   UNK     0      22.325  26.964   6.198  0.00  0.00    -0.387 OA
HETATM   26  H   UNK     0      21.455  27.305   5.932  0.00  0.00     0.210 HD
ENDBRANCH  23  25
BRANCH  23  27
HETATM   27  C   UNK     0      21.916  27.529   8.515  0.00  0.00     0.152 C 
BRANCH  27  28
HETATM   28  O   UNK     0      22.130  28.796   7.884  0.00  0.00    -0.393 OA
HETATM   29  H   UNK     0      21.547  29.441   8.321  0.00  0.00     0.210 HD
ENDBRANCH  27  28
BRANCH  27  30
HETATM   30  C   UNK     0      22.763  27.478   9.801  0.00  0.00     0.037 C 
BRANCH  30  31
HETATM   31  C   UNK     0      21.947  27.875  11.046  0.00  0.00     0.040 C 
BRANCH  31  32
HETATM   32  C   UNK     0      22.239  27.025  12.300  0.00  0.00     0.051 C 
HETATM   33  C   UNK     0      20.949  26.342  12.768  0.00  0.00     0.045 C 
HETATM   34  C   UNK     0      23.326  25.976  12.057  0.00  0.00     0.045 C 
BRANCH  32  35
HETATM   35  O   UNK     0      22.676  27.898  13.343  0.00  0.00    -0.391 OA
HETATM   36  H   UNK     0      22.172  28.726  13.271  0.00  0.00     0.210 HD
ENDBRANCH  32  35
ENDBRANCH  31  32
ENDBRANCH  30  31
ENDBRANCH  27  30
ENDBRANCH  23  27
ENDBRANCH   5  23
BRANCH  19  37
HETATM   37  O   UNK     0      18.818  17.309  11.077  0.00  0.00    -0.393 OA
HETATM   38  H   UNK     0      19.241  17.309  11.952  0.00  0.00     0.210 HD
ENDBRANCH  19  37
BRANCH  20  39
HETATM   39  O   UNK     0      19.057  19.252  13.033  0.00  0.00    -0.393 OA
HETATM   40  H   UNK     0      18.289  18.658  13.097  0.00  0.00     0.210 HD
ENDBRANCH  20  39
ENDBRANCH   1   3
TORSDOF 11
ENDMDL
MODEL 8
REMARK VINA RESULT:      -8.5     14.739     17.624
REMARK  11 active torsions:
REMARK  status: ('A' for Active; 'I' for Inactive)
REMARK    1  A    between atoms: O_1  and  C_9 
REMARK    2  A    between atoms: O_2  and  C_19 
REMARK    3  A    between atoms: O_3  and  C_26 
REMARK    4  A    between atoms: O_4  and  C_27 
REMARK    5  A    between atoms: O_6  and  C_28 
REMARK    6  A    between atoms: O_7  and  C_32 
REMARK    7  A    between atoms: C_10  and  C_19 
REMARK    8  A    between atoms: C_19  and  C_27 
REMARK    9  A    between atoms: C_27  and  C_30 
REMARK   10  A    between atoms: C_30  and  C_31 
REMARK   11  A    between atoms: C_31  and  C_32 
ROOT
HETATM    1  O   UNK     0      21.668  22.107   7.743  0.00  0.00    -0.384 OA
HETATM    2  H   UNK     0      21.165  22.936   7.667  0.00  0.00     0.211 HD
ENDROOT
BRANCH   1   3
HETATM    3  C   UNK     0      22.556  22.232   8.878  0.00  0.00     0.089 C 
HETATM    4  C   UNK     0      22.223  23.534   9.651  0.00  0.00    -0.002 C 
HETATM    5  C   UNK     0      22.582  24.603   8.587  0.00  0.00     0.034 C 
HETATM    6  C   UNK     0      20.731  23.511  10.031  0.00  0.00     0.014 C 
HETATM    7  C   UNK     0      23.085  23.716  10.930  0.00  0.00     0.019 C 
HETATM    8  C   UNK     0      23.871  24.053   7.935  0.00  0.00     0.012 C 
HETATM    9  C   UNK     0      23.938  22.550   8.287  0.00  0.00     0.044 C 
HETATM   10  C   UNK     0      20.404  22.287  10.902  0.00  0.00     0.011 C 
HETATM   11  C   UNK     0      20.907  20.920  10.342  0.00  0.00     0.027 C 
HETATM   12  C   UNK     0      20.753  19.748  11.389  0.00  0.00    -0.023 C 
HETATM   13  C   UNK     0      22.311  21.001   9.724  0.00  0.00    -0.037 C 
HETATM   14  C   UNK     0      21.447  18.463  10.856  0.00  0.00     0.071 C 
HETATM   15  C   UNK     0      19.258  19.421  11.667  0.00  0.00     0.044 C 
HETATM   16  C   UNK     0      21.398  20.113  12.753  0.00  0.00     0.016 C 
HETATM   17  C   UNK     0      20.718  17.821   9.662  0.00  0.00     0.047 C 
HETATM   18  C   UNK     0      22.891  18.736  10.480  0.00  0.00     0.154 C 
HETATM   19  C   UNK     0      19.256  17.523   9.986  0.00  0.00     0.147 C 
HETATM   20  C   UNK     0      18.536  18.780  10.477  0.00  0.00     0.147 C 
HETATM   21  O   UNK     0      23.770  17.890  10.636  0.00  0.00    -0.293 OA
HETATM   22  C   UNK     0      23.225  20.025   9.833  0.00  0.00     0.057 C 
BRANCH   5  23
HETATM   23  C   UNK     0      22.737  26.035   9.084  0.00  0.00     0.084 C 
HETATM   24  C   UNK     0      21.919  26.230  10.372  0.00  0.00     0.049 C 
BRANCH  23  25
HETATM   25  O   UNK     0      24.115  26.253   9.415  0.00  0.00    -0.387 OA
HETATM   26  H   UNK     0      24.279  25.922  10.313  0.00  0.00     0.210 HD
ENDBRANCH  23  25
BRANCH  23  27
HETATM   27  C   UNK     0      22.325  27.078   8.010  0.00  0.00     0.152 C 
BRANCH  27  28
HETATM   28  O   UNK     0      22.657  28.393   8.466  0.00  0.00    -0.393 OA
HETATM   29  H   UNK     0      23.508  28.635   8.061  0.00  0.00     0.210 HD
ENDBRANCH  27  28
BRANCH  27  30
HETATM   30  C   UNK     0      20.828  27.054   7.646  0.00  0.00     0.037 C 
BRANCH  30  31
HETATM   31  C   UNK     0      20.603  27.102   6.123  0.00  0.00     0.040 C 
BRANCH  31  32
HETATM   32  C   UNK     0      19.438  26.224   5.621  0.00  0.00     0.051 C 
HETATM   33  C   UNK     0      19.685  25.832   4.160  0.00  0.00     0.045 C 
HETATM   34  C   UNK     0      19.240  24.968   6.472  0.00  0.00     0.045 C 
BRANCH  32  35
HETATM   35  O   UNK     0      18.238  26.998   5.670  0.00  0.00    -0.391 OA
HETATM   36  H   UNK     0      17.549  26.456   6.089  0.00  0.00     0.210 HD
ENDBRANCH  32  35
ENDBRANCH  31  32
ENDBRANCH  30  31
ENDBRANCH  27  30
ENDBRANCH  23  27
ENDBRANCH   5  23
BRANCH  19  37
HETATM   37  O   UNK     0      19.196  16.519  11.002  0.00  0.00    -0.393 OA
HETATM   38  H   UNK     0      18.691  16.886  11.747  0.00  0.00     0.210 HD
ENDBRANCH  19  37
BRANCH  20  39
HETATM   39  O   UNK     0      17.205  18.436  10.853  0.00  0.00    -0.393 OA
HETATM   40  H   UNK     0      16.600  18.943  10.284  0.00  0.00     0.210 HD
ENDBRANCH  20  39
ENDBRANCH   1   3
TORSDOF 11
ENDMDL
MODEL 9
REMARK VINA RESULT:      -8.5     18.025     21.394
REMARK  11 active torsions:
REMARK  status: ('A' for Active; 'I' for Inactive)
REMARK    1  A    between atoms: O_1  and  C_9 
REMARK    2  A    between atoms: O_2  and  C_19 
REMARK    3  A    between atoms: O_3  and  C_26 
REMARK    4  A    between atoms: O_4  and  C_27 
REMARK    5  A    between atoms: O_6  and  C_28 
REMARK    6  A    between atoms: O_7  and  C_32 
REMARK    7  A    between atoms: C_10  and  C_19 
REMARK    8  A    between atoms: C_19  and  C_27 
REMARK    9  A    between atoms: C_27  and  C_30 
REMARK   10  A    between atoms: C_30  and  C_31 
REMARK   11  A    between atoms: C_31  and  C_32 
ROOT
HETATM    1  O   UNK     0      19.120  24.649   6.105  0.00  0.00    -0.384 OA
HETATM    2  H   UNK     0      19.093  24.976   7.021  0.00  0.00     0.211 HD
ENDROOT
BRANCH   1   3
HETATM    3  C   UNK     0      20.241  25.279   5.444  0.00  0.00     0.089 C 
HETATM    4  C   UNK     0      21.460  25.298   6.403  0.00  0.00    -0.002 C 
HETATM    5  C   UNK     0      20.929  26.224   7.527  0.00  0.00     0.034 C 
HETATM    6  C   UNK     0      21.743  23.857   6.864  0.00  0.00     0.014 C 
HETATM    7  C   UNK     0      22.734  25.898   5.749  0.00  0.00     0.019 C 
HETATM    8  C   UNK     0      20.158  27.325   6.763  0.00  0.00     0.012 C 
HETATM    9  C   UNK     0      19.879  26.769   5.349  0.00  0.00     0.044 C 
HETATM   10  C   UNK     0      22.036  22.942   5.664  0.00  0.00     0.011 C 
HETATM   11  C   UNK     0      20.992  23.012   4.506  0.00  0.00     0.027 C 
HETATM   12  C   UNK     0      21.473  22.238   3.216  0.00  0.00    -0.023 C 
HETATM   13  C   UNK     0      20.511  24.441   4.212  0.00  0.00    -0.037 C 
HETATM   14  C   UNK     0      20.494  22.506   2.039  0.00  0.00     0.071 C 
HETATM   15  C   UNK     0      21.541  20.703   3.461  0.00  0.00     0.044 C 
HETATM   16  C   UNK     0      22.892  22.690   2.775  0.00  0.00     0.016 C 
HETATM   17  C   UNK     0      19.117  21.844   2.221  0.00  0.00     0.047 C 
HETATM   18  C   UNK     0      20.313  23.994   1.805  0.00  0.00     0.154 C 
HETATM   19  C   UNK     0      19.240  20.340   2.459  0.00  0.00     0.147 C 
HETATM   20  C   UNK     0      20.168  20.048   3.639  0.00  0.00     0.147 C 
HETATM   21  O   UNK     0      20.148  24.455   0.676  0.00  0.00    -0.293 OA
HETATM   22  C   UNK     0      20.251  24.895   2.977  0.00  0.00     0.057 C 
BRANCH   5  23
HETATM   23  C   UNK     0      21.965  26.789   8.490  0.00  0.00     0.084 C 
HETATM   24  C   UNK     0      21.955  25.982   9.799  0.00  0.00     0.049 C 
BRANCH  23  25
HETATM   25  O   UNK     0      23.263  26.634   7.901  0.00  0.00    -0.387 OA
HETATM   26  H   UNK     0      23.242  26.984   6.996  0.00  0.00     0.210 HD
ENDBRANCH  23  25
BRANCH  23  27
HETATM   27  C   UNK     0      21.741  28.299   8.775  0.00  0.00     0.152 C 
BRANCH  27  28
HETATM   28  O   UNK     0      22.356  29.079   7.744  0.00  0.00    -0.393 OA
HETATM   29  H   UNK     0      22.505  29.971   8.103  0.00  0.00     0.210 HD
ENDBRANCH  27  28
BRANCH  27  30
HETATM   30  C   UNK     0      22.289  28.775  10.134  0.00  0.00     0.037 C 
BRANCH  30  31
HETATM   31  C   UNK     0      22.343  30.312  10.229  0.00  0.00     0.040 C 
BRANCH  31  32
HETATM   32  C   UNK     0      22.790  30.853  11.603  0.00  0.00     0.051 C 
HETATM   33  C   UNK     0      21.892  32.027  12.008  0.00  0.00     0.045 C 
HETATM   34  C   UNK     0      22.766  29.779  12.692  0.00  0.00     0.045 C 
BRANCH  32  35
HETATM   35  O   UNK     0      24.126  31.344  11.480  0.00  0.00    -0.391 OA
HETATM   36  H   UNK     0      24.371  31.758  12.324  0.00  0.00     0.210 HD
ENDBRANCH  32  35
ENDBRANCH  31  32
ENDBRANCH  30  31
ENDBRANCH  27  30
ENDBRANCH  23  27
ENDBRANCH   5  23
BRANCH  19  37
HETATM   37  O   UNK     0      19.763  19.721   1.283  0.00  0.00    -0.393 OA
HETATM   38  H   UNK     0      20.077  20.427   0.694  0.00  0.00     0.210 HD
ENDBRANCH  19  37
BRANCH  20  39
HETATM   39  O   UNK     0      20.324  18.636   3.767  0.00  0.00    -0.393 OA
HETATM   40  H   UNK     0      21.106  18.381   3.248  0.00  0.00     0.210 HD
ENDBRANCH  20  39
ENDBRANCH   1   3
TORSDOF 11
ENDMDL
