REMARK  18 active torsions:
REMARK  status: ('A' for Active; 'I' for Inactive)
REMARK    1  A    between atoms: P_1  and  O1P_2 
REMARK    2  A    between atoms: P_1  and  O2P_4 
REMARK    3  A    between atoms: P_1  and  O3P_6 
REMARK    4  A    between atoms: O3P_6  and  C1_7 
REMARK    5  A    between atoms: C1_7  and  C2_8 
REMARK    6  A    between atoms: C2_8  and  C3_9 
REMARK    7  A    between atoms: C3_9  and  O3_10 
REMARK    8  A    between atoms: O3_10  and  C11_11 
REMARK    9  A    between atoms: C11_11  and  C12_13 
REMARK   10  A    between atoms: C12_13  and  C13_14 
REMARK   11  A    between atoms: C13_14  and  C14_15 
REMARK   12  A    between atoms: C14_15  and  C15_16 
REMARK   13  A    between atoms: C15_16  and  C16_17 
REMARK   14  A    between atoms: C16_17  and  C17_18 
REMARK   15  A    between atoms: C17_18  and  C18_19 
REMARK   16  A    between atoms: C18_19  and  C19_20 
REMARK   17  A    between atoms: C19_20  and  C20_21 
REMARK   18  A    between atoms: C20_21  and  C21_22 
ROOT
HETATM    1  P   MC3 X 301      38.197  38.314  31.398  1.00 99.76     0.329 P 
ENDROOT
BRANCH   1   2
HETATM    2  O1P MC3 X 301      38.531  39.262  32.526  1.00 79.99    -0.328 OA
HETATM    3  H1P MC3 X 301      38.764  38.821  33.334  1.00  0.00     0.219 HD
ENDBRANCH   1   2
BRANCH   1   4
HETATM    4  O2P MC3 X 301      37.802  39.060  30.030  1.00 83.77    -0.328 OA
HETATM    5  H2P MC3 X 301      37.592  38.464  29.321  1.00  0.00     0.219 HD
ENDBRANCH   1   4
BRANCH   1   6
HETATM    6  O3P MC3 X 301      36.853  37.496  31.723  1.00 93.34    -0.317 OA
BRANCH   6   7
HETATM    7  C1  MC3 X 301      36.745  36.099  31.329  1.00 87.52     0.185 C 
BRANCH   7   8
HETATM    8  C2  MC3 X 301      35.864  35.388  32.331  1.00 84.83     0.042 C 
BRANCH   8   9
HETATM    9  C3  MC3 X 301      34.460  35.947  32.412  1.00 88.26     0.185 C 
BRANCH   9  10
HETATM   10  O3  MC3 X 301      34.505  37.392  32.370  1.00 84.33    -0.321 OA
BRANCH  10  11
HETATM   11  C11 MC3 X 301      33.331  38.019  32.335  1.00 74.30     0.258 C 
HETATM   12  O11 MC3 X 301      32.829  38.377  31.310  1.00 71.30    -0.265 OA
BRANCH  11  13
HETATM   13  C12 MC3 X 301      32.763  38.241  33.722  1.00 70.26     0.111 C 
BRANCH  13  14
HETATM   14  C13 MC3 X 301      31.357  37.748  33.914  1.00 68.05     0.010 C 
BRANCH  14  15
HETATM   15  C14 MC3 X 301      30.413  38.787  34.528  1.00 65.69     0.000 C 
BRANCH  15  16
HETATM   16  C15 MC3 X 301      29.002  38.264  34.783  1.00 64.07     0.000 C 
BRANCH  16  17
HETATM   17  C16 MC3 X 301      27.915  39.325  34.929  1.00 63.64     0.000 C 
BRANCH  17  18
HETATM   18  C17 MC3 X 301      26.681  39.076  34.078  1.00 65.61     0.000 C 
BRANCH  18  19
HETATM   19  C18 MC3 X 301      25.519  40.019  34.343  1.00 65.35     0.000 C 
BRANCH  19  20
HETATM   20  C19 MC3 X 301      24.644  40.295  33.137  1.00 59.74     0.000 C 
BRANCH  20  21
HETATM   21  C20 MC3 X 301      23.239  40.791  33.468  1.00 58.18     0.000 C 
BRANCH  21  22
HETATM   22  C21 MC3 X 301      22.274  40.758  32.303  1.00 54.24     0.000 C 
HETATM   23  C22 MC3 X 301      21.380  41.962  32.172  1.00 55.64     0.000 C 
ENDBRANCH  21  22
ENDBRANCH  20  21
ENDBRANCH  19  20
ENDBRANCH  18  19
ENDBRANCH  17  18
ENDBRANCH  16  17
ENDBRANCH  15  16
ENDBRANCH  14  15
ENDBRANCH  13  14
ENDBRANCH  11  13
ENDBRANCH  10  11
ENDBRANCH   9  10
ENDBRANCH   8   9
ENDBRANCH   7   8
ENDBRANCH   6   7
ENDBRANCH   1   6
TORSDOF 18
