MODEL 1
REMARK VINA RESULT:      -7.9      0.000      0.000
REMARK  5 active torsions:
REMARK  status: ('A' for Active; 'I' for Inactive)
REMARK    1  A    between atoms: O_2  and  C_13 
REMARK    2  A    between atoms: O_4  and  C_16 
REMARK    3  A    between atoms: O_5  and  C_19 
REMARK    4  A    between atoms: O_6  and  C_21 
REMARK    5  A    between atoms: C_9  and  C_10 
ROOT
HETATM    1  O   UNK     0     149.843 157.651 150.795  0.00  0.00    -0.309 OA
HETATM    2  O   UNK     0     147.904 154.135 150.106  0.00  0.00    -0.287 OA
HETATM    3  C   UNK     0     147.822 156.496 150.099  0.00  0.00     0.081 A 
HETATM    4  C   UNK     0     148.544 157.661 150.353  0.00  0.00     0.095 A 
HETATM    5  C   UNK     0     150.460 156.427 151.004  0.00  0.00     0.090 A 
HETATM    6  C   UNK     0     148.476 155.196 150.312  0.00  0.00     0.190 A 
HETATM    7  C   UNK     0     149.874 155.239 150.790  0.00  0.00     0.094 A 
HETATM    8  C   UNK     0     146.502 156.567 149.650  0.00  0.00     0.085 A 
HETATM    9  C   UNK     0     147.948 158.907 150.158  0.00  0.00     0.075 A 
HETATM   10  C   UNK     0     146.629 158.982 149.710  0.00  0.00     0.071 A 
HETATM   11  C   UNK     0     145.908 157.815 149.457  0.00  0.00     0.074 A 
ENDROOT
BRANCH   5  12
HETATM   12  C   UNK     0     151.856 156.531 151.473  0.00  0.00     0.001 A 
HETATM   13  C   UNK     0     152.408 157.781 151.764  0.00  0.00     0.053 A 
HETATM   14  C   UNK     0     153.726 157.879 152.207  0.00  0.00     0.099 A 
HETATM   15  C   UNK     0     154.498 156.727 152.361  0.00  0.00     0.098 A 
HETATM   16  C   UNK     0     153.951 155.478 152.070  0.00  0.00     0.040 A 
HETATM   17  C   UNK     0     152.632 155.380 151.627  0.00  0.00     0.017 A 
BRANCH  14  18
HETATM   18  O   UNK     0     154.251 159.106 152.486  0.00  0.00    -0.358 OA
HETATM   19  H   UNK     0     153.562 159.643 152.913  0.00  0.00     0.217 HD
ENDBRANCH  14  18
BRANCH  15  20
HETATM   20  O   UNK     0     155.787 156.811 152.793  0.00  0.00    -0.358 OA
HETATM   21  H   UNK     0     155.792 156.883 153.763  0.00  0.00     0.217 HD
ENDBRANCH  15  20
ENDBRANCH   5  12
BRANCH   8  22
HETATM   22  O   UNK     0     145.755 155.458 149.388  0.00  0.00    -0.360 OA
HETATM   23  H   UNK     0     145.315 155.146 150.194  0.00  0.00     0.217 HD
ENDBRANCH   8  22
BRANCH  10  24
HETATM   24  O   UNK     0     146.044 160.197 149.518  0.00  0.00    -0.361 OA
HETATM   25  H   UNK     0     145.198 160.219 149.996  0.00  0.00     0.217 HD
ENDBRANCH  10  24
TORSDOF 5
ENDMDL
MODEL 2
REMARK VINA RESULT:      -7.8      0.725      1.328
REMARK  5 active torsions:
REMARK  status: ('A' for Active; 'I' for Inactive)
REMARK    1  A    between atoms: O_2  and  C_13 
REMARK    2  A    between atoms: O_4  and  C_16 
REMARK    3  A    between atoms: O_5  and  C_19 
REMARK    4  A    between atoms: O_6  and  C_21 
REMARK    5  A    between atoms: C_9  and  C_10 
ROOT
HETATM    1  O   UNK     0     149.894 157.779 150.813  0.00  0.00    -0.309 OA
HETATM    2  O   UNK     0     148.118 154.180 150.113  0.00  0.00    -0.287 OA
HETATM    3  C   UNK     0     147.929 156.535 150.113  0.00  0.00     0.081 A 
HETATM    4  C   UNK     0     148.597 157.731 150.371  0.00  0.00     0.095 A 
HETATM    5  C   UNK     0     150.567 156.584 151.020  0.00  0.00     0.090 A 
HETATM    6  C   UNK     0     148.642 155.265 150.322  0.00  0.00     0.190 A 
HETATM    7  C   UNK     0     150.035 155.371 150.802  0.00  0.00     0.094 A 
HETATM    8  C   UNK     0     146.607 156.547 149.663  0.00  0.00     0.085 A 
HETATM    9  C   UNK     0     147.945 158.949 150.179  0.00  0.00     0.075 A 
HETATM   10  C   UNK     0     146.624 158.965 149.729  0.00  0.00     0.071 A 
HETATM   11  C   UNK     0     145.957 157.767 149.473  0.00  0.00     0.074 A 
ENDROOT
BRANCH   5  12
HETATM   12  C   UNK     0     151.956 156.750 151.490  0.00  0.00     0.001 A 
HETATM   13  C   UNK     0     152.448 155.951 152.525  0.00  0.00     0.053 A 
HETATM   14  C   UNK     0     153.760 156.108 152.969  0.00  0.00     0.099 A 
HETATM   15  C   UNK     0     154.587 157.065 152.379  0.00  0.00     0.098 A 
HETATM   16  C   UNK     0     154.099 157.866 151.346  0.00  0.00     0.040 A 
HETATM   17  C   UNK     0     152.786 157.709 150.902  0.00  0.00     0.017 A 
BRANCH  14  18
HETATM   18  O   UNK     0     154.226 155.321 153.979  0.00  0.00    -0.358 OA
HETATM   19  H   UNK     0     155.119 155.017 153.743  0.00  0.00     0.217 HD
ENDBRANCH  14  18
BRANCH  15  20
HETATM   20  O   UNK     0     155.870 157.228 152.803  0.00  0.00    -0.358 OA
HETATM   21  H   UNK     0     155.983 158.136 153.130  0.00  0.00     0.217 HD
ENDBRANCH  15  20
ENDBRANCH   5  12
BRANCH   8  22
HETATM   22  O   UNK     0     145.912 155.406 149.397  0.00  0.00    -0.360 OA
HETATM   23  H   UNK     0     146.264 154.970 148.606  0.00  0.00     0.217 HD
ENDBRANCH   8  22
BRANCH  10  24
HETATM   24  O   UNK     0     145.984 160.153 149.541  0.00  0.00    -0.361 OA
HETATM   25  H   UNK     0     145.262 160.228 150.188  0.00  0.00     0.217 HD
ENDBRANCH  10  24
TORSDOF 5
ENDMDL
MODEL 3
REMARK VINA RESULT:      -7.7     15.103     16.752
REMARK  5 active torsions:
REMARK  status: ('A' for Active; 'I' for Inactive)
REMARK    1  A    between atoms: O_2  and  C_13 
REMARK    2  A    between atoms: O_4  and  C_16 
REMARK    3  A    between atoms: O_5  and  C_19 
REMARK    4  A    between atoms: O_6  and  C_21 
REMARK    5  A    between atoms: C_9  and  C_10 
ROOT
HETATM    1  O   UNK     0     135.629 153.536 159.775  0.00  0.00    -0.309 OA
HETATM    2  O   UNK     0     137.667 153.276 156.257  0.00  0.00    -0.287 OA
HETATM    3  C   UNK     0     135.627 153.739 157.354  0.00  0.00     0.081 A 
HETATM    4  C   UNK     0     134.990 153.809 158.591  0.00  0.00     0.095 A 
HETATM    5  C   UNK     0     136.964 153.165 159.734  0.00  0.00     0.090 A 
HETATM    6  C   UNK     0     137.046 153.355 157.307  0.00  0.00     0.190 A 
HETATM    7  C   UNK     0     137.687 153.068 158.607  0.00  0.00     0.094 A 
HETATM    8  C   UNK     0     134.926 154.029 156.182  0.00  0.00     0.085 A 
HETATM    9  C   UNK     0     133.645 154.172 158.664  0.00  0.00     0.075 A 
HETATM   10  C   UNK     0     132.942 154.463 157.495  0.00  0.00     0.071 A 
HETATM   11  C   UNK     0     133.580 154.391 156.257  0.00  0.00     0.074 A 
ENDROOT
BRANCH   5  12
HETATM   12  C   UNK     0     137.554 152.899 161.060  0.00  0.00     0.001 A 
HETATM   13  C   UNK     0     138.848 152.382 161.163  0.00  0.00     0.053 A 
HETATM   14  C   UNK     0     139.405 152.130 162.416  0.00  0.00     0.099 A 
HETATM   15  C   UNK     0     138.671 152.396 163.573  0.00  0.00     0.098 A 
HETATM   16  C   UNK     0     137.379 152.912 163.474  0.00  0.00     0.040 A 
HETATM   17  C   UNK     0     136.821 153.164 162.220  0.00  0.00     0.017 A 
BRANCH  14  18
HETATM   18  O   UNK     0     140.668 151.625 162.500  0.00  0.00    -0.358 OA
HETATM   19  H   UNK     0     140.664 150.729 162.123  0.00  0.00     0.217 HD
ENDBRANCH  14  18
BRANCH  15  20
HETATM   20  O   UNK     0     139.205 152.156 164.802  0.00  0.00    -0.358 OA
HETATM   21  H   UNK     0     139.760 152.911 165.059  0.00  0.00     0.217 HD
ENDBRANCH  15  20
ENDBRANCH   5  12
BRANCH   8  22
HETATM   22  O   UNK     0     135.503 153.975 154.949  0.00  0.00    -0.360 OA
HETATM   23  H   UNK     0     135.098 154.625 154.355  0.00  0.00     0.217 HD
ENDBRANCH   8  22
BRANCH  10  24
HETATM   24  O   UNK     0     131.628 154.818 157.563  0.00  0.00    -0.361 OA
HETATM   25  H   UNK     0     131.484 155.342 158.369  0.00  0.00     0.217 HD
ENDBRANCH  10  24
TORSDOF 5
ENDMDL
MODEL 4
REMARK VINA RESULT:      -7.7      1.435      7.539
REMARK  5 active torsions:
REMARK  status: ('A' for Active; 'I' for Inactive)
REMARK    1  A    between atoms: O_2  and  C_13 
REMARK    2  A    between atoms: O_4  and  C_16 
REMARK    3  A    between atoms: O_5  and  C_19 
REMARK    4  A    between atoms: O_6  and  C_21 
REMARK    5  A    between atoms: C_9  and  C_10 
ROOT
HETATM    1  O   UNK     0     151.779 155.450 151.156  0.00  0.00    -0.309 OA
HETATM    2  O   UNK     0     153.736 158.876 152.172  0.00  0.00    -0.287 OA
HETATM    3  C   UNK     0     153.823 156.531 151.902  0.00  0.00     0.081 A 
HETATM    4  C   UNK     0     153.095 155.399 151.541  0.00  0.00     0.095 A 
HETATM    5  C   UNK     0     151.145 156.684 151.134  0.00  0.00     0.090 A 
HETATM    6  C   UNK     0     153.157 157.842 151.871  0.00  0.00     0.190 A 
HETATM    7  C   UNK     0     151.740 157.844 151.452  0.00  0.00     0.094 A 
HETATM    8  C   UNK     0     155.161 156.417 152.286  0.00  0.00     0.085 A 
HETATM    9  C   UNK     0     153.702 154.143 151.561  0.00  0.00     0.075 A 
HETATM   10  C   UNK     0     155.039 154.026 151.943  0.00  0.00     0.071 A 
HETATM   11  C   UNK     0     155.766 155.160 152.305  0.00  0.00     0.074 A 
ENDROOT
BRANCH   5  12
HETATM   12  C   UNK     0     149.736 156.627 150.700  0.00  0.00     0.001 A 
HETATM   13  C   UNK     0     149.071 155.400 150.632  0.00  0.00     0.053 A 
HETATM   14  C   UNK     0     147.739 155.346 150.223  0.00  0.00     0.099 A 
HETATM   15  C   UNK     0     147.066 156.520 149.880  0.00  0.00     0.098 A 
HETATM   16  C   UNK     0     147.727 157.746 149.945  0.00  0.00     0.040 A 
HETATM   17  C   UNK     0     149.059 157.800 150.355  0.00  0.00     0.017 A 
BRANCH  14  18
HETATM   18  O   UNK     0     147.104 154.142 150.161  0.00  0.00    -0.358 OA
HETATM   19  H   UNK     0     147.775 153.440 150.204  0.00  0.00     0.217 HD
ENDBRANCH  14  18
BRANCH  15  20
HETATM   20  O   UNK     0     145.765 156.480 149.479  0.00  0.00    -0.358 OA
HETATM   21  H   UNK     0     145.220 156.135 150.206  0.00  0.00     0.217 HD
ENDBRANCH  15  20
ENDBRANCH   5  12
BRANCH   8  22
HETATM   22  O   UNK     0     155.914 157.493 152.647  0.00  0.00    -0.360 OA
HETATM   23  H   UNK     0     155.590 157.871 153.479  0.00  0.00     0.217 HD
ENDBRANCH   8  22
BRANCH  10  24
HETATM   24  O   UNK     0     155.635 152.801 151.963  0.00  0.00    -0.361 OA
HETATM   25  H   UNK     0     156.595 152.916 151.856  0.00  0.00     0.217 HD
ENDBRANCH  10  24
TORSDOF 5
ENDMDL
MODEL 5
REMARK VINA RESULT:      -7.6     15.759     17.834
REMARK  5 active torsions:
REMARK  status: ('A' for Active; 'I' for Inactive)
REMARK    1  A    between atoms: O_2  and  C_13 
REMARK    2  A    between atoms: O_4  and  C_16 
REMARK    3  A    between atoms: O_5  and  C_19 
REMARK    4  A    between atoms: O_6  and  C_21 
REMARK    5  A    between atoms: C_9  and  C_10 
ROOT
HETATM    1  O   UNK     0     136.636 153.479 161.017  0.00  0.00    -0.309 OA
HETATM    2  O   UNK     0     139.679 150.827 160.465  0.00  0.00    -0.287 OA
HETATM    3  C   UNK     0     138.494 152.227 161.955  0.00  0.00     0.081 A 
HETATM    4  C   UNK     0     137.437 153.126 162.074  0.00  0.00     0.095 A 
HETATM    5  C   UNK     0     136.898 152.921 159.775  0.00  0.00     0.090 A 
HETATM    6  C   UNK     0     138.769 151.625 160.641  0.00  0.00     0.190 A 
HETATM    7  C   UNK     0     137.881 152.039 159.535  0.00  0.00     0.094 A 
HETATM    8  C   UNK     0     139.276 151.904 163.066  0.00  0.00     0.085 A 
HETATM    9  C   UNK     0     137.153 153.710 163.308  0.00  0.00     0.075 A 
HETATM   10  C   UNK     0     137.931 153.390 164.421  0.00  0.00     0.071 A 
HETATM   11  C   UNK     0     138.990 152.490 164.300  0.00  0.00     0.074 A 
ENDROOT
BRANCH   5  12
HETATM   12  C   UNK     0     135.975 153.363 158.711  0.00  0.00     0.001 A 
HETATM   13  C   UNK     0     136.203 152.991 157.384  0.00  0.00     0.053 A 
HETATM   14  C   UNK     0     135.331 153.410 156.379  0.00  0.00     0.099 A 
HETATM   15  C   UNK     0     134.227 154.202 156.698  0.00  0.00     0.098 A 
HETATM   16  C   UNK     0     133.997 154.576 158.022  0.00  0.00     0.040 A 
HETATM   17  C   UNK     0     134.870 154.158 159.027  0.00  0.00     0.017 A 
BRANCH  14  18
HETATM   18  O   UNK     0     135.567 153.039 155.089  0.00  0.00    -0.358 OA
HETATM   19  H   UNK     0     135.736 153.842 154.567  0.00  0.00     0.217 HD
ENDBRANCH  14  18
BRANCH  15  20
HETATM   20  O   UNK     0     133.368 154.616 155.726  0.00  0.00    -0.358 OA
HETATM   21  H   UNK     0     133.054 153.841 155.230  0.00  0.00     0.217 HD
ENDBRANCH  15  20
ENDBRANCH   5  12
BRANCH   8  22
HETATM   22  O   UNK     0     140.319 151.031 163.001  0.00  0.00    -0.360 OA
HETATM   23  H   UNK     0     140.009 150.150 162.742  0.00  0.00     0.217 HD
ENDBRANCH   8  22
BRANCH  10  24
HETATM   24  O   UNK     0     137.657 153.958 165.629  0.00  0.00    -0.361 OA
HETATM   25  H   UNK     0     137.699 154.925 165.539  0.00  0.00     0.217 HD
ENDBRANCH  10  24
TORSDOF 5
ENDMDL
MODEL 6
REMARK VINA RESULT:      -7.6     10.497     13.350
REMARK  5 active torsions:
REMARK  status: ('A' for Active; 'I' for Inactive)
REMARK    1  A    between atoms: O_2  and  C_13 
REMARK    2  A    between atoms: O_4  and  C_16 
REMARK    3  A    between atoms: O_5  and  C_19 
REMARK    4  A    between atoms: O_6  and  C_21 
REMARK    5  A    between atoms: C_9  and  C_10 
ROOT
HETATM    1  O   UNK     0     149.714 149.168 142.033  0.00  0.00    -0.309 OA
HETATM    2  O   UNK     0     148.058 151.007 145.270  0.00  0.00    -0.287 OA
HETATM    3  C   UNK     0     149.965 150.688 143.911  0.00  0.00     0.081 A 
HETATM    4  C   UNK     0     150.467 150.027 142.792  0.00  0.00     0.095 A 
HETATM    5  C   UNK     0     148.396 148.943 142.402  0.00  0.00     0.090 A 
HETATM    6  C   UNK     0     148.565 150.458 144.301  0.00  0.00     0.190 A 
HETATM    7  C   UNK     0     147.796 149.523 143.454  0.00  0.00     0.094 A 
HETATM    8  C   UNK     0     150.779 151.552 144.646  0.00  0.00     0.085 A 
HETATM    9  C   UNK     0     151.790 150.228 142.400  0.00  0.00     0.075 A 
HETATM   10  C   UNK     0     152.607 151.091 143.131  0.00  0.00     0.071 A 
HETATM   11  C   UNK     0     152.103 151.750 144.252  0.00  0.00     0.074 A 
ENDROOT
BRANCH   5  12
HETATM   12  C   UNK     0     147.676 148.008 141.516  0.00  0.00     0.001 A 
HETATM   13  C   UNK     0     148.250 147.600 140.309  0.00  0.00     0.053 A 
HETATM   14  C   UNK     0     147.569 146.717 139.472  0.00  0.00     0.099 A 
HETATM   15  C   UNK     0     146.311 146.238 139.838  0.00  0.00     0.098 A 
HETATM   16  C   UNK     0     145.733 146.644 141.041  0.00  0.00     0.040 A 
HETATM   17  C   UNK     0     146.415 147.528 141.879  0.00  0.00     0.017 A 
BRANCH  14  18
HETATM   18  O   UNK     0     148.142 146.329 138.298  0.00  0.00    -0.358 OA
HETATM   19  H   UNK     0     148.769 145.610 138.487  0.00  0.00     0.217 HD
ENDBRANCH  14  18
BRANCH  15  20
HETATM   20  O   UNK     0     145.636 145.375 139.029  0.00  0.00    -0.358 OA
HETATM   21  H   UNK     0     144.806 145.116 139.464  0.00  0.00     0.217 HD
ENDBRANCH  15  20
ENDBRANCH   5  12
BRANCH   8  22
HETATM   22  O   UNK     0     150.335 152.220 145.747  0.00  0.00    -0.360 OA
HETATM   23  H   UNK     0     149.662 151.699 146.212  0.00  0.00     0.217 HD
ENDBRANCH   8  22
BRANCH  10  24
HETATM   24  O   UNK     0     153.900 151.289 142.751  0.00  0.00    -0.361 OA
HETATM   25  H   UNK     0     153.922 151.955 142.042  0.00  0.00     0.217 HD
ENDBRANCH  10  24
TORSDOF 5
ENDMDL
MODEL 7
REMARK VINA RESULT:      -7.6      1.394      7.200
REMARK  5 active torsions:
REMARK  status: ('A' for Active; 'I' for Inactive)
REMARK    1  A    between atoms: O_2  and  C_13 
REMARK    2  A    between atoms: O_4  and  C_16 
REMARK    3  A    between atoms: O_5  and  C_19 
REMARK    4  A    between atoms: O_6  and  C_21 
REMARK    5  A    between atoms: C_9  and  C_10 
ROOT
HETATM    1  O   UNK     0     150.682 156.227 151.251  0.00  0.00    -0.309 OA
HETATM    2  O   UNK     0     153.086 159.422 152.032  0.00  0.00    -0.287 OA
HETATM    3  C   UNK     0     152.790 157.080 152.106  0.00  0.00     0.081 A 
HETATM    4  C   UNK     0     151.918 156.033 151.813  0.00  0.00     0.095 A 
HETATM    5  C   UNK     0     150.280 157.525 150.972  0.00  0.00     0.090 A 
HETATM    6  C   UNK     0     152.371 158.457 151.803  0.00  0.00     0.190 A 
HETATM    7  C   UNK     0     151.030 158.614 151.202  0.00  0.00     0.094 A 
HETATM    8  C   UNK     0     154.037 156.821 152.678  0.00  0.00     0.085 A 
HETATM    9  C   UNK     0     152.291 154.717 152.089  0.00  0.00     0.075 A 
HETATM   10  C   UNK     0     153.537 154.455 152.659  0.00  0.00     0.071 A 
HETATM   11  C   UNK     0     154.407 155.504 152.953  0.00  0.00     0.074 A 
ENDROOT
BRANCH   5  12
HETATM   12  C   UNK     0     148.938 157.620 150.365  0.00  0.00     0.001 A 
HETATM   13  C   UNK     0     148.334 158.868 150.189  0.00  0.00     0.053 A 
HETATM   14  C   UNK     0     147.066 158.958 149.616  0.00  0.00     0.099 A 
HETATM   15  C   UNK     0     146.397 157.800 149.217  0.00  0.00     0.098 A 
HETATM   16  C   UNK     0     146.996 156.553 149.392  0.00  0.00     0.040 A 
HETATM   17  C   UNK     0     148.265 156.463 149.965  0.00  0.00     0.017 A 
BRANCH  14  18
HETATM   18  O   UNK     0     146.489 160.182 149.451  0.00  0.00    -0.358 OA
HETATM   19  H   UNK     0     146.716 160.509 148.564  0.00  0.00     0.217 HD
ENDBRANCH  14  18
BRANCH  15  20
HETATM   20  O   UNK     0     145.158 157.876 148.655  0.00  0.00    -0.358 OA
HETATM   21  H   UNK     0     144.727 158.696 148.948  0.00  0.00     0.217 HD
ENDBRANCH  15  20
ENDBRANCH   5  12
BRANCH   8  22
HETATM   22  O   UNK     0     154.923 157.810 152.983  0.00  0.00    -0.360 OA
HETATM   23  H   UNK     0     155.822 157.452 153.050  0.00  0.00     0.217 HD
ENDBRANCH   8  22
BRANCH  10  24
HETATM   24  O   UNK     0     153.904 153.171 152.930  0.00  0.00    -0.361 OA
HETATM   25  H   UNK     0     154.846 153.061 152.716  0.00  0.00     0.217 HD
ENDBRANCH  10  24
TORSDOF 5
ENDMDL
MODEL 8
REMARK VINA RESULT:      -7.5      1.320      2.008
REMARK  5 active torsions:
REMARK  status: ('A' for Active; 'I' for Inactive)
REMARK    1  A    between atoms: O_2  and  C_13 
REMARK    2  A    between atoms: O_4  and  C_16 
REMARK    3  A    between atoms: O_5  and  C_19 
REMARK    4  A    between atoms: O_6  and  C_21 
REMARK    5  A    between atoms: C_9  and  C_10 
ROOT
HETATM    1  O   UNK     0     149.957 156.971 150.855  0.00  0.00    -0.309 OA
HETATM    2  O   UNK     0     147.247 153.971 150.351  0.00  0.00    -0.287 OA
HETATM    3  C   UNK     0     147.749 156.268 150.127  0.00  0.00     0.081 A 
HETATM    4  C   UNK     0     148.722 157.246 150.325  0.00  0.00     0.095 A 
HETATM    5  C   UNK     0     150.244 155.663 151.216  0.00  0.00     0.090 A 
HETATM    6  C   UNK     0     148.053 154.878 150.500  0.00  0.00     0.190 A 
HETATM    7  C   UNK     0     149.395 154.634 151.069  0.00  0.00     0.094 A 
HETATM    8  C   UNK     0     146.508 156.607 149.582  0.00  0.00     0.085 A 
HETATM    9  C   UNK     0     148.460 158.571 149.978  0.00  0.00     0.075 A 
HETATM   10  C   UNK     0     147.222 158.914 149.433  0.00  0.00     0.071 A 
HETATM   11  C   UNK     0     146.249 157.934 149.236  0.00  0.00     0.074 A 
ENDROOT
BRANCH   5  12
HETATM   12  C   UNK     0     151.600 155.477 151.770  0.00  0.00     0.001 A 
HETATM   13  C   UNK     0     152.115 154.191 151.951  0.00  0.00     0.053 A 
HETATM   14  C   UNK     0     153.395 154.016 152.474  0.00  0.00     0.099 A 
HETATM   15  C   UNK     0     154.167 155.126 152.818  0.00  0.00     0.098 A 
HETATM   16  C   UNK     0     153.656 156.412 152.640  0.00  0.00     0.040 A 
HETATM   17  C   UNK     0     152.375 156.587 152.117  0.00  0.00     0.017 A 
BRANCH  14  18
HETATM   18  O   UNK     0     153.884 152.755 152.645  0.00  0.00    -0.358 OA
HETATM   19  H   UNK     0     153.175 152.200 153.015  0.00  0.00     0.217 HD
ENDBRANCH  14  18
BRANCH  15  20
HETATM   20  O   UNK     0     155.419 154.968 153.329  0.00  0.00    -0.358 OA
HETATM   21  H   UNK     0     155.503 155.505 154.135  0.00  0.00     0.217 HD
ENDBRANCH  15  20
ENDBRANCH   5  12
BRANCH   8  22
HETATM   22  O   UNK     0     145.525 155.689 149.369  0.00  0.00    -0.360 OA
HETATM   23  H   UNK     0     144.916 155.661 150.123  0.00  0.00     0.217 HD
ENDBRANCH   8  22
BRANCH  10  24
HETATM   24  O   UNK     0     146.963 160.207 149.094  0.00  0.00    -0.361 OA
HETATM   25  H   UNK     0     147.795 160.710 149.111  0.00  0.00     0.217 HD
ENDBRANCH  10  24
TORSDOF 5
ENDMDL
MODEL 9
REMARK VINA RESULT:      -7.5     14.957     17.735
REMARK  5 active torsions:
REMARK  status: ('A' for Active; 'I' for Inactive)
REMARK    1  A    between atoms: O_2  and  C_13 
REMARK    2  A    between atoms: O_4  and  C_16 
REMARK    3  A    between atoms: O_5  and  C_19 
REMARK    4  A    between atoms: O_6  and  C_21 
REMARK    5  A    between atoms: C_9  and  C_10 
ROOT
HETATM    1  O   UNK     0     137.688 152.904 159.936  0.00  0.00    -0.309 OA
HETATM    2  O   UNK     0     135.117 153.924 162.927  0.00  0.00    -0.287 OA
HETATM    3  C   UNK     0     137.216 153.029 162.316  0.00  0.00     0.081 A 
HETATM    4  C   UNK     0     138.046 152.704 161.245  0.00  0.00     0.095 A 
HETATM    5  C   UNK     0     136.440 153.446 159.669  0.00  0.00     0.090 A 
HETATM    6  C   UNK     0     135.895 153.613 162.037  0.00  0.00     0.190 A 
HETATM    7  C   UNK     0     135.554 153.805 160.612  0.00  0.00     0.094 A 
HETATM    8  C   UNK     0     137.635 152.803 163.629  0.00  0.00     0.085 A 
HETATM    9  C   UNK     0     139.305 152.151 161.482  0.00  0.00     0.075 A 
HETATM   10  C   UNK     0     139.727 151.924 162.792  0.00  0.00     0.071 A 
HETATM   11  C   UNK     0     138.894 152.249 163.863  0.00  0.00     0.074 A 
ENDROOT
BRANCH   5  12
HETATM   12  C   UNK     0     136.158 153.623 158.231  0.00  0.00     0.001 A 
HETATM   13  C   UNK     0     134.852 153.859 157.795  0.00  0.00     0.053 A 
HETATM   14  C   UNK     0     134.585 154.027 156.437  0.00  0.00     0.099 A 
HETATM   15  C   UNK     0     135.625 153.960 155.508  0.00  0.00     0.098 A 
HETATM   16  C   UNK     0     136.930 153.724 155.939  0.00  0.00     0.040 A 
HETATM   17  C   UNK     0     137.196 153.556 157.299  0.00  0.00     0.017 A 
BRANCH  14  18
HETATM   18  O   UNK     0     133.306 154.256 156.027  0.00  0.00    -0.358 OA
HETATM   19  H   UNK     0     132.799 154.595 156.784  0.00  0.00     0.217 HD
ENDBRANCH  14  18
BRANCH  15  20
HETATM   20  O   UNK     0     135.377 154.123 154.179  0.00  0.00    -0.358 OA
HETATM   21  H   UNK     0     135.576 155.042 153.931  0.00  0.00     0.217 HD
ENDBRANCH  15  20
ENDBRANCH   5  12
BRANCH   8  22
HETATM   22  O   UNK     0     136.860 153.103 164.708  0.00  0.00    -0.360 OA
HETATM   23  H   UNK     0     137.220 152.694 165.510  0.00  0.00     0.217 HD
ENDBRANCH   8  22
BRANCH  10  24
HETATM   24  O   UNK     0     140.955 151.384 163.027  0.00  0.00    -0.361 OA
HETATM   25  H   UNK     0     140.962 150.990 163.915  0.00  0.00     0.217 HD
ENDBRANCH  10  24
TORSDOF 5
ENDMDL
MODEL 10
REMARK VINA RESULT:      -7.5      2.522      4.224
REMARK  5 active torsions:
REMARK  status: ('A' for Active; 'I' for Inactive)
REMARK    1  A    between atoms: O_2  and  C_13 
REMARK    2  A    between atoms: O_4  and  C_16 
REMARK    3  A    between atoms: O_5  and  C_19 
REMARK    4  A    between atoms: O_6  and  C_21 
REMARK    5  A    between atoms: C_9  and  C_10 
ROOT
HETATM    1  O   UNK     0     148.311 156.958 149.512  0.00  0.00    -0.309 OA
HETATM    2  O   UNK     0     144.569 158.566 149.420  0.00  0.00    -0.287 OA
HETATM    3  C   UNK     0     145.982 156.761 148.849  0.00  0.00     0.081 A 
HETATM    4  C   UNK     0     147.284 156.270 148.917  0.00  0.00     0.095 A 
HETATM    5  C   UNK     0     148.040 158.201 150.063  0.00  0.00     0.090 A 
HETATM    6  C   UNK     0     145.688 158.076 149.441  0.00  0.00     0.190 A 
HETATM    7  C   UNK     0     146.827 158.778 150.067  0.00  0.00     0.094 A 
HETATM    8  C   UNK     0     144.977 156.015 148.230  0.00  0.00     0.085 A 
HETATM    9  C   UNK     0     147.589 155.025 148.365  0.00  0.00     0.075 A 
HETATM   10  C   UNK     0     146.587 154.277 147.747  0.00  0.00     0.071 A 
HETATM   11  C   UNK     0     145.285 154.771 147.679  0.00  0.00     0.074 A 
ENDROOT
BRANCH   5  12
HETATM   12  C   UNK     0     149.211 158.852 150.682  0.00  0.00     0.001 A 
HETATM   13  C   UNK     0     149.123 160.169 151.140  0.00  0.00     0.053 A 
HETATM   14  C   UNK     0     150.230 160.783 151.724  0.00  0.00     0.099 A 
HETATM   15  C   UNK     0     151.430 160.083 151.853  0.00  0.00     0.098 A 
HETATM   16  C   UNK     0     151.522 158.769 151.396  0.00  0.00     0.040 A 
HETATM   17  C   UNK     0     150.415 158.154 150.812  0.00  0.00     0.017 A 
BRANCH  14  18
HETATM   18  O   UNK     0     150.129 162.069 152.166  0.00  0.00    -0.358 OA
HETATM   19  H   UNK     0     150.988 162.333 152.535  0.00  0.00     0.217 HD
ENDBRANCH  14  18
BRANCH  15  20
HETATM   20  O   UNK     0     152.518 160.672 152.423  0.00  0.00    -0.358 OA
HETATM   21  H   UNK     0     152.367 161.631 152.475  0.00  0.00     0.217 HD
ENDBRANCH  15  20
ENDBRANCH   5  12
BRANCH   8  22
HETATM   22  O   UNK     0     143.690 156.452 148.139  0.00  0.00    -0.360 OA
HETATM   23  H   UNK     0     143.259 156.079 147.355  0.00  0.00     0.217 HD
ENDBRANCH   8  22
BRANCH  10  24
HETATM   24  O   UNK     0     146.882 153.061 147.207  0.00  0.00    -0.361 OA
HETATM   25  H   UNK     0     146.868 152.391 147.912  0.00  0.00     0.217 HD
ENDBRANCH  10  24
TORSDOF 5
ENDMDL
