REMARK  21 active torsions:
REMARK  status: ('A' for Active; 'I' for Inactive)
REMARK    1  A    between atoms: C_3  and  O_78 
REMARK    2  A    between atoms: C_5  and  O_77 
REMARK    3  A    between atoms: C_6  and  O_76 
REMARK    4  A    between atoms: C_7  and  O_15 
REMARK    5  A    between atoms: C_8  and  C_17 
REMARK    6  A    between atoms: C_9  and  O_13 
REMARK    7  A    between atoms: C_16  and  O_24 
REMARK    8  A    between atoms: C_18  and  O_22 
REMARK    9  A    between atoms: C_19  and  C_72 
REMARK   10  A    between atoms: C_20  and  O_23 
REMARK   11  A    between atoms: C_28  and  O_32 
REMARK   12  A    between atoms: C_30  and  O_33 
REMARK   13  A    between atoms: C_37  and  O_42 
REMARK   14  A    between atoms: C_39  and  O_43 
REMARK   15  A    between atoms: C_46  and  O_67 
REMARK   16  A    between atoms: C_48  and  O_65 
REMARK   17  A    between atoms: C_49  and  C_52 
REMARK   18  A    between atoms: C_50  and  O_66 
REMARK   19  A    between atoms: C_52  and  O_60 
REMARK   20  A    between atoms: C_54  and  O_60 
REMARK   21  A    between atoms: C_72  and  O_73 
ROOT
HETATM    1  C   UNK     0      15.879  -9.686  -1.823  0.00  0.00     0.058 A 
HETATM    2  C   UNK     0      15.390 -10.983  -1.878  0.00  0.00     0.060 A 
HETATM    3  C   UNK     0      15.017  -8.606  -1.765  0.00  0.00     0.102 A 
HETATM    4  C   UNK     0      14.006 -11.206  -1.874  0.00  0.00     0.127 A 
HETATM    5  C   UNK     0      13.652  -8.819  -1.759  0.00  0.00     0.135 A 
HETATM    6  C   UNK     0      13.155 -10.110  -1.812  0.00  0.00     0.137 A 
HETATM    7  C   UNK     0      13.002 -16.042  -1.577  0.00  0.00     0.114 A 
HETATM    8  C   UNK     0      14.290 -16.520  -1.805  0.00  0.00     0.030 A 
HETATM    9  C   UNK     0      12.707 -14.688  -1.617  0.00  0.00     0.134 A 
HETATM   10  C   UNK     0      15.293 -15.581  -2.078  0.00  0.00     0.059 A 
HETATM   11  C   UNK     0      13.700 -13.766  -1.889  0.00  0.00     0.116 A 
HETATM   12  C   UNK     0      14.976 -14.235  -2.117  0.00  0.00     0.329 A 
HETATM   13  O   UNK     0      13.373 -12.431  -1.941  0.00  0.00    -0.304 OA
HETATM   14  C   UNK     0      16.704 -15.889  -2.338  0.00  0.00     0.295 C 
HETATM   15  C   UNK     0      22.173 -21.885  -1.597  0.00  0.00     0.026 A 
HETATM   16  C   UNK     0      22.067 -20.519  -1.845  0.00  0.00     0.006 A 
HETATM   17  C   UNK     0      21.065 -22.711  -1.556  0.00  0.00     0.111 A 
HETATM   18  C   UNK     0      20.780 -19.990  -2.052  0.00  0.00     0.054 A 
HETATM   19  C   UNK     0      19.808 -22.181  -1.760  0.00  0.00     0.100 A 
HETATM   20  C   UNK     0      19.674 -20.828  -2.006  0.00  0.00     0.058 A 
HETATM   21  O   UNK     0      23.406 -22.426  -1.398  0.00  0.00     0.000 OA
HETATM   22  C   UNK     0      24.509 -20.587  -2.201  0.00  0.00     0.026 A 
HETATM   23  C   UNK     0      23.413 -19.787  -1.880  0.00  0.00     0.006 A 
HETATM   24  C   UNK     0      25.797 -20.082  -2.240  0.00  0.00     0.111 A 
HETATM   25  C   UNK     0      23.659 -18.435  -1.601  0.00  0.00     0.054 A 
HETATM   26  C   UNK     0      26.022 -18.750  -1.958  0.00  0.00     0.100 A 
HETATM   27  C   UNK     0      24.953 -17.937  -1.641  0.00  0.00     0.058 A 
HETATM   28  C   UNK     0      22.629 -17.472  -1.246  0.00  0.00     0.294 C 
HETATM   29  O   UNK     0      24.308 -21.903  -2.477  0.00  0.00     0.000 OA
HETATM   30  O   UNK     0      22.152 -17.488  -0.134  0.00  0.00    -0.259 OA
HETATM   31  C   UNK     0      21.118 -14.385  -2.329  0.00  0.00     0.302 C 
HETATM   32  C   UNK     0      21.175 -15.724  -1.636  0.00  0.00     0.220 C 
HETATM   33  O   UNK     0      20.123 -13.581  -1.681  0.00  0.00    -0.348 OA
HETATM   34  C   UNK     0      19.860 -16.394  -1.856  0.00  0.00     0.198 C 
HETATM   35  C   UNK     0      18.788 -14.123  -1.597  0.00  0.00     0.181 C 
HETATM   36  C   UNK     0      18.807 -15.607  -1.087  0.00  0.00     0.195 C 
HETATM   37  C   UNK     0      17.966 -13.278  -0.612  0.00  0.00     0.212 C 
HETATM   38  O   UNK     0      19.939 -17.742  -1.412  0.00  0.00    -0.306 OA
HETATM   39  O   UNK     0      17.520 -16.197  -1.285  0.00  0.00    -0.307 OA
HETATM   40  O   UNK     0      22.212 -16.536  -2.147  0.00  0.00    -0.304 OA
HETATM   41  O   UNK     0      17.492 -12.054  -1.162  0.00  0.00    -0.328 OA
HETATM   42  C   UNK     0      20.484 -18.581  -2.348  0.00  0.00     0.294 C 
HETATM   43  O   UNK     0      20.697 -18.156  -3.459  0.00  0.00    -0.259 OA
HETATM   44  O   UNK     0      17.155 -15.812  -3.458  0.00  0.00    -0.259 OA
HETATM   45  C   UNK     0      16.375 -12.069  -1.939  0.00  0.00     0.179 C 
HETATM   46  O   UNK     0      16.169 -13.015  -2.665  0.00  0.00    -0.383 OA
HETATM   47  H   UNK     0      23.501 -23.418  -1.223  0.00  0.00     0.000 HD
HETATM   48  H   UNK     0      25.095 -22.498  -2.705  0.00  0.00     0.000 HD
ENDROOT
BRANCH   3  49
HETATM   49  O   UNK     0      15.509  -7.339  -1.715  0.00  0.00    -0.358 OA
HETATM   50  H   UNK     0      14.875  -6.551  -1.672  0.00  0.00     0.217 HD
ENDBRANCH   3  49
BRANCH   5  51
HETATM   51  O   UNK     0      12.798  -7.761  -1.703  0.00  0.00    -0.356 OA
HETATM   52  H   UNK     0      11.798  -7.918  -1.700  0.00  0.00     0.218 HD
ENDBRANCH   5  51
BRANCH   6  53
HETATM   53  O   UNK     0      11.809 -10.309  -1.808  0.00  0.00    -0.356 OA
HETATM   54  H   UNK     0      11.180  -9.517  -1.768  0.00  0.00     0.218 HD
ENDBRANCH   6  53
BRANCH   9  55
HETATM   55  O   UNK     0      11.431 -14.269  -1.399  0.00  0.00    -0.356 OA
HETATM   56  H   UNK     0      11.209 -13.282  -1.435  0.00  0.00     0.218 HD
ENDBRANCH   9  55
BRANCH   7  57
HETATM   57  O   UNK     0      12.004 -16.930  -1.321  0.00  0.00    -0.357 OA
HETATM   58  H   UNK     0      11.061 -16.598  -1.162  0.00  0.00     0.217 HD
ENDBRANCH   7  57
BRANCH   8  59
HETATM   59  C   UNK     0      14.440 -18.032  -1.759  0.00  0.00     0.023 A 
HETATM   60  C   UNK     0      13.301 -18.749  -2.111  0.00  0.00     0.113 A 
HETATM   61  C   UNK     0      13.284 -20.132  -2.109  0.00  0.00     0.133 A 
HETATM   62  C   UNK     0      14.420 -20.832  -1.755  0.00  0.00     0.102 A 
HETATM   63  C   UNK     0      15.561 -20.140  -1.395  0.00  0.00     0.049 A 
HETATM   64  C   UNK     0      15.583 -18.752  -1.389  0.00  0.00    -0.018 A 
BRANCH  60  65
HETATM   65  O   UNK     0      12.173 -18.071  -2.457  0.00  0.00    -0.357 OA
HETATM   66  H   UNK     0      11.335 -18.578  -2.709  0.00  0.00     0.217 HD
ENDBRANCH  60  65
BRANCH  61  67
HETATM   67  O   UNK     0      12.151 -20.800  -2.451  0.00  0.00    -0.356 OA
HETATM   68  H   UNK     0      12.138 -21.812  -2.447  0.00  0.00     0.218 HD
ENDBRANCH  61  67
BRANCH  62  69
HETATM   69  O   UNK     0      14.412 -22.192  -1.755  0.00  0.00    -0.358 OA
HETATM   70  H   UNK     0      15.244 -22.703  -1.491  0.00  0.00     0.217 HD
ENDBRANCH  62  69
BRANCH  64  71
HETATM   71  C   UNK     0      16.874 -18.112  -0.961  0.00  0.00     0.203 C 
BRANCH  71  72
HETATM   72  O   UNK     0      17.691 -17.933  -2.110  0.00  0.00    -0.396 OA
HETATM   73  H   UNK     0      18.602 -18.372  -2.157  0.00  0.00     0.209 HD
ENDBRANCH  71  72
ENDBRANCH  64  71
ENDBRANCH   8  59
BRANCH  31  74
HETATM   74  O   UNK     0      22.382 -13.744  -2.249  0.00  0.00    -0.283 OA
BRANCH  74  75
HETATM   75  C   UNK     0      22.422 -12.481  -1.757  0.00  0.00     0.295 C 
HETATM   76  O   UNK     0      21.423 -11.996  -1.279  0.00  0.00    -0.259 OA
BRANCH  75  77
HETATM   77  C   UNK     0      23.666 -11.700  -1.793  0.00  0.00     0.045 A 
HETATM   78  C   UNK     0      24.896 -12.336  -1.731  0.00  0.00     0.057 A 
HETATM   79  C   UNK     0      26.063 -11.588  -1.759  0.00  0.00     0.102 A 
HETATM   80  C   UNK     0      26.000 -10.206  -1.845  0.00  0.00     0.132 A 
HETATM   81  C   UNK     0      24.770  -9.571  -1.908  0.00  0.00     0.102 A 
HETATM   82  C   UNK     0      23.604 -10.318  -1.884  0.00  0.00     0.057 A 
BRANCH  79  83
HETATM   83  O   UNK     0      27.273 -12.209  -1.700  0.00  0.00    -0.358 OA
HETATM   84  H   UNK     0      28.124 -11.662  -1.719  0.00  0.00     0.217 HD
ENDBRANCH  79  83
BRANCH  80  85
HETATM   85  O   UNK     0      27.145  -9.472  -1.865  0.00  0.00    -0.356 OA
HETATM   86  H   UNK     0      27.098  -8.462  -1.926  0.00  0.00     0.218 HD
ENDBRANCH  80  85
BRANCH  81  87
HETATM   87  O   UNK     0      24.708  -8.216  -1.990  0.00  0.00    -0.358 OA
HETATM   88  H   UNK     0      23.810  -7.752  -2.034  0.00  0.00     0.217 HD
ENDBRANCH  81  87
ENDBRANCH  75  77
ENDBRANCH  74  75
ENDBRANCH  31  74
BRANCH  19  89
HETATM   89  O   UNK     0      18.714 -22.988  -1.723  0.00  0.00    -0.358 OA
HETATM   90  H   UNK     0      17.792 -22.599  -1.877  0.00  0.00     0.217 HD
ENDBRANCH  19  89
BRANCH  26  91
HETATM   91  O   UNK     0      27.285 -18.246  -1.987  0.00  0.00    -0.358 OA
HETATM   92  H   UNK     0      27.445 -17.270  -1.776  0.00  0.00     0.217 HD
ENDBRANCH  26  91
BRANCH  17  93
HETATM   93  O   UNK     0      21.213 -24.043  -1.320  0.00  0.00    -0.357 OA
HETATM   94  H   UNK     0      20.400 -24.646  -1.294  0.00  0.00     0.217 HD
ENDBRANCH  17  93
BRANCH  24  95
HETATM   95  O   UNK     0      26.842 -20.897  -2.550  0.00  0.00    -0.357 OA
HETATM   96  H   UNK     0      27.783 -20.526  -2.573  0.00  0.00     0.217 HD
ENDBRANCH  24  95
TORSDOF 21
