MODEL 1
REMARK VINA RESULT:      -4.3      0.000      0.000
REMARK  Name = 525
REMARK                            x       y       z     vdW  Elec       q    Type
REMARK                         _______ _______ _______ _____ _____    ______ ____
ROOT
ATOM      3  C   LIG    1      190.239 182.963 182.131  0.00  0.00    +0.233 C 
ENDROOT
BRANCH   3   1
ATOM      1  O   LIG    1      189.691 182.839 180.825  0.00  0.00    -0.380 OA
ATOM      2  H   LIG    1      189.665 183.729 180.434  0.00  0.00    +0.211 HD
ENDBRANCH   3   1
BRANCH   3   4
ATOM      4  C   LIG    1      189.287 182.298 183.106  0.00  0.00    +0.334 C 
ATOM      5  O   LIG    1      189.625 181.539 184.004  0.00  0.00    -0.248 OA
BRANCH   4   6
ATOM      6  O   LIG    1      187.992 182.624 182.861  0.00  0.00    -0.479 OA
ATOM      7  H   LIG    1      187.370 182.030 183.333  0.00  0.00    +0.295 HD
ENDBRANCH   4   6
ENDBRANCH   3   4
BRANCH   3   8
ATOM      8  C   LIG    1      190.398 184.449 182.448  0.00  0.00    +0.163 C 
BRANCH   8   9
ATOM      9  C   LIG    1      189.637 185.320 181.475  0.00  0.00    +0.308 C 
ATOM     10  O   LIG    1      190.089 185.851 180.473  0.00  0.00    -0.251 OA
BRANCH   9  11
ATOM     11  O   LIG    1      188.347 185.449 181.880  0.00  0.00    -0.481 OA
ATOM     12  H   LIG    1      188.187 185.003 182.739  0.00  0.00    +0.295 HD
ENDBRANCH   9  11
ENDBRANCH   8   9
ENDBRANCH   3   8
TORSDOF 6
ENDMDL
MODEL 2
REMARK VINA RESULT:      -4.2      7.155      8.060
REMARK  Name = 525
REMARK                            x       y       z     vdW  Elec       q    Type
REMARK                         _______ _______ _______ _____ _____    ______ ____
ROOT
ATOM      3  C   LIG    1      187.009 184.113 174.980  0.00  0.00    +0.233 C 
ENDROOT
BRANCH   3   1
ATOM      1  O   LIG    1      188.150 184.013 174.139  0.00  0.00    -0.380 OA
ATOM      2  H   LIG    1      188.172 183.108 173.783  0.00  0.00    +0.211 HD
ENDBRANCH   3   1
BRANCH   3   4
ATOM      4  C   LIG    1      186.021 183.040 174.563  0.00  0.00    +0.334 C 
ATOM      5  O   LIG    1      185.532 182.939 173.447  0.00  0.00    -0.248 OA
BRANCH   4   6
ATOM      6  O   LIG    1      185.714 182.200 175.585  0.00  0.00    -0.479 OA
ATOM      7  H   LIG    1      184.750 182.176 175.761  0.00  0.00    +0.295 HD
ENDBRANCH   4   6
ENDBRANCH   3   4
BRANCH   3   8
ATOM      8  C   LIG    1      186.407 185.507 174.812  0.00  0.00    +0.163 C 
BRANCH   8   9
ATOM      9  C   LIG    1      185.600 185.924 176.019  0.00  0.00    +0.308 C 
ATOM     10  O   LIG    1      184.407 186.191 176.036  0.00  0.00    -0.251 OA
BRANCH   9  11
ATOM     11  O   LIG    1      186.398 185.978 177.117  0.00  0.00    -0.481 OA
ATOM     12  H   LIG    1      187.339 186.125 176.877  0.00  0.00    +0.295 HD
ENDBRANCH   9  11
ENDBRANCH   8   9
ENDBRANCH   3   8
TORSDOF 6
ENDMDL
MODEL 3
REMARK VINA RESULT:      -4.2      2.343      3.575
REMARK  Name = 525
REMARK                            x       y       z     vdW  Elec       q    Type
REMARK                         _______ _______ _______ _____ _____    ______ ____
ROOT
ATOM      3  C   LIG    1      190.818 186.157 181.454  0.00  0.00    +0.233 C 
ENDROOT
BRANCH   3   1
ATOM      1  O   LIG    1      191.079 186.270 180.062  0.00  0.00    -0.380 OA
ATOM      2  H   LIG    1      191.998 185.987 179.913  0.00  0.00    +0.211 HD
ENDBRANCH   3   1
BRANCH   3   4
ATOM      4  C   LIG    1      189.529 185.378 181.629  0.00  0.00    +0.334 C 
ATOM      5  O   LIG    1      189.417 184.353 182.289  0.00  0.00    -0.248 OA
BRANCH   4   6
ATOM      6  O   LIG    1      188.495 185.936 180.948  0.00  0.00    -0.479 OA
ATOM      7  H   LIG    1      188.533 186.916 180.967  0.00  0.00    +0.295 HD
ENDBRANCH   4   6
ENDBRANCH   3   4
BRANCH   3   8
ATOM      8  C   LIG    1      190.690 187.565 182.035  0.00  0.00    +0.163 C 
BRANCH   8   9
ATOM      9  C   LIG    1      190.779 188.629 180.966  0.00  0.00    +0.308 C 
ATOM     10  O   LIG    1      191.735 189.357 180.748  0.00  0.00    -0.251 OA
BRANCH   9  11
ATOM     11  O   LIG    1      189.617 188.680 180.264  0.00  0.00    -0.481 OA
ATOM     12  H   LIG    1      189.445 189.579 179.909  0.00  0.00    +0.295 HD
ENDBRANCH   9  11
ENDBRANCH   8   9
ENDBRANCH   3   8
TORSDOF 6
ENDMDL
MODEL 4
REMARK VINA RESULT:      -4.2      7.722      8.992
REMARK  Name = 525
REMARK                            x       y       z     vdW  Elec       q    Type
REMARK                         _______ _______ _______ _____ _____    ______ ____
ROOT
ATOM      3  C   LIG    1      185.849 186.438 174.254  0.00  0.00    +0.233 C 
ENDROOT
BRANCH   3   1
ATOM      1  O   LIG    1      187.033 187.207 174.421  0.00  0.00    -0.380 OA
ATOM      2  H   LIG    1      186.772 188.143 174.450  0.00  0.00    +0.211 HD
ENDBRANCH   3   1
BRANCH   3   4
ATOM      4  C   LIG    1      185.469 185.859 175.603  0.00  0.00    +0.334 C 
ATOM      5  O   LIG    1      184.624 184.993 175.778  0.00  0.00    -0.248 OA
BRANCH   4   6
ATOM      6  O   LIG    1      186.167 186.429 176.620  0.00  0.00    -0.479 OA
ATOM      7  H   LIG    1      185.638 187.108 177.090  0.00  0.00    +0.295 HD
ENDBRANCH   4   6
ENDBRANCH   3   4
BRANCH   3   8
ATOM      8  C   LIG    1      186.133 185.329 173.242  0.00  0.00    +0.163 C 
BRANCH   8   9
ATOM      9  C   LIG    1      187.606 185.217 172.925  0.00  0.00    +0.308 C 
ATOM     10  O   LIG    1      188.183 185.730 171.978  0.00  0.00    -0.251 OA
BRANCH   9  11
ATOM     11  O   LIG    1      188.223 184.438 173.851  0.00  0.00    -0.481 OA
ATOM     12  H   LIG    1      188.027 183.486 173.715  0.00  0.00    +0.295 HD
ENDBRANCH   9  11
ENDBRANCH   8   9
ENDBRANCH   3   8
TORSDOF 6
ENDMDL
MODEL 5
REMARK VINA RESULT:      -4.1      7.715      8.887
REMARK  Name = 525
REMARK                            x       y       z     vdW  Elec       q    Type
REMARK                         _______ _______ _______ _____ _____    ______ ____
ROOT
ATOM      3  C   LIG    1      187.132 184.766 174.359  0.00  0.00    +0.233 C 
ENDROOT
BRANCH   3   1
ATOM      1  O   LIG    1      187.417 184.863 175.748  0.00  0.00    -0.380 OA
ATOM      2  H   LIG    1      186.921 185.624 176.095  0.00  0.00    +0.211 HD
ENDBRANCH   3   1
BRANCH   3   4
ATOM      4  C   LIG    1      187.586 186.052 173.694  0.00  0.00    +0.334 C 
ATOM      5  O   LIG    1      188.304 186.110 172.705  0.00  0.00    -0.248 OA
BRANCH   4   6
ATOM      6  O   LIG    1      187.119 187.153 174.336  0.00  0.00    -0.479 OA
ATOM      7  H   LIG    1      187.546 187.974 174.010  0.00  0.00    +0.295 HD
ENDBRANCH   4   6
ENDBRANCH   3   4
BRANCH   3   8
ATOM      8  C   LIG    1      185.627 184.563 174.189  0.00  0.00    +0.163 C 
BRANCH   8   9
ATOM      9  C   LIG    1      184.868 184.873 175.457  0.00  0.00    +0.308 C 
ATOM     10  O   LIG    1      184.630 185.985 175.906  0.00  0.00    -0.251 OA
BRANCH   9  11
ATOM     11  O   LIG    1      184.481 183.719 176.061  0.00  0.00    -0.481 OA
ATOM     12  H   LIG    1      183.554 183.485 175.840  0.00  0.00    +0.295 HD
ENDBRANCH   9  11
ENDBRANCH   8   9
ENDBRANCH   3   8
TORSDOF 6
ENDMDL
MODEL 6
REMARK VINA RESULT:      -4.1      1.116      3.530
REMARK  Name = 525
REMARK                            x       y       z     vdW  Elec       q    Type
REMARK                         _______ _______ _______ _____ _____    ______ ____
ROOT
ATOM      3  C   LIG    1      190.033 184.422 182.092  0.00  0.00    +0.233 C 
ENDROOT
BRANCH   3   1
ATOM      1  O   LIG    1      188.638 184.691 182.124  0.00  0.00    -0.380 OA
ATOM      2  H   LIG    1      188.328 184.521 183.030  0.00  0.00    +0.211 HD
ENDBRANCH   3   1
BRANCH   3   4
ATOM      4  C   LIG    1      190.427 184.151 180.653  0.00  0.00    +0.334 C 
ATOM      5  O   LIG    1      191.209 184.832 180.004  0.00  0.00    -0.248 OA
BRANCH   4   6
ATOM      6  O   LIG    1      189.794 183.063 180.145  0.00  0.00    -0.479 OA
ATOM      7  H   LIG    1      190.131 182.827 179.254  0.00  0.00    +0.295 HD
ENDBRANCH   4   6
ENDBRANCH   3   4
BRANCH   3   8
ATOM      8  C   LIG    1      190.310 183.206 182.974  0.00  0.00    +0.163 C 
BRANCH   8   9
ATOM      9  C   LIG    1      189.056 182.407 183.246  0.00  0.00    +0.308 C 
ATOM     10  O   LIG    1      188.471 181.686 182.452  0.00  0.00    -0.251 OA
BRANCH   9  11
ATOM     11  O   LIG    1      188.644 182.609 184.524  0.00  0.00    -0.481 OA
ATOM     12  H   LIG    1      189.076 181.988 185.150  0.00  0.00    +0.295 HD
ENDBRANCH   9  11
ENDBRANCH   8   9
ENDBRANCH   3   8
TORSDOF 6
ENDMDL
MODEL 7
REMARK VINA RESULT:      -4.1      0.922      3.917
REMARK  Name = 525
REMARK                            x       y       z     vdW  Elec       q    Type
REMARK                         _______ _______ _______ _____ _____    ______ ____
ROOT
ATOM      3  C   LIG    1      189.810 185.587 181.953  0.00  0.00    +0.233 C 
ENDROOT
BRANCH   3   1
ATOM      1  O   LIG    1      188.427 185.258 181.945  0.00  0.00    -0.380 OA
ATOM      2  H   LIG    1      187.988 185.858 181.318  0.00  0.00    +0.211 HD
ENDBRANCH   3   1
BRANCH   3   4
ATOM      4  C   LIG    1      190.180 186.101 180.575  0.00  0.00    +0.334 C 
ATOM      5  O   LIG    1      191.013 185.589 179.841  0.00  0.00    -0.248 OA
BRANCH   4   6
ATOM      6  O   LIG    1      189.489 187.222 180.244  0.00  0.00    -0.479 OA
ATOM      7  H   LIG    1      190.031 187.838 179.705  0.00  0.00    +0.295 HD
ENDBRANCH   4   6
ENDBRANCH   3   4
BRANCH   3   8
ATOM      8  C   LIG    1      190.602 184.328 182.299  0.00  0.00    +0.163 C 
BRANCH   8   9
ATOM      9  C   LIG    1      189.800 183.070 182.058  0.00  0.00    +0.308 C 
ATOM     10  O   LIG    1      189.226 182.404 182.906  0.00  0.00    -0.251 OA
BRANCH   9  11
ATOM     11  O   LIG    1      189.809 182.760 180.736  0.00  0.00    -0.481 OA
ATOM     12  H   LIG    1      189.308 181.936 180.551  0.00  0.00    +0.295 HD
ENDBRANCH   9  11
ENDBRANCH   8   9
ENDBRANCH   3   8
TORSDOF 6
ENDMDL
MODEL 8
REMARK VINA RESULT:      -4.1      7.686      9.122
REMARK  Name = 525
REMARK                            x       y       z     vdW  Elec       q    Type
REMARK                         _______ _______ _______ _____ _____    ______ ____
ROOT
ATOM      3  C   LIG    1      187.120 185.381 173.809  0.00  0.00    +0.233 C 
ENDROOT
BRANCH   3   1
ATOM      1  O   LIG    1      187.853 184.865 174.912  0.00  0.00    -0.380 OA
ATOM      2  H   LIG    1      187.486 185.265 175.719  0.00  0.00    +0.211 HD
ENDBRANCH   3   1
BRANCH   3   4
ATOM      4  C   LIG    1      188.081 186.152 172.925  0.00  0.00    +0.334 C 
ATOM      5  O   LIG    1      188.351 185.861 171.768  0.00  0.00    -0.248 OA
BRANCH   4   6
ATOM      6  O   LIG    1      188.637 187.209 173.571  0.00  0.00    -0.479 OA
ATOM      7  H   LIG    1      189.600 187.279 173.396  0.00  0.00    +0.295 HD
ENDBRANCH   4   6
ENDBRANCH   3   4
BRANCH   3   8
ATOM      8  C   LIG    1      186.019 186.293 174.346  0.00  0.00    +0.163 C 
BRANCH   8   9
ATOM      9  C   LIG    1      185.496 185.822 175.683  0.00  0.00    +0.308 C 
ATOM     10  O   LIG    1      184.668 184.943 175.867  0.00  0.00    -0.251 OA
BRANCH   9  11
ATOM     11  O   LIG    1      186.074 186.533 176.685  0.00  0.00    -0.481 OA
ATOM     12  H   LIG    1      186.300 187.445 176.403  0.00  0.00    +0.295 HD
ENDBRANCH   9  11
ENDBRANCH   8   9
ENDBRANCH   3   8
TORSDOF 6
ENDMDL
MODEL 9
REMARK VINA RESULT:      -4.1      7.816      8.600
REMARK  Name = 525
REMARK                            x       y       z     vdW  Elec       q    Type
REMARK                         _______ _______ _______ _____ _____    ______ ____
ROOT
ATOM      3  C   LIG    1      187.019 184.161 174.992  0.00  0.00    +0.233 C 
ENDROOT
BRANCH   3   1
ATOM      1  O   LIG    1      188.024 184.307 173.998  0.00  0.00    -0.380 OA
ATOM      2  H   LIG    1      188.836 183.897 174.342  0.00  0.00    +0.211 HD
ENDBRANCH   3   1
BRANCH   3   4
ATOM      4  C   LIG    1      186.064 183.073 174.538  0.00  0.00    +0.334 C 
ATOM      5  O   LIG    1      185.598 182.980 173.411  0.00  0.00    -0.248 OA
BRANCH   4   6
ATOM      6  O   LIG    1      185.759 182.208 175.539  0.00  0.00    -0.479 OA
ATOM      7  H   LIG    1      185.271 182.650 176.267  0.00  0.00    +0.295 HD
ENDBRANCH   4   6
ENDBRANCH   3   4
BRANCH   3   8
ATOM      8  C   LIG    1      186.294 185.497 175.145  0.00  0.00    +0.163 C 
BRANCH   8   9
ATOM      9  C   LIG    1      186.496 186.391 173.944  0.00  0.00    +0.308 C 
ATOM     10  O   LIG    1      185.890 186.329 172.885  0.00  0.00    -0.251 OA
BRANCH   9  11
ATOM     11  O   LIG    1      187.479 187.294 174.197  0.00  0.00    -0.481 OA
ATOM     12  H   LIG    1      187.227 187.918 174.911  0.00  0.00    +0.295 HD
ENDBRANCH   9  11
ENDBRANCH   8   9
ENDBRANCH   3   8
TORSDOF 6
ENDMDL
MODEL 10
REMARK VINA RESULT:      -4.1      7.828      8.824
REMARK  Name = 525
REMARK                            x       y       z     vdW  Elec       q    Type
REMARK                         _______ _______ _______ _____ _____    ______ ____
ROOT
ATOM      3  C   LIG    1      186.023 182.857 174.432  0.00  0.00    +0.233 C 
ENDROOT
BRANCH   3   1
ATOM      1  O   LIG    1      185.630 182.192 175.626  0.00  0.00    -0.380 OA
ATOM      2  H   LIG    1      186.395 181.680 175.940  0.00  0.00    +0.211 HD
ENDBRANCH   3   1
BRANCH   3   4
ATOM      4  C   LIG    1      187.130 183.833 174.780  0.00  0.00    +0.334 C 
ATOM      5  O   LIG    1      186.952 184.976 175.179  0.00  0.00    -0.248 OA
BRANCH   4   6
ATOM      6  O   LIG    1      188.363 183.302 174.579  0.00  0.00    -0.479 OA
ATOM      7  H   LIG    1      188.971 183.499 175.324  0.00  0.00    +0.295 HD
ENDBRANCH   4   6
ENDBRANCH   3   4
BRANCH   3   8
ATOM      8  C   LIG    1      184.807 183.587 173.865  0.00  0.00    +0.163 C 
BRANCH   8   9
ATOM      9  C   LIG    1      183.706 183.734 174.890  0.00  0.00    +0.308 C 
ATOM     10  O   LIG    1      182.767 182.971 175.059  0.00  0.00    -0.251 OA
BRANCH   9  11
ATOM     11  O   LIG    1      183.896 184.867 175.615  0.00  0.00    -0.481 OA
ATOM     12  H   LIG    1      183.203 184.982 176.301  0.00  0.00    +0.295 HD
ENDBRANCH   9  11
ENDBRANCH   8   9
ENDBRANCH   3   8
TORSDOF 6
ENDMDL
