REMARK VINA RESULT:      -4.1      0.922      3.917
REMARK  Name = 525
REMARK                            x       y       z     vdW  Elec       q    Type
REMARK                         _______ _______ _______ _____ _____    ______ ____
ROOT
ATOM      3  C   LIG    1      189.810 185.587 181.953  0.00  0.00    +0.233 C 
ENDROOT
BRANCH   3   1
ATOM      1  O   LIG    1      188.427 185.258 181.945  0.00  0.00    -0.380 OA
ATOM      2  H   LIG    1      187.988 185.858 181.318  0.00  0.00    +0.211 HD
ENDBRANCH   3   1
BRANCH   3   4
ATOM      4  C   LIG    1      190.180 186.101 180.575  0.00  0.00    +0.334 C 
ATOM      5  O   LIG    1      191.013 185.589 179.841  0.00  0.00    -0.248 OA
BRANCH   4   6
ATOM      6  O   LIG    1      189.489 187.222 180.244  0.00  0.00    -0.479 OA
ATOM      7  H   LIG    1      190.031 187.838 179.705  0.00  0.00    +0.295 HD
ENDBRANCH   4   6
ENDBRANCH   3   4
BRANCH   3   8
ATOM      8  C   LIG    1      190.602 184.328 182.299  0.00  0.00    +0.163 C 
BRANCH   8   9
ATOM      9  C   LIG    1      189.800 183.070 182.058  0.00  0.00    +0.308 C 
ATOM     10  O   LIG    1      189.226 182.404 182.906  0.00  0.00    -0.251 OA
BRANCH   9  11
ATOM     11  O   LIG    1      189.809 182.760 180.736  0.00  0.00    -0.481 OA
ATOM     12  H   LIG    1      189.308 181.936 180.551  0.00  0.00    +0.295 HD
ENDBRANCH   9  11
ENDBRANCH   8   9
ENDBRANCH   3   8
TORSDOF 6
