REMARK VINA RESULT:      -4.2      7.155      8.060
REMARK  Name = 525
REMARK                            x       y       z     vdW  Elec       q    Type
REMARK                         _______ _______ _______ _____ _____    ______ ____
ROOT
ATOM      3  C   LIG    1      187.009 184.113 174.980  0.00  0.00    +0.233 C 
ENDROOT
BRANCH   3   1
ATOM      1  O   LIG    1      188.150 184.013 174.139  0.00  0.00    -0.380 OA
ATOM      2  H   LIG    1      188.172 183.108 173.783  0.00  0.00    +0.211 HD
ENDBRANCH   3   1
BRANCH   3   4
ATOM      4  C   LIG    1      186.021 183.040 174.563  0.00  0.00    +0.334 C 
ATOM      5  O   LIG    1      185.532 182.939 173.447  0.00  0.00    -0.248 OA
BRANCH   4   6
ATOM      6  O   LIG    1      185.714 182.200 175.585  0.00  0.00    -0.479 OA
ATOM      7  H   LIG    1      184.750 182.176 175.761  0.00  0.00    +0.295 HD
ENDBRANCH   4   6
ENDBRANCH   3   4
BRANCH   3   8
ATOM      8  C   LIG    1      186.407 185.507 174.812  0.00  0.00    +0.163 C 
BRANCH   8   9
ATOM      9  C   LIG    1      185.600 185.924 176.019  0.00  0.00    +0.308 C 
ATOM     10  O   LIG    1      184.407 186.191 176.036  0.00  0.00    -0.251 OA
BRANCH   9  11
ATOM     11  O   LIG    1      186.398 185.978 177.117  0.00  0.00    -0.481 OA
ATOM     12  H   LIG    1      187.339 186.125 176.877  0.00  0.00    +0.295 HD
ENDBRANCH   9  11
ENDBRANCH   8   9
ENDBRANCH   3   8
TORSDOF 6
