REMARK VINA RESULT:      -4.1      1.116      3.530
REMARK  Name = 525
REMARK                            x       y       z     vdW  Elec       q    Type
REMARK                         _______ _______ _______ _____ _____    ______ ____
ROOT
ATOM      3  C   LIG    1      190.033 184.422 182.092  0.00  0.00    +0.233 C 
ENDROOT
BRANCH   3   1
ATOM      1  O   LIG    1      188.638 184.691 182.124  0.00  0.00    -0.380 OA
ATOM      2  H   LIG    1      188.328 184.521 183.030  0.00  0.00    +0.211 HD
ENDBRANCH   3   1
BRANCH   3   4
ATOM      4  C   LIG    1      190.427 184.151 180.653  0.00  0.00    +0.334 C 
ATOM      5  O   LIG    1      191.209 184.832 180.004  0.00  0.00    -0.248 OA
BRANCH   4   6
ATOM      6  O   LIG    1      189.794 183.063 180.145  0.00  0.00    -0.479 OA
ATOM      7  H   LIG    1      190.131 182.827 179.254  0.00  0.00    +0.295 HD
ENDBRANCH   4   6
ENDBRANCH   3   4
BRANCH   3   8
ATOM      8  C   LIG    1      190.310 183.206 182.974  0.00  0.00    +0.163 C 
BRANCH   8   9
ATOM      9  C   LIG    1      189.056 182.407 183.246  0.00  0.00    +0.308 C 
ATOM     10  O   LIG    1      188.471 181.686 182.452  0.00  0.00    -0.251 OA
BRANCH   9  11
ATOM     11  O   LIG    1      188.644 182.609 184.524  0.00  0.00    -0.481 OA
ATOM     12  H   LIG    1      189.076 181.988 185.150  0.00  0.00    +0.295 HD
ENDBRANCH   9  11
ENDBRANCH   8   9
ENDBRANCH   3   8
TORSDOF 6
