REMARK VINA RESULT:      -4.1      7.816      8.600
REMARK  Name = 525
REMARK                            x       y       z     vdW  Elec       q    Type
REMARK                         _______ _______ _______ _____ _____    ______ ____
ROOT
ATOM      3  C   LIG    1      187.019 184.161 174.992  0.00  0.00    +0.233 C 
ENDROOT
BRANCH   3   1
ATOM      1  O   LIG    1      188.024 184.307 173.998  0.00  0.00    -0.380 OA
ATOM      2  H   LIG    1      188.836 183.897 174.342  0.00  0.00    +0.211 HD
ENDBRANCH   3   1
BRANCH   3   4
ATOM      4  C   LIG    1      186.064 183.073 174.538  0.00  0.00    +0.334 C 
ATOM      5  O   LIG    1      185.598 182.980 173.411  0.00  0.00    -0.248 OA
BRANCH   4   6
ATOM      6  O   LIG    1      185.759 182.208 175.539  0.00  0.00    -0.479 OA
ATOM      7  H   LIG    1      185.271 182.650 176.267  0.00  0.00    +0.295 HD
ENDBRANCH   4   6
ENDBRANCH   3   4
BRANCH   3   8
ATOM      8  C   LIG    1      186.294 185.497 175.145  0.00  0.00    +0.163 C 
BRANCH   8   9
ATOM      9  C   LIG    1      186.496 186.391 173.944  0.00  0.00    +0.308 C 
ATOM     10  O   LIG    1      185.890 186.329 172.885  0.00  0.00    -0.251 OA
BRANCH   9  11
ATOM     11  O   LIG    1      187.479 187.294 174.197  0.00  0.00    -0.481 OA
ATOM     12  H   LIG    1      187.227 187.918 174.911  0.00  0.00    +0.295 HD
ENDBRANCH   9  11
ENDBRANCH   8   9
ENDBRANCH   3   8
TORSDOF 6
