REMARK VINA RESULT:      -4.2      7.722      8.992
REMARK  Name = 525
REMARK                            x       y       z     vdW  Elec       q    Type
REMARK                         _______ _______ _______ _____ _____    ______ ____
ROOT
ATOM      3  C   LIG    1      185.849 186.438 174.254  0.00  0.00    +0.233 C 
ENDROOT
BRANCH   3   1
ATOM      1  O   LIG    1      187.033 187.207 174.421  0.00  0.00    -0.380 OA
ATOM      2  H   LIG    1      186.772 188.143 174.450  0.00  0.00    +0.211 HD
ENDBRANCH   3   1
BRANCH   3   4
ATOM      4  C   LIG    1      185.469 185.859 175.603  0.00  0.00    +0.334 C 
ATOM      5  O   LIG    1      184.624 184.993 175.778  0.00  0.00    -0.248 OA
BRANCH   4   6
ATOM      6  O   LIG    1      186.167 186.429 176.620  0.00  0.00    -0.479 OA
ATOM      7  H   LIG    1      185.638 187.108 177.090  0.00  0.00    +0.295 HD
ENDBRANCH   4   6
ENDBRANCH   3   4
BRANCH   3   8
ATOM      8  C   LIG    1      186.133 185.329 173.242  0.00  0.00    +0.163 C 
BRANCH   8   9
ATOM      9  C   LIG    1      187.606 185.217 172.925  0.00  0.00    +0.308 C 
ATOM     10  O   LIG    1      188.183 185.730 171.978  0.00  0.00    -0.251 OA
BRANCH   9  11
ATOM     11  O   LIG    1      188.223 184.438 173.851  0.00  0.00    -0.481 OA
ATOM     12  H   LIG    1      188.027 183.486 173.715  0.00  0.00    +0.295 HD
ENDBRANCH   9  11
ENDBRANCH   8   9
ENDBRANCH   3   8
TORSDOF 6
