REMARK VINA RESULT:      -4.1      7.715      8.887
REMARK  Name = 525
REMARK                            x       y       z     vdW  Elec       q    Type
REMARK                         _______ _______ _______ _____ _____    ______ ____
ROOT
ATOM      3  C   LIG    1      187.132 184.766 174.359  0.00  0.00    +0.233 C 
ENDROOT
BRANCH   3   1
ATOM      1  O   LIG    1      187.417 184.863 175.748  0.00  0.00    -0.380 OA
ATOM      2  H   LIG    1      186.921 185.624 176.095  0.00  0.00    +0.211 HD
ENDBRANCH   3   1
BRANCH   3   4
ATOM      4  C   LIG    1      187.586 186.052 173.694  0.00  0.00    +0.334 C 
ATOM      5  O   LIG    1      188.304 186.110 172.705  0.00  0.00    -0.248 OA
BRANCH   4   6
ATOM      6  O   LIG    1      187.119 187.153 174.336  0.00  0.00    -0.479 OA
ATOM      7  H   LIG    1      187.546 187.974 174.010  0.00  0.00    +0.295 HD
ENDBRANCH   4   6
ENDBRANCH   3   4
BRANCH   3   8
ATOM      8  C   LIG    1      185.627 184.563 174.189  0.00  0.00    +0.163 C 
BRANCH   8   9
ATOM      9  C   LIG    1      184.868 184.873 175.457  0.00  0.00    +0.308 C 
ATOM     10  O   LIG    1      184.630 185.985 175.906  0.00  0.00    -0.251 OA
BRANCH   9  11
ATOM     11  O   LIG    1      184.481 183.719 176.061  0.00  0.00    -0.481 OA
ATOM     12  H   LIG    1      183.554 183.485 175.840  0.00  0.00    +0.295 HD
ENDBRANCH   9  11
ENDBRANCH   8   9
ENDBRANCH   3   8
TORSDOF 6
