REMARK VINA RESULT:      -4.1      7.686      9.122
REMARK  Name = 525
REMARK                            x       y       z     vdW  Elec       q    Type
REMARK                         _______ _______ _______ _____ _____    ______ ____
ROOT
ATOM      3  C   LIG    1      187.120 185.381 173.809  0.00  0.00    +0.233 C 
ENDROOT
BRANCH   3   1
ATOM      1  O   LIG    1      187.853 184.865 174.912  0.00  0.00    -0.380 OA
ATOM      2  H   LIG    1      187.486 185.265 175.719  0.00  0.00    +0.211 HD
ENDBRANCH   3   1
BRANCH   3   4
ATOM      4  C   LIG    1      188.081 186.152 172.925  0.00  0.00    +0.334 C 
ATOM      5  O   LIG    1      188.351 185.861 171.768  0.00  0.00    -0.248 OA
BRANCH   4   6
ATOM      6  O   LIG    1      188.637 187.209 173.571  0.00  0.00    -0.479 OA
ATOM      7  H   LIG    1      189.600 187.279 173.396  0.00  0.00    +0.295 HD
ENDBRANCH   4   6
ENDBRANCH   3   4
BRANCH   3   8
ATOM      8  C   LIG    1      186.019 186.293 174.346  0.00  0.00    +0.163 C 
BRANCH   8   9
ATOM      9  C   LIG    1      185.496 185.822 175.683  0.00  0.00    +0.308 C 
ATOM     10  O   LIG    1      184.668 184.943 175.867  0.00  0.00    -0.251 OA
BRANCH   9  11
ATOM     11  O   LIG    1      186.074 186.533 176.685  0.00  0.00    -0.481 OA
ATOM     12  H   LIG    1      186.300 187.445 176.403  0.00  0.00    +0.295 HD
ENDBRANCH   9  11
ENDBRANCH   8   9
ENDBRANCH   3   8
TORSDOF 6
