REMARK VINA RESULT:      -4.2      2.343      3.575
REMARK  Name = 525
REMARK                            x       y       z     vdW  Elec       q    Type
REMARK                         _______ _______ _______ _____ _____    ______ ____
ROOT
ATOM      3  C   LIG    1      190.818 186.157 181.454  0.00  0.00    +0.233 C 
ENDROOT
BRANCH   3   1
ATOM      1  O   LIG    1      191.079 186.270 180.062  0.00  0.00    -0.380 OA
ATOM      2  H   LIG    1      191.998 185.987 179.913  0.00  0.00    +0.211 HD
ENDBRANCH   3   1
BRANCH   3   4
ATOM      4  C   LIG    1      189.529 185.378 181.629  0.00  0.00    +0.334 C 
ATOM      5  O   LIG    1      189.417 184.353 182.289  0.00  0.00    -0.248 OA
BRANCH   4   6
ATOM      6  O   LIG    1      188.495 185.936 180.948  0.00  0.00    -0.479 OA
ATOM      7  H   LIG    1      188.533 186.916 180.967  0.00  0.00    +0.295 HD
ENDBRANCH   4   6
ENDBRANCH   3   4
BRANCH   3   8
ATOM      8  C   LIG    1      190.690 187.565 182.035  0.00  0.00    +0.163 C 
BRANCH   8   9
ATOM      9  C   LIG    1      190.779 188.629 180.966  0.00  0.00    +0.308 C 
ATOM     10  O   LIG    1      191.735 189.357 180.748  0.00  0.00    -0.251 OA
BRANCH   9  11
ATOM     11  O   LIG    1      189.617 188.680 180.264  0.00  0.00    -0.481 OA
ATOM     12  H   LIG    1      189.445 189.579 179.909  0.00  0.00    +0.295 HD
ENDBRANCH   9  11
ENDBRANCH   8   9
ENDBRANCH   3   8
TORSDOF 6
