REMARK VINA RESULT:      -4.1      7.828      8.824
REMARK  Name = 525
REMARK                            x       y       z     vdW  Elec       q    Type
REMARK                         _______ _______ _______ _____ _____    ______ ____
ROOT
ATOM      3  C   LIG    1      186.023 182.857 174.432  0.00  0.00    +0.233 C 
ENDROOT
BRANCH   3   1
ATOM      1  O   LIG    1      185.630 182.192 175.626  0.00  0.00    -0.380 OA
ATOM      2  H   LIG    1      186.395 181.680 175.940  0.00  0.00    +0.211 HD
ENDBRANCH   3   1
BRANCH   3   4
ATOM      4  C   LIG    1      187.130 183.833 174.780  0.00  0.00    +0.334 C 
ATOM      5  O   LIG    1      186.952 184.976 175.179  0.00  0.00    -0.248 OA
BRANCH   4   6
ATOM      6  O   LIG    1      188.363 183.302 174.579  0.00  0.00    -0.479 OA
ATOM      7  H   LIG    1      188.971 183.499 175.324  0.00  0.00    +0.295 HD
ENDBRANCH   4   6
ENDBRANCH   3   4
BRANCH   3   8
ATOM      8  C   LIG    1      184.807 183.587 173.865  0.00  0.00    +0.163 C 
BRANCH   8   9
ATOM      9  C   LIG    1      183.706 183.734 174.890  0.00  0.00    +0.308 C 
ATOM     10  O   LIG    1      182.767 182.971 175.059  0.00  0.00    -0.251 OA
BRANCH   9  11
ATOM     11  O   LIG    1      183.896 184.867 175.615  0.00  0.00    -0.481 OA
ATOM     12  H   LIG    1      183.203 184.982 176.301  0.00  0.00    +0.295 HD
ENDBRANCH   9  11
ENDBRANCH   8   9
ENDBRANCH   3   8
TORSDOF 6
