REMARK VINA RESULT:      -4.3      0.000      0.000
REMARK  Name = 525
REMARK                            x       y       z     vdW  Elec       q    Type
REMARK                         _______ _______ _______ _____ _____    ______ ____
ROOT
ATOM      3  C   LIG    1      190.239 182.963 182.131  0.00  0.00    +0.233 C 
ENDROOT
BRANCH   3   1
ATOM      1  O   LIG    1      189.691 182.839 180.825  0.00  0.00    -0.380 OA
ATOM      2  H   LIG    1      189.665 183.729 180.434  0.00  0.00    +0.211 HD
ENDBRANCH   3   1
BRANCH   3   4
ATOM      4  C   LIG    1      189.287 182.298 183.106  0.00  0.00    +0.334 C 
ATOM      5  O   LIG    1      189.625 181.539 184.004  0.00  0.00    -0.248 OA
BRANCH   4   6
ATOM      6  O   LIG    1      187.992 182.624 182.861  0.00  0.00    -0.479 OA
ATOM      7  H   LIG    1      187.370 182.030 183.333  0.00  0.00    +0.295 HD
ENDBRANCH   4   6
ENDBRANCH   3   4
BRANCH   3   8
ATOM      8  C   LIG    1      190.398 184.449 182.448  0.00  0.00    +0.163 C 
BRANCH   8   9
ATOM      9  C   LIG    1      189.637 185.320 181.475  0.00  0.00    +0.308 C 
ATOM     10  O   LIG    1      190.089 185.851 180.473  0.00  0.00    -0.251 OA
BRANCH   9  11
ATOM     11  O   LIG    1      188.347 185.449 181.880  0.00  0.00    -0.481 OA
ATOM     12  H   LIG    1      188.187 185.003 182.739  0.00  0.00    +0.295 HD
ENDBRANCH   9  11
ENDBRANCH   8   9
ENDBRANCH   3   8
TORSDOF 6
