MODEL 1
REMARK VINA RESULT:      -9.7      0.000      0.000
REMARK  11 active torsions:
REMARK  status: ('A' for Active; 'I' for Inactive)
REMARK    1  A    between atoms: O_2  and  C_16 
REMARK    2  A    between atoms: O_2  and  C_18 
REMARK    3  A    between atoms: O_3  and  C_12 
REMARK    4  A    between atoms: O_4  and  C_13 
REMARK    5  A    between atoms: O_5  and  C_14 
REMARK    6  A    between atoms: O_6  and  C_17 
REMARK    7  A    between atoms: O_8  and  C_23 
REMARK    8  A    between atoms: O_10  and  C_30 
REMARK    9  A    between atoms: O_11  and  C_32 
REMARK   10  A    between atoms: C_15  and  C_17 
REMARK   11  A    between atoms: C_25  and  C_27 
ROOT
HETATM    1  O   UNK     0     162.895 173.741 169.998  0.00  0.00    -0.348 OA
HETATM    2  C   UNK     0     162.292 173.585 167.194  0.00  0.00     0.183 C 
HETATM    3  C   UNK     0     161.260 174.028 168.232  0.00  0.00     0.180 C 
HETATM    4  C   UNK     0     163.403 172.755 167.838  0.00  0.00     0.205 C 
HETATM    5  C   UNK     0     161.946 174.657 169.446  0.00  0.00     0.179 C 
HETATM    6  C   UNK     0     163.952 173.436 169.091  0.00  0.00     0.298 C 
ENDROOT
BRANCH   5   7
HETATM    7  C   UNK     0     160.945 175.000 170.545  0.00  0.00     0.198 C 
BRANCH   7   8
HETATM    8  O   UNK     0     159.935 174.008 170.560  0.00  0.00    -0.398 OA
HETATM    9  H   UNK     0     160.268 173.255 171.078  0.00  0.00     0.209 HD
ENDBRANCH   7   8
ENDBRANCH   5   7
BRANCH   6  10
HETATM   10  O   UNK     0     164.875 172.542 169.710  0.00  0.00    -0.318 OA
BRANCH  10  11
HETATM   11  C   UNK     0     166.143 173.007 169.900  0.00  0.00     0.077 A 
HETATM   12  C   UNK     0     167.150 172.674 168.992  0.00  0.00     0.075 A 
HETATM   13  C   UNK     0     168.445 173.151 169.189  0.00  0.00     0.095 A 
HETATM   14  O   UNK     0     169.393 172.791 168.264  0.00  0.00    -0.309 OA
HETATM   15  C   UNK     0     168.732 173.957 170.290  0.00  0.00     0.081 A 
HETATM   16  C   UNK     0     170.688 173.255 168.431  0.00  0.00     0.090 A 
HETATM   17  C   UNK     0     171.088 174.030 169.451  0.00  0.00     0.094 A 
HETATM   18  C   UNK     0     170.108 174.444 170.474  0.00  0.00     0.190 A 
HETATM   19  O   UNK     0     170.429 175.151 171.419  0.00  0.00    -0.287 OA
HETATM   20  C   UNK     0     167.727 174.292 171.201  0.00  0.00     0.085 A 
HETATM   21  C   UNK     0     166.431 173.813 171.001  0.00  0.00     0.074 A 
BRANCH  16  22
HETATM   22  C   UNK     0     171.627 172.803 167.383  0.00  0.00     0.001 A 
HETATM   23  C   UNK     0     172.875 172.285 167.736  0.00  0.00     0.053 A 
HETATM   24  C   UNK     0     173.760 171.857 166.746  0.00  0.00     0.099 A 
HETATM   25  C   UNK     0     173.401 171.947 165.403  0.00  0.00     0.098 A 
HETATM   26  C   UNK     0     172.155 172.464 165.047  0.00  0.00     0.040 A 
HETATM   27  C   UNK     0     171.269 172.891 166.035  0.00  0.00     0.017 A 
BRANCH  24  28
HETATM   28  O   UNK     0     174.976 171.356 167.105  0.00  0.00    -0.358 OA
HETATM   29  H   UNK     0     175.197 171.696 167.989  0.00  0.00     0.217 HD
ENDBRANCH  24  28
BRANCH  25  30
HETATM   30  O   UNK     0     174.257 171.532 164.427  0.00  0.00    -0.358 OA
HETATM   31  H   UNK     0     175.081 172.045 164.489  0.00  0.00     0.217 HD
ENDBRANCH  25  30
ENDBRANCH  16  22
BRANCH  20  32
HETATM   32  O   UNK     0     167.957 175.074 172.291  0.00  0.00    -0.360 OA
HETATM   33  H   UNK     0     168.879 174.996 172.580  0.00  0.00     0.217 HD
ENDBRANCH  20  32
ENDBRANCH  10  11
ENDBRANCH   6  10
BRANCH   3  34
HETATM   34  O   UNK     0     160.378 174.981 167.642  0.00  0.00    -0.390 OA
HETATM   35  H   UNK     0     160.886 175.497 166.993  0.00  0.00     0.210 HD
ENDBRANCH   3  34
BRANCH   4  36
HETATM   36  O   UNK     0     164.474 172.596 166.908  0.00  0.00    -0.388 OA
HETATM   37  H   UNK     0     164.544 173.414 166.386  0.00  0.00     0.210 HD
ENDBRANCH   4  36
BRANCH   2  38
HETATM   38  O   UNK     0     161.620 172.798 166.209  0.00  0.00    -0.390 OA
HETATM   39  H   UNK     0     160.682 172.754 166.463  0.00  0.00     0.210 HD
ENDBRANCH   2  38
TORSDOF 11
ENDMDL
MODEL 2
REMARK VINA RESULT:      -9.1      1.454      2.430
REMARK  11 active torsions:
REMARK  status: ('A' for Active; 'I' for Inactive)
REMARK    1  A    between atoms: O_2  and  C_16 
REMARK    2  A    between atoms: O_2  and  C_18 
REMARK    3  A    between atoms: O_3  and  C_12 
REMARK    4  A    between atoms: O_4  and  C_13 
REMARK    5  A    between atoms: O_5  and  C_14 
REMARK    6  A    between atoms: O_6  and  C_17 
REMARK    7  A    between atoms: O_8  and  C_23 
REMARK    8  A    between atoms: O_10  and  C_30 
REMARK    9  A    between atoms: O_11  and  C_32 
REMARK   10  A    between atoms: C_15  and  C_17 
REMARK   11  A    between atoms: C_25  and  C_27 
ROOT
HETATM    1  O   UNK     0     164.158 172.004 168.221  0.00  0.00    -0.348 OA
HETATM    2  C   UNK     0     161.364 172.549 168.603  0.00  0.00     0.183 C 
HETATM    3  C   UNK     0     161.871 171.224 168.034  0.00  0.00     0.180 C 
HETATM    4  C   UNK     0     162.395 173.663 168.414  0.00  0.00     0.205 C 
HETATM    5  C   UNK     0     163.283 170.921 168.540  0.00  0.00     0.179 C 
HETATM    6  C   UNK     0     163.784 173.218 168.870  0.00  0.00     0.298 C 
ENDROOT
BRANCH   5   7
HETATM    7  C   UNK     0     163.855 169.662 167.894  0.00  0.00     0.198 C 
BRANCH   7   8
HETATM    8  O   UNK     0     163.360 169.570 166.571  0.00  0.00    -0.398 OA
HETATM    9  H   UNK     0     163.151 170.471 166.270  0.00  0.00     0.209 HD
ENDBRANCH   7   8
ENDBRANCH   5   7
BRANCH   6  10
HETATM   10  O   UNK     0     164.710 174.250 168.532  0.00  0.00    -0.318 OA
BRANCH  10  11
HETATM   11  C   UNK     0     165.974 174.123 169.027  0.00  0.00     0.077 A 
HETATM   12  C   UNK     0     167.012 173.716 168.186  0.00  0.00     0.075 A 
HETATM   13  C   UNK     0     168.304 173.586 168.694  0.00  0.00     0.095 A 
HETATM   14  O   UNK     0     169.283 173.183 167.821  0.00  0.00    -0.309 OA
HETATM   15  C   UNK     0     168.556 173.861 170.038  0.00  0.00     0.081 A 
HETATM   16  C   UNK     0     170.578 173.051 168.297  0.00  0.00     0.090 A 
HETATM   17  C   UNK     0     170.944 173.280 169.568  0.00  0.00     0.094 A 
HETATM   18  C   UNK     0     169.928 173.713 170.547  0.00  0.00     0.190 A 
HETATM   19  O   UNK     0     170.219 173.935 171.714  0.00  0.00    -0.287 OA
HETATM   20  C   UNK     0     167.520 174.268 170.882  0.00  0.00     0.085 A 
HETATM   21  C   UNK     0     166.228 174.398 170.370  0.00  0.00     0.074 A 
BRANCH  16  22
HETATM   22  C   UNK     0     171.550 172.607 167.276  0.00  0.00     0.001 A 
HETATM   23  C   UNK     0     172.824 172.182 167.659  0.00  0.00     0.053 A 
HETATM   24  C   UNK     0     173.740 171.762 166.694  0.00  0.00     0.099 A 
HETATM   25  C   UNK     0     173.386 171.767 165.346  0.00  0.00     0.098 A 
HETATM   26  C   UNK     0     172.114 172.190 164.961  0.00  0.00     0.040 A 
HETATM   27  C   UNK     0     171.197 172.610 165.924  0.00  0.00     0.017 A 
BRANCH  24  28
HETATM   28  O   UNK     0     174.981 171.352 167.082  0.00  0.00    -0.358 OA
HETATM   29  H   UNK     0     175.423 172.095 167.528  0.00  0.00     0.217 HD
ENDBRANCH  24  28
BRANCH  25  30
HETATM   30  O   UNK     0     174.272 171.358 164.396  0.00  0.00    -0.358 OA
HETATM   31  H   UNK     0     175.174 171.428 164.752  0.00  0.00     0.217 HD
ENDBRANCH  25  30
ENDBRANCH  16  22
BRANCH  20  32
HETATM   32  O   UNK     0     167.715 174.547 172.200  0.00  0.00    -0.360 OA
HETATM   33  H   UNK     0     168.074 175.441 172.310  0.00  0.00     0.217 HD
ENDBRANCH  20  32
ENDBRANCH  10  11
ENDBRANCH   6  10
BRANCH   3  34
HETATM   34  O   UNK     0     160.992 170.174 168.431  0.00  0.00    -0.390 OA
HETATM   35  H   UNK     0     161.491 169.566 169.003  0.00  0.00     0.210 HD
ENDBRANCH   3  34
BRANCH   4  36
HETATM   36  O   UNK     0     162.012 174.799 169.189  0.00  0.00    -0.388 OA
HETATM   37  H   UNK     0     162.666 174.914 169.899  0.00  0.00     0.210 HD
ENDBRANCH   4  36
BRANCH   2  38
HETATM   38  O   UNK     0     160.160 172.895 167.915  0.00  0.00    -0.390 OA
HETATM   39  H   UNK     0     160.138 173.864 167.837  0.00  0.00     0.210 HD
ENDBRANCH   2  38
TORSDOF 11
ENDMDL
MODEL 3
REMARK VINA RESULT:      -9.0      1.797      2.723
REMARK  11 active torsions:
REMARK  status: ('A' for Active; 'I' for Inactive)
REMARK    1  A    between atoms: O_2  and  C_16 
REMARK    2  A    between atoms: O_2  and  C_18 
REMARK    3  A    between atoms: O_3  and  C_12 
REMARK    4  A    between atoms: O_4  and  C_13 
REMARK    5  A    between atoms: O_5  and  C_14 
REMARK    6  A    between atoms: O_6  and  C_17 
REMARK    7  A    between atoms: O_8  and  C_23 
REMARK    8  A    between atoms: O_10  and  C_30 
REMARK    9  A    between atoms: O_11  and  C_32 
REMARK   10  A    between atoms: C_15  and  C_17 
REMARK   11  A    between atoms: C_25  and  C_27 
ROOT
HETATM    1  O   UNK     0     164.111 173.061 168.381  0.00  0.00    -0.348 OA
HETATM    2  C   UNK     0     163.252 170.745 169.847  0.00  0.00     0.183 C 
HETATM    3  C   UNK     0     162.596 171.176 168.535  0.00  0.00     0.180 C 
HETATM    4  C   UNK     0     163.967 171.918 170.519  0.00  0.00     0.205 C 
HETATM    5  C   UNK     0     163.587 171.945 167.659  0.00  0.00     0.179 C 
HETATM    6  C   UNK     0     164.860 172.667 169.530  0.00  0.00     0.298 C 
ENDROOT
BRANCH   5   7
HETATM    7  C   UNK     0     162.922 172.486 166.397  0.00  0.00     0.198 C 
BRANCH   7   8
HETATM    8  O   UNK     0     161.577 172.808 166.699  0.00  0.00    -0.398 OA
HETATM    9  H   UNK     0     161.206 172.072 167.215  0.00  0.00     0.209 HD
ENDBRANCH   7   8
ENDBRANCH   5   7
BRANCH   6  10
HETATM   10  O   UNK     0     165.376 173.822 170.189  0.00  0.00    -0.318 OA
BRANCH  10  11
HETATM   11  C   UNK     0     166.730 173.891 170.330  0.00  0.00     0.077 A 
HETATM   12  C   UNK     0     167.561 173.426 169.309  0.00  0.00     0.075 A 
HETATM   13  C   UNK     0     168.946 173.497 169.456  0.00  0.00     0.095 A 
HETATM   14  O   UNK     0     169.711 173.024 168.419  0.00  0.00    -0.309 OA
HETATM   15  C   UNK     0     169.497 174.030 170.620  0.00  0.00     0.081 A 
HETATM   16  C   UNK     0     171.091 173.088 168.535  0.00  0.00     0.090 A 
HETATM   17  C   UNK     0     171.738 173.573 169.606  0.00  0.00     0.094 A 
HETATM   18  C   UNK     0     170.961 174.091 170.749  0.00  0.00     0.190 A 
HETATM   19  O   UNK     0     171.511 174.543 171.743  0.00  0.00    -0.287 OA
HETATM   20  C   UNK     0     168.669 174.496 171.644  0.00  0.00     0.085 A 
HETATM   21  C   UNK     0     167.283 174.425 171.494  0.00  0.00     0.074 A 
BRANCH  16  22
HETATM   22  C   UNK     0     171.816 172.548 167.366  0.00  0.00     0.001 A 
HETATM   23  C   UNK     0     171.115 171.913 166.338  0.00  0.00     0.053 A 
HETATM   24  C   UNK     0     171.800 171.405 165.234  0.00  0.00     0.099 A 
HETATM   25  C   UNK     0     173.186 171.528 165.156  0.00  0.00     0.098 A 
HETATM   26  C   UNK     0     173.889 172.163 166.181  0.00  0.00     0.040 A 
HETATM   27  C   UNK     0     173.205 172.671 167.284  0.00  0.00     0.017 A 
BRANCH  24  28
HETATM   28  O   UNK     0     171.103 170.786 164.240  0.00  0.00    -0.358 OA
HETATM   29  H   UNK     0     171.565 170.944 163.399  0.00  0.00     0.217 HD
ENDBRANCH  24  28
BRANCH  25  30
HETATM   30  O   UNK     0     173.866 171.037 164.083  0.00  0.00    -0.358 OA
HETATM   31  H   UNK     0     174.662 170.574 164.396  0.00  0.00     0.217 HD
ENDBRANCH  25  30
ENDBRANCH  16  22
BRANCH  20  32
HETATM   32  O   UNK     0     169.159 175.025 172.799  0.00  0.00    -0.360 OA
HETATM   33  H   UNK     0     169.060 174.398 173.531  0.00  0.00     0.217 HD
ENDBRANCH  20  32
ENDBRANCH  10  11
ENDBRANCH   6  10
BRANCH   3  34
HETATM   34  O   UNK     0     162.145 170.020 167.833  0.00  0.00    -0.390 OA
HETATM   35  H   UNK     0     161.410 169.631 168.338  0.00  0.00     0.210 HD
ENDBRANCH   3  34
BRANCH   4  36
HETATM   36  O   UNK     0     164.788 171.428 171.579  0.00  0.00    -0.388 OA
HETATM   37  H   UNK     0     165.685 171.783 171.456  0.00  0.00     0.210 HD
ENDBRANCH   4  36
BRANCH   2  38
HETATM   38  O   UNK     0     162.229 170.253 170.714  0.00  0.00    -0.390 OA
HETATM   39  H   UNK     0     162.415 170.593 171.606  0.00  0.00     0.210 HD
ENDBRANCH   2  38
TORSDOF 11
ENDMDL
MODEL 4
REMARK VINA RESULT:      -9.0      1.540      9.451
REMARK  11 active torsions:
REMARK  status: ('A' for Active; 'I' for Inactive)
REMARK    1  A    between atoms: O_2  and  C_16 
REMARK    2  A    between atoms: O_2  and  C_18 
REMARK    3  A    between atoms: O_3  and  C_12 
REMARK    4  A    between atoms: O_4  and  C_13 
REMARK    5  A    between atoms: O_5  and  C_14 
REMARK    6  A    between atoms: O_6  and  C_17 
REMARK    7  A    between atoms: O_8  and  C_23 
REMARK    8  A    between atoms: O_10  and  C_30 
REMARK    9  A    between atoms: O_11  and  C_32 
REMARK   10  A    between atoms: C_15  and  C_17 
REMARK   11  A    between atoms: C_25  and  C_27 
ROOT
HETATM    1  O   UNK     0     171.691 173.411 167.851  0.00  0.00    -0.348 OA
HETATM    2  C   UNK     0     172.700 171.767 165.723  0.00  0.00     0.183 C 
HETATM    3  C   UNK     0     173.602 172.337 166.818  0.00  0.00     0.180 C 
HETATM    4  C   UNK     0     171.414 172.584 165.585  0.00  0.00     0.205 C 
HETATM    5  C   UNK     0     172.812 172.564 168.109  0.00  0.00     0.179 C 
HETATM    6  C   UNK     0     170.759 172.824 166.945  0.00  0.00     0.298 C 
ENDROOT
BRANCH   5   7
HETATM    7  C   UNK     0     173.663 173.241 169.179  0.00  0.00     0.198 C 
BRANCH   7   8
HETATM    8  O   UNK     0     172.999 174.416 169.606  0.00  0.00    -0.398 OA
HETATM    9  H   UNK     0     172.847 174.339 170.563  0.00  0.00     0.209 HD
ENDBRANCH   7   8
ENDBRANCH   5   7
BRANCH   6  10
HETATM   10  O   UNK     0     169.654 173.706 166.751  0.00  0.00    -0.318 OA
BRANCH  10  11
HETATM   11  C   UNK     0     168.798 173.852 167.802  0.00  0.00     0.077 A 
HETATM   12  C   UNK     0     167.420 173.876 167.578  0.00  0.00     0.075 A 
HETATM   13  C   UNK     0     166.546 174.026 168.655  0.00  0.00     0.095 A 
HETATM   14  O   UNK     0     165.203 174.043 168.373  0.00  0.00    -0.309 OA
HETATM   15  C   UNK     0     167.049 174.152 169.949  0.00  0.00     0.081 A 
HETATM   16  C   UNK     0     164.310 174.184 169.424  0.00  0.00     0.090 A 
HETATM   17  C   UNK     0     164.671 174.320 170.710  0.00  0.00     0.094 A 
HETATM   18  C   UNK     0     166.104 174.311 171.065  0.00  0.00     0.190 A 
HETATM   19  O   UNK     0     166.476 174.430 172.224  0.00  0.00    -0.287 OA
HETATM   20  C   UNK     0     168.427 174.129 170.177  0.00  0.00     0.085 A 
HETATM   21  C   UNK     0     169.299 173.978 169.097  0.00  0.00     0.074 A 
BRANCH  16  22
HETATM   22  C   UNK     0     162.892 174.195 169.009  0.00  0.00     0.001 A 
HETATM   23  C   UNK     0     161.924 174.763 169.840  0.00  0.00     0.053 A 
HETATM   24  C   UNK     0     160.585 174.774 169.447  0.00  0.00     0.099 A 
HETATM   25  C   UNK     0     160.211 174.217 168.225  0.00  0.00     0.098 A 
HETATM   26  C   UNK     0     161.177 173.650 167.393  0.00  0.00     0.040 A 
HETATM   27  C   UNK     0     162.515 173.638 167.785  0.00  0.00     0.017 A 
BRANCH  24  28
HETATM   28  O   UNK     0     159.649 175.329 170.269  0.00  0.00    -0.358 OA
HETATM   29  H   UNK     0     159.349 174.648 170.894  0.00  0.00     0.217 HD
ENDBRANCH  24  28
BRANCH  25  30
HETATM   30  O   UNK     0     158.908 174.223 167.830  0.00  0.00    -0.358 OA
HETATM   31  H   UNK     0     158.814 174.803 167.055  0.00  0.00     0.217 HD
ENDBRANCH  25  30
ENDBRANCH  16  22
BRANCH  20  32
HETATM   32  O   UNK     0     168.967 174.249 171.421  0.00  0.00    -0.360 OA
HETATM   33  H   UNK     0     168.362 173.895 172.090  0.00  0.00     0.217 HD
ENDBRANCH  20  32
ENDBRANCH  10  11
ENDBRANCH   6  10
BRANCH   3  34
HETATM   34  O   UNK     0     174.668 171.425 167.072  0.00  0.00    -0.390 OA
HETATM   35  H   UNK     0     175.222 171.382 166.274  0.00  0.00     0.210 HD
ENDBRANCH   3  34
BRANCH   4  36
HETATM   36  O   UNK     0     170.489 171.874 164.762  0.00  0.00    -0.388 OA
HETATM   37  H   UNK     0     170.820 171.897 163.847  0.00  0.00     0.210 HD
ENDBRANCH   4  36
BRANCH   2  38
HETATM   38  O   UNK     0     173.421 171.804 164.491  0.00  0.00    -0.390 OA
HETATM   39  H   UNK     0     174.302 172.172 164.681  0.00  0.00     0.210 HD
ENDBRANCH   2  38
TORSDOF 11
ENDMDL
MODEL 5
REMARK VINA RESULT:      -8.8      1.617      9.027
REMARK  11 active torsions:
REMARK  status: ('A' for Active; 'I' for Inactive)
REMARK    1  A    between atoms: O_2  and  C_16 
REMARK    2  A    between atoms: O_2  and  C_18 
REMARK    3  A    between atoms: O_3  and  C_12 
REMARK    4  A    between atoms: O_4  and  C_13 
REMARK    5  A    between atoms: O_5  and  C_14 
REMARK    6  A    between atoms: O_6  and  C_17 
REMARK    7  A    between atoms: O_8  and  C_23 
REMARK    8  A    between atoms: O_10  and  C_30 
REMARK    9  A    between atoms: O_11  and  C_32 
REMARK   10  A    between atoms: C_15  and  C_17 
REMARK   11  A    between atoms: C_25  and  C_27 
ROOT
HETATM    1  O   UNK     0     171.915 172.314 167.834  0.00  0.00    -0.348 OA
HETATM    2  C   UNK     0     172.163 173.474 165.219  0.00  0.00     0.183 C 
HETATM    3  C   UNK     0     172.929 172.218 165.635  0.00  0.00     0.180 C 
HETATM    4  C   UNK     0     171.738 174.293 166.439  0.00  0.00     0.205 C 
HETATM    5  C   UNK     0     172.169 171.454 166.722  0.00  0.00     0.179 C 
HETATM    6  C   UNK     0     171.072 173.413 167.495  0.00  0.00     0.298 C 
ENDROOT
BRANCH   5   7
HETATM    7  C   UNK     0     172.969 170.261 167.236  0.00  0.00     0.198 C 
BRANCH   7   8
HETATM    8  O   UNK     0     174.083 170.745 167.962  0.00  0.00    -0.398 OA
HETATM    9  H   UNK     0     173.987 170.449 168.884  0.00  0.00     0.209 HD
ENDBRANCH   7   8
ENDBRANCH   5   7
BRANCH   6  10
HETATM   10  O   UNK     0     170.836 174.214 168.651  0.00  0.00    -0.318 OA
BRANCH  10  11
HETATM   11  C   UNK     0     169.752 173.887 169.411  0.00  0.00     0.077 A 
HETATM   12  C   UNK     0     168.468 173.994 168.874  0.00  0.00     0.075 A 
HETATM   13  C   UNK     0     167.361 173.659 169.653  0.00  0.00     0.095 A 
HETATM   14  O   UNK     0     166.125 173.785 169.071  0.00  0.00    -0.309 OA
HETATM   15  C   UNK     0     167.538 173.220 170.965  0.00  0.00     0.081 A 
HETATM   16  C   UNK     0     165.006 173.453 169.820  0.00  0.00     0.090 A 
HETATM   17  C   UNK     0     165.047 173.026 171.091  0.00  0.00     0.094 A 
HETATM   18  C   UNK     0     166.353 172.876 171.764  0.00  0.00     0.190 A 
HETATM   19  O   UNK     0     166.435 172.487 172.921  0.00  0.00    -0.287 OA
HETATM   20  C   UNK     0     168.822 173.112 171.506  0.00  0.00     0.085 A 
HETATM   21  C   UNK     0     169.928 173.447 170.723  0.00  0.00     0.074 A 
BRANCH  16  22
HETATM   22  C   UNK     0     163.728 173.630 169.100  0.00  0.00     0.001 A 
HETATM   23  C   UNK     0     163.526 173.005 167.867  0.00  0.00     0.053 A 
HETATM   24  C   UNK     0     162.318 173.171 167.188  0.00  0.00     0.099 A 
HETATM   25  C   UNK     0     161.312 173.963 167.738  0.00  0.00     0.098 A 
HETATM   26  C   UNK     0     161.511 174.588 168.970  0.00  0.00     0.040 A 
HETATM   27  C   UNK     0     162.717 174.422 169.649  0.00  0.00     0.017 A 
BRANCH  24  28
HETATM   28  O   UNK     0     162.136 172.557 165.985  0.00  0.00    -0.358 OA
HETATM   29  H   UNK     0     161.749 171.680 166.146  0.00  0.00     0.217 HD
ENDBRANCH  24  28
BRANCH  25  30
HETATM   30  O   UNK     0     160.129 174.132 167.085  0.00  0.00    -0.358 OA
HETATM   31  H   UNK     0     159.867 175.067 167.140  0.00  0.00     0.217 HD
ENDBRANCH  25  30
ENDBRANCH  16  22
BRANCH  20  32
HETATM   32  O   UNK     0     169.047 172.689 172.780  0.00  0.00    -0.360 OA
HETATM   33  H   UNK     0     168.711 173.336 173.419  0.00  0.00     0.217 HD
ENDBRANCH  20  32
ENDBRANCH  10  11
ENDBRANCH   6  10
BRANCH   3  34
HETATM   34  O   UNK     0     173.103 171.375 164.499  0.00  0.00    -0.390 OA
HETATM   35  H   UNK     0     173.894 170.829 164.649  0.00  0.00     0.210 HD
ENDBRANCH   3  34
BRANCH   4  36
HETATM   36  O   UNK     0     170.804 175.294 166.035  0.00  0.00    -0.388 OA
HETATM   37  H   UNK     0     170.285 175.554 166.816  0.00  0.00     0.210 HD
ENDBRANCH   4  36
BRANCH   2  38
HETATM   38  O   UNK     0     173.021 174.263 164.392  0.00  0.00    -0.390 OA
HETATM   39  H   UNK     0     173.652 173.657 163.967  0.00  0.00     0.210 HD
ENDBRANCH   2  38
TORSDOF 11
ENDMDL
MODEL 6
REMARK VINA RESULT:      -8.8      1.509      2.028
REMARK  11 active torsions:
REMARK  status: ('A' for Active; 'I' for Inactive)
REMARK    1  A    between atoms: O_2  and  C_16 
REMARK    2  A    between atoms: O_2  and  C_18 
REMARK    3  A    between atoms: O_3  and  C_12 
REMARK    4  A    between atoms: O_4  and  C_13 
REMARK    5  A    between atoms: O_5  and  C_14 
REMARK    6  A    between atoms: O_6  and  C_17 
REMARK    7  A    between atoms: O_8  and  C_23 
REMARK    8  A    between atoms: O_10  and  C_30 
REMARK    9  A    between atoms: O_11  and  C_32 
REMARK   10  A    between atoms: C_15  and  C_17 
REMARK   11  A    between atoms: C_25  and  C_27 
ROOT
HETATM    1  O   UNK     0     162.934 174.272 168.616  0.00  0.00    -0.348 OA
HETATM    2  C   UNK     0     162.808 171.855 167.070  0.00  0.00     0.183 C 
HETATM    3  C   UNK     0     162.079 172.015 168.404  0.00  0.00     0.180 C 
HETATM    4  C   UNK     0     163.975 172.837 166.956  0.00  0.00     0.205 C 
HETATM    5  C   UNK     0     161.743 173.484 168.668  0.00  0.00     0.179 C 
HETATM    6  C   UNK     0     163.545 174.256 167.328  0.00  0.00     0.298 C 
ENDROOT
BRANCH   5   7
HETATM    7  C   UNK     0     161.120 173.682 170.046  0.00  0.00     0.198 C 
BRANCH   7   8
HETATM    8  O   UNK     0     159.711 173.679 169.907  0.00  0.00    -0.398 OA
HETATM    9  H   UNK     0     159.328 173.512 170.786  0.00  0.00     0.209 HD
ENDBRANCH   7   8
ENDBRANCH   5   7
BRANCH   6  10
HETATM   10  O   UNK     0     164.710 175.080 167.336  0.00  0.00    -0.318 OA
BRANCH  10  11
HETATM   11  C   UNK     0     165.732 174.684 168.147  0.00  0.00     0.077 A 
HETATM   12  C   UNK     0     166.928 174.232 167.587  0.00  0.00     0.075 A 
HETATM   13  C   UNK     0     167.973 173.827 168.418  0.00  0.00     0.095 A 
HETATM   14  O   UNK     0     169.124 173.392 167.810  0.00  0.00    -0.309 OA
HETATM   15  C   UNK     0     167.820 173.874 169.803  0.00  0.00     0.081 A 
HETATM   16  C   UNK     0     170.181 172.989 168.611  0.00  0.00     0.090 A 
HETATM   17  C   UNK     0     170.153 172.982 169.953  0.00  0.00     0.094 A 
HETATM   18  C   UNK     0     168.937 173.439 170.655  0.00  0.00     0.190 A 
HETATM   19  O   UNK     0     168.870 173.451 171.876  0.00  0.00    -0.287 OA
HETATM   20  C   UNK     0     166.624 174.326 170.367  0.00  0.00     0.085 A 
HETATM   21  C   UNK     0     165.581 174.731 169.533  0.00  0.00     0.074 A 
BRANCH  16  22
HETATM   22  C   UNK     0     171.367 172.535 167.856  0.00  0.00     0.001 A 
HETATM   23  C   UNK     0     171.214 171.958 166.593  0.00  0.00     0.053 A 
HETATM   24  C   UNK     0     172.335 171.531 165.879  0.00  0.00     0.099 A 
HETATM   25  C   UNK     0     173.608 171.678 166.426  0.00  0.00     0.098 A 
HETATM   26  C   UNK     0     173.763 172.255 167.687  0.00  0.00     0.040 A 
HETATM   27  C   UNK     0     172.645 172.682 168.401  0.00  0.00     0.017 A 
BRANCH  24  28
HETATM   28  O   UNK     0     172.171 170.967 164.649  0.00  0.00    -0.358 OA
HETATM   29  H   UNK     0     172.631 171.521 163.996  0.00  0.00     0.217 HD
ENDBRANCH  24  28
BRANCH  25  30
HETATM   30  O   UNK     0     174.709 171.266 165.738  0.00  0.00    -0.358 OA
HETATM   31  H   UNK     0     175.490 171.735 166.080  0.00  0.00     0.217 HD
ENDBRANCH  25  30
ENDBRANCH  16  22
BRANCH  20  32
HETATM   32  O   UNK     0     166.427 174.390 171.712  0.00  0.00    -0.360 OA
HETATM   33  H   UNK     0     167.242 174.172 172.188  0.00  0.00     0.217 HD
ENDBRANCH  20  32
ENDBRANCH  10  11
ENDBRANCH   6  10
BRANCH   3  34
HETATM   34  O   UNK     0     160.873 171.253 168.376  0.00  0.00    -0.390 OA
HETATM   35  H   UNK     0     161.067 170.401 167.951  0.00  0.00     0.210 HD
ENDBRANCH   3  34
BRANCH   4  36
HETATM   36  O   UNK     0     164.452 172.851 165.611  0.00  0.00    -0.388 OA
HETATM   37  H   UNK     0     165.171 173.503 165.554  0.00  0.00     0.210 HD
ENDBRANCH   4  36
BRANCH   2  38
HETATM   38  O   UNK     0     163.304 170.517 166.994  0.00  0.00    -0.390 OA
HETATM   39  H   UNK     0     163.378 170.182 167.904  0.00  0.00     0.210 HD
ENDBRANCH   2  38
TORSDOF 11
ENDMDL
MODEL 7
REMARK VINA RESULT:      -8.5      1.477      2.500
REMARK  11 active torsions:
REMARK  status: ('A' for Active; 'I' for Inactive)
REMARK    1  A    between atoms: O_2  and  C_16 
REMARK    2  A    between atoms: O_2  and  C_18 
REMARK    3  A    between atoms: O_3  and  C_12 
REMARK    4  A    between atoms: O_4  and  C_13 
REMARK    5  A    between atoms: O_5  and  C_14 
REMARK    6  A    between atoms: O_6  and  C_17 
REMARK    7  A    between atoms: O_8  and  C_23 
REMARK    8  A    between atoms: O_10  and  C_30 
REMARK    9  A    between atoms: O_11  and  C_32 
REMARK   10  A    between atoms: C_15  and  C_17 
REMARK   11  A    between atoms: C_25  and  C_27 
ROOT
HETATM    1  O   UNK     0     164.918 173.387 168.716  0.00  0.00    -0.348 OA
HETATM    2  C   UNK     0     162.289 172.233 168.631  0.00  0.00     0.183 C 
HETATM    3  C   UNK     0     162.848 173.086 167.492  0.00  0.00     0.180 C 
HETATM    4  C   UNK     0     163.010 172.528 169.948  0.00  0.00     0.205 C 
HETATM    5  C   UNK     0     164.375 173.004 167.451  0.00  0.00     0.179 C 
HETATM    6  C   UNK     0     164.528 172.507 169.768  0.00  0.00     0.298 C 
ENDROOT
BRANCH   5   7
HETATM    7  C   UNK     0     164.962 173.937 166.396  0.00  0.00     0.198 C 
BRANCH   7   8
HETATM    8  O   UNK     0     164.088 175.039 166.234  0.00  0.00    -0.398 OA
HETATM    9  H   UNK     0     164.216 175.633 166.993  0.00  0.00     0.209 HD
ENDBRANCH   7   8
ENDBRANCH   5   7
BRANCH   6  10
HETATM   10  O   UNK     0     165.122 172.928 170.994  0.00  0.00    -0.318 OA
BRANCH  10  11
HETATM   11  C   UNK     0     166.416 173.353 170.932  0.00  0.00     0.077 A 
HETATM   12  C   UNK     0     167.252 172.890 169.915  0.00  0.00     0.075 A 
HETATM   13  C   UNK     0     168.575 173.326 169.853  0.00  0.00     0.095 A 
HETATM   14  O   UNK     0     169.349 172.836 168.831  0.00  0.00    -0.309 OA
HETATM   15  C   UNK     0     169.060 174.221 170.806  0.00  0.00     0.081 A 
HETATM   16  C   UNK     0     170.667 173.257 168.741  0.00  0.00     0.090 A 
HETATM   17  C   UNK     0     171.249 174.108 169.599  0.00  0.00     0.094 A 
HETATM   18  C   UNK     0     170.460 174.662 170.718  0.00  0.00     0.190 A 
HETATM   19  O   UNK     0     170.951 175.443 171.522  0.00  0.00    -0.287 OA
HETATM   20  C   UNK     0     168.226 174.686 171.826  0.00  0.00     0.085 A 
HETATM   21  C   UNK     0     166.902 174.249 171.884  0.00  0.00     0.074 A 
BRANCH  16  22
HETATM   22  C   UNK     0     171.409 172.665 167.609  0.00  0.00     0.001 A 
HETATM   23  C   UNK     0     170.722 171.995 166.594  0.00  0.00     0.053 A 
HETATM   24  C   UNK     0     171.424 171.437 165.524  0.00  0.00     0.099 A 
HETATM   25  C   UNK     0     172.812 171.547 165.468  0.00  0.00     0.098 A 
HETATM   26  C   UNK     0     173.501 172.216 166.480  0.00  0.00     0.040 A 
HETATM   27  C   UNK     0     172.801 172.774 167.549  0.00  0.00     0.017 A 
BRANCH  24  28
HETATM   28  O   UNK     0     170.741 170.785 164.542  0.00  0.00    -0.358 OA
HETATM   29  H   UNK     0     171.368 170.553 163.836  0.00  0.00     0.217 HD
ENDBRANCH  24  28
BRANCH  25  30
HETATM   30  O   UNK     0     173.508 171.007 164.429  0.00  0.00    -0.358 OA
HETATM   31  H   UNK     0     173.877 170.151 164.705  0.00  0.00     0.217 HD
ENDBRANCH  25  30
ENDBRANCH  16  22
BRANCH  20  32
HETATM   32  O   UNK     0     168.652 175.560 172.779  0.00  0.00    -0.360 OA
HETATM   33  H   UNK     0     169.509 175.940 172.535  0.00  0.00     0.217 HD
ENDBRANCH  20  32
ENDBRANCH  10  11
ENDBRANCH   6  10
BRANCH   3  34
HETATM   34  O   UNK     0     162.317 172.622 166.253  0.00  0.00    -0.390 OA
HETATM   35  H   UNK     0     161.472 172.178 166.436  0.00  0.00     0.210 HD
ENDBRANCH   3  34
BRANCH   4  36
HETATM   36  O   UNK     0     162.659 171.535 170.912  0.00  0.00    -0.388 OA
HETATM   37  H   UNK     0     163.429 170.954 171.038  0.00  0.00     0.210 HD
ENDBRANCH   4  36
BRANCH   2  38
HETATM   38  O   UNK     0     160.900 172.537 168.772  0.00  0.00    -0.390 OA
HETATM   39  H   UNK     0     160.835 173.405 169.205  0.00  0.00     0.210 HD
ENDBRANCH   2  38
TORSDOF 11
ENDMDL
MODEL 8
REMARK VINA RESULT:      -8.3      5.034      9.486
REMARK  11 active torsions:
REMARK  status: ('A' for Active; 'I' for Inactive)
REMARK    1  A    between atoms: O_2  and  C_16 
REMARK    2  A    between atoms: O_2  and  C_18 
REMARK    3  A    between atoms: O_3  and  C_12 
REMARK    4  A    between atoms: O_4  and  C_13 
REMARK    5  A    between atoms: O_5  and  C_14 
REMARK    6  A    between atoms: O_6  and  C_17 
REMARK    7  A    between atoms: O_8  and  C_23 
REMARK    8  A    between atoms: O_10  and  C_30 
REMARK    9  A    between atoms: O_11  and  C_32 
REMARK   10  A    between atoms: C_15  and  C_17 
REMARK   11  A    between atoms: C_25  and  C_27 
ROOT
HETATM    1  O   UNK     0     172.468 173.103 168.192  0.00  0.00    -0.348 OA
HETATM    2  C   UNK     0     170.085 173.365 166.611  0.00  0.00     0.183 C 
HETATM    3  C   UNK     0     171.303 172.574 166.134  0.00  0.00     0.180 C 
HETATM    4  C   UNK     0     170.474 174.389 167.678  0.00  0.00     0.205 C 
HETATM    5  C   UNK     0     172.098 172.030 167.324  0.00  0.00     0.179 C 
HETATM    6  C   UNK     0     171.339 173.756 168.768  0.00  0.00     0.298 C 
ENDROOT
BRANCH   5   7
HETATM    7  C   UNK     0     173.381 171.337 166.876  0.00  0.00     0.198 C 
BRANCH   7   8
HETATM    8  O   UNK     0     173.993 170.748 168.008  0.00  0.00    -0.398 OA
HETATM    9  H   UNK     0     174.955 170.759 167.863  0.00  0.00     0.209 HD
ENDBRANCH   7   8
ENDBRANCH   5   7
BRANCH   6  10
HETATM   10  O   UNK     0     171.777 174.795 169.642  0.00  0.00    -0.318 OA
BRANCH  10  11
HETATM   11  C   UNK     0     171.015 175.023 170.750  0.00  0.00     0.077 A 
HETATM   12  C   UNK     0     170.848 176.325 171.224  0.00  0.00     0.075 A 
HETATM   13  C   UNK     0     170.069 176.555 172.357  0.00  0.00     0.095 A 
HETATM   14  O   UNK     0     169.942 177.856 172.776  0.00  0.00    -0.309 OA
HETATM   15  C   UNK     0     169.461 175.486 173.015  0.00  0.00     0.081 A 
HETATM   16  C   UNK     0     169.168 178.115 173.897  0.00  0.00     0.090 A 
HETATM   17  C   UNK     0     168.539 177.173 174.616  0.00  0.00     0.094 A 
HETATM   18  C   UNK     0     168.647 175.758 174.209  0.00  0.00     0.190 A 
HETATM   19  O   UNK     0     168.089 174.868 174.835  0.00  0.00    -0.287 OA
HETATM   20  C   UNK     0     169.627 174.181 172.543  0.00  0.00     0.085 A 
HETATM   21  C   UNK     0     170.406 173.954 171.408  0.00  0.00     0.074 A 
BRANCH  16  22
HETATM   22  C   UNK     0     169.103 179.546 174.262  0.00  0.00     0.001 A 
HETATM   23  C   UNK     0     170.027 180.447 173.730  0.00  0.00     0.053 A 
HETATM   24  C   UNK     0     169.964 181.798 174.074  0.00  0.00     0.099 A 
HETATM   25  C   UNK     0     168.979 182.250 174.952  0.00  0.00     0.098 A 
HETATM   26  C   UNK     0     168.055 181.351 175.484  0.00  0.00     0.040 A 
HETATM   27  C   UNK     0     168.116 180.001 175.141  0.00  0.00     0.017 A 
BRANCH  24  28
HETATM   28  O   UNK     0     170.874 182.667 173.550  0.00  0.00    -0.358 OA
HETATM   29  H   UNK     0     171.743 182.472 173.939  0.00  0.00     0.217 HD
ENDBRANCH  24  28
BRANCH  25  30
HETATM   30  O   UNK     0     168.907 183.566 175.294  0.00  0.00    -0.358 OA
HETATM   31  H   UNK     0     169.558 184.066 174.773  0.00  0.00     0.217 HD
ENDBRANCH  25  30
ENDBRANCH  16  22
BRANCH  20  32
HETATM   32  O   UNK     0     169.054 173.105 173.150  0.00  0.00    -0.360 OA
HETATM   33  H   UNK     0     168.101 173.242 173.259  0.00  0.00     0.217 HD
ENDBRANCH  20  32
ENDBRANCH  10  11
ENDBRANCH   6  10
BRANCH   3  34
HETATM   34  O   UNK     0     170.869 171.486 165.321  0.00  0.00    -0.390 OA
HETATM   35  H   UNK     0     171.652 170.961 165.079  0.00  0.00     0.210 HD
ENDBRANCH   3  34
BRANCH   4  36
HETATM   36  O   UNK     0     169.293 174.907 168.289  0.00  0.00    -0.388 OA
HETATM   37  H   UNK     0     168.753 175.324 167.596  0.00  0.00     0.210 HD
ENDBRANCH   4  36
BRANCH   2  38
HETATM   38  O   UNK     0     169.528 174.042 165.483  0.00  0.00    -0.390 OA
HETATM   39  H   UNK     0     168.593 174.221 165.685  0.00  0.00     0.210 HD
ENDBRANCH   2  38
TORSDOF 11
ENDMDL
MODEL 9
REMARK VINA RESULT:      -8.2      1.884      8.782
REMARK  11 active torsions:
REMARK  status: ('A' for Active; 'I' for Inactive)
REMARK    1  A    between atoms: O_2  and  C_16 
REMARK    2  A    between atoms: O_2  and  C_18 
REMARK    3  A    between atoms: O_3  and  C_12 
REMARK    4  A    between atoms: O_4  and  C_13 
REMARK    5  A    between atoms: O_5  and  C_14 
REMARK    6  A    between atoms: O_6  and  C_17 
REMARK    7  A    between atoms: O_8  and  C_23 
REMARK    8  A    between atoms: O_10  and  C_30 
REMARK    9  A    between atoms: O_11  and  C_32 
REMARK   10  A    between atoms: C_15  and  C_17 
REMARK   11  A    between atoms: C_25  and  C_27 
ROOT
HETATM    1  O   UNK     0     171.085 173.492 166.724  0.00  0.00    -0.348 OA
HETATM    2  C   UNK     0     173.407 172.072 167.641  0.00  0.00     0.183 C 
HETATM    3  C   UNK     0     172.421 171.472 166.639  0.00  0.00     0.180 C 
HETATM    4  C   UNK     0     172.754 173.185 168.461  0.00  0.00     0.205 C 
HETATM    5  C   UNK     0     171.724 172.572 165.836  0.00  0.00     0.179 C 
HETATM    6  C   UNK     0     172.013 174.176 167.564  0.00  0.00     0.298 C 
ENDROOT
BRANCH   5   7
HETATM    7  C   UNK     0     170.652 172.004 164.912  0.00  0.00     0.198 C 
BRANCH   7   8
HETATM    8  O   UNK     0     170.479 170.631 165.214  0.00  0.00    -0.398 OA
HETATM    9  H   UNK     0     170.434 170.545 166.182  0.00  0.00     0.209 HD
ENDBRANCH   7   8
ENDBRANCH   5   7
BRANCH   6  10
HETATM   10  O   UNK     0     171.316 175.095 168.404  0.00  0.00    -0.318 OA
BRANCH  10  11
HETATM   11  C   UNK     0     170.283 174.589 169.137  0.00  0.00     0.077 A 
HETATM   12  C   UNK     0     169.012 174.485 168.570  0.00  0.00     0.075 A 
HETATM   13  C   UNK     0     167.958 173.968 169.321  0.00  0.00     0.095 A 
HETATM   14  O   UNK     0     166.732 173.890 168.711  0.00  0.00    -0.309 OA
HETATM   15  C   UNK     0     168.175 173.558 170.637  0.00  0.00     0.081 A 
HETATM   16  C   UNK     0     165.666 173.375 169.432  0.00  0.00     0.090 A 
HETATM   17  C   UNK     0     165.748 172.954 170.704  0.00  0.00     0.094 A 
HETATM   18  C   UNK     0     167.044 173.019 171.407  0.00  0.00     0.190 A 
HETATM   19  O   UNK     0     167.162 172.644 172.566  0.00  0.00    -0.287 OA
HETATM   20  C   UNK     0     169.445 173.661 171.208  0.00  0.00     0.085 A 
HETATM   21  C   UNK     0     170.499 174.178 170.452  0.00  0.00     0.074 A 
BRANCH  16  22
HETATM   22  C   UNK     0     164.394 173.341 168.682  0.00  0.00     0.001 A 
HETATM   23  C   UNK     0     163.468 172.323 168.918  0.00  0.00     0.053 A 
HETATM   24  C   UNK     0     162.266 172.292 168.210  0.00  0.00     0.099 A 
HETATM   25  C   UNK     0     161.987 173.279 167.265  0.00  0.00     0.098 A 
HETATM   26  C   UNK     0     162.910 174.298 167.028  0.00  0.00     0.040 A 
HETATM   27  C   UNK     0     164.112 174.329 167.735  0.00  0.00     0.017 A 
BRANCH  24  28
HETATM   28  O   UNK     0     161.372 171.291 168.448  0.00  0.00    -0.358 OA
HETATM   29  H   UNK     0     161.344 171.129 169.406  0.00  0.00     0.217 HD
ENDBRANCH  24  28
BRANCH  25  30
HETATM   30  O   UNK     0     160.817 173.260 166.568  0.00  0.00    -0.358 OA
HETATM   31  H   UNK     0     160.075 173.210 167.196  0.00  0.00     0.217 HD
ENDBRANCH  25  30
ENDBRANCH  16  22
BRANCH  20  32
HETATM   32  O   UNK     0     169.707 173.275 172.487  0.00  0.00    -0.360 OA
HETATM   33  H   UNK     0     170.086 174.009 172.995  0.00  0.00     0.217 HD
ENDBRANCH  20  32
ENDBRANCH  10  11
ENDBRANCH   6  10
BRANCH   3  34
HETATM   34  O   UNK     0     173.123 170.610 165.746  0.00  0.00    -0.390 OA
HETATM   35  H   UNK     0     173.621 169.967 166.279  0.00  0.00     0.210 HD
ENDBRANCH   3  34
BRANCH   4  36
HETATM   36  O   UNK     0     173.761 173.898 169.179  0.00  0.00    -0.388 OA
HETATM   37  H   UNK     0     174.583 173.860 168.661  0.00  0.00     0.210 HD
ENDBRANCH   4  36
BRANCH   2  38
HETATM   38  O   UNK     0     173.841 171.029 168.515  0.00  0.00    -0.390 OA
HETATM   39  H   UNK     0     173.244 170.272 168.383  0.00  0.00     0.210 HD
ENDBRANCH   2  38
TORSDOF 11
ENDMDL
MODEL 10
REMARK VINA RESULT:      -8.2      1.759      2.433
REMARK  11 active torsions:
REMARK  status: ('A' for Active; 'I' for Inactive)
REMARK    1  A    between atoms: O_2  and  C_16 
REMARK    2  A    between atoms: O_2  and  C_18 
REMARK    3  A    between atoms: O_3  and  C_12 
REMARK    4  A    between atoms: O_4  and  C_13 
REMARK    5  A    between atoms: O_5  and  C_14 
REMARK    6  A    between atoms: O_6  and  C_17 
REMARK    7  A    between atoms: O_8  and  C_23 
REMARK    8  A    between atoms: O_10  and  C_30 
REMARK    9  A    between atoms: O_11  and  C_32 
REMARK   10  A    between atoms: C_15  and  C_17 
REMARK   11  A    between atoms: C_25  and  C_27 
ROOT
HETATM    1  O   UNK     0     163.398 172.518 169.437  0.00  0.00    -0.348 OA
HETATM    2  C   UNK     0     163.194 172.380 166.575  0.00  0.00     0.183 C 
HETATM    3  C   UNK     0     163.234 171.131 167.456  0.00  0.00     0.180 C 
HETATM    4  C   UNK     0     163.807 173.583 167.293  0.00  0.00     0.205 C 
HETATM    5  C   UNK     0     162.679 171.432 168.850  0.00  0.00     0.179 C 
HETATM    6  C   UNK     0     163.245 173.734 168.706  0.00  0.00     0.298 C 
ENDROOT
BRANCH   5   7
HETATM    7  C   UNK     0     162.817 170.232 169.783  0.00  0.00     0.198 C 
BRANCH   7   8
HETATM    8  O   UNK     0     163.808 169.367 169.260  0.00  0.00    -0.398 OA
HETATM    9  H   UNK     0     164.601 169.900 169.079  0.00  0.00     0.209 HD
ENDBRANCH   7   8
ENDBRANCH   5   7
BRANCH   6  10
HETATM   10  O   UNK     0     163.963 174.781 169.357  0.00  0.00    -0.318 OA
BRANCH  10  11
HETATM   11  C   UNK     0     165.186 174.458 169.865  0.00  0.00     0.077 A 
HETATM   12  C   UNK     0     166.272 174.281 169.005  0.00  0.00     0.075 A 
HETATM   13  C   UNK     0     167.522 173.952 169.527  0.00  0.00     0.095 A 
HETATM   14  O   UNK     0     168.551 173.790 168.633  0.00  0.00    -0.309 OA
HETATM   15  C   UNK     0     167.685 173.798 170.903  0.00  0.00     0.081 A 
HETATM   16  C   UNK     0     169.807 173.467 169.124  0.00  0.00     0.090 A 
HETATM   17  C   UNK     0     170.087 173.288 170.424  0.00  0.00     0.094 A 
HETATM   18  C   UNK     0     169.015 173.448 171.426  0.00  0.00     0.190 A 
HETATM   19  O   UNK     0     169.228 173.296 172.620  0.00  0.00    -0.287 OA
HETATM   20  C   UNK     0     166.601 173.975 171.767  0.00  0.00     0.085 A 
HETATM   21  C   UNK     0     165.351 174.306 171.241  0.00  0.00     0.074 A 
BRANCH  16  22
HETATM   22  C   UNK     0     170.838 173.312 168.077  0.00  0.00     0.001 A 
HETATM   23  C   UNK     0     172.168 173.078 168.433  0.00  0.00     0.053 A 
HETATM   24  C   UNK     0     173.141 172.930 167.444  0.00  0.00     0.099 A 
HETATM   25  C   UNK     0     172.787 173.015 166.099  0.00  0.00     0.098 A 
HETATM   26  C   UNK     0     171.459 173.247 165.740  0.00  0.00     0.040 A 
HETATM   27  C   UNK     0     170.486 173.396 166.728  0.00  0.00     0.017 A 
BRANCH  24  28
HETATM   28  O   UNK     0     174.436 172.706 167.806  0.00  0.00    -0.358 OA
HETATM   29  H   UNK     0     174.470 171.886 168.327  0.00  0.00     0.217 HD
ENDBRANCH  24  28
BRANCH  25  30
HETATM   30  O   UNK     0     173.728 172.871 165.124  0.00  0.00    -0.358 OA
HETATM   31  H   UNK     0     173.394 173.266 164.300  0.00  0.00     0.217 HD
ENDBRANCH  25  30
ENDBRANCH  16  22
BRANCH  20  32
HETATM   32  O   UNK     0     166.709 173.836 173.117  0.00  0.00    -0.360 OA
HETATM   33  H   UNK     0     166.198 173.072 173.424  0.00  0.00     0.217 HD
ENDBRANCH  20  32
ENDBRANCH  10  11
ENDBRANCH   6  10
BRANCH   3  34
HETATM   34  O   UNK     0     162.455 170.102 166.850  0.00  0.00    -0.390 OA
HETATM   35  H   UNK     0     162.161 170.422 165.980  0.00  0.00     0.210 HD
ENDBRANCH   3  34
BRANCH   4  36
HETATM   36  O   UNK     0     163.507 174.773 166.563  0.00  0.00    -0.388 OA
HETATM   37  H   UNK     0     163.301 175.475 167.204  0.00  0.00     0.210 HD
ENDBRANCH   4  36
BRANCH   2  38
HETATM   38  O   UNK     0     163.937 172.107 165.386  0.00  0.00    -0.390 OA
HETATM   39  H   UNK     0     164.432 172.914 165.161  0.00  0.00     0.210 HD
ENDBRANCH   2  38
TORSDOF 11
ENDMDL
