REMARK SMILES OC[C@H]1O[C@@H](OCCc2ccc(O)cc2)[C@H](O)[C@@H](O)[C@@H]1O
REMARK SMILES IDX 6 1 5 4 4 5 3 6 20 9 16 10 18 11 2 12 1 13 21 18 17 23 19 28
REMARK SMILES IDX 7 33 8 34 9 35 10 36 15 37 11 38 14 39 12 40 13 41
REMARK H PARENT 1 14 21 19 17 24 19 29 13 42
REMARK Flexibility Score: inf
ROOT
ATOM      1  O   UNL     1       0.055   0.570   1.237  1.00  0.00    -0.350 OA
ATOM      2 WAT  UNL     1       0.195   2.979   3.020  1.00  0.00     0.000 W 
ATOM      3 WAT  UNL     1       1.449   0.587  -1.419  1.00  0.00     0.000 W 
ENDROOT
BRANCH   1   4
ATOM      4  C   UNL     1      -1.328   0.351   0.965  1.00  0.00     0.281 C 
ATOM      5  O   UNL     1      -1.487  -0.851   0.214  1.00  0.00    -0.341 OA
ATOM      6  C   UNL     1      -2.856  -1.142  -0.072  1.00  0.00     0.178 C 
ATOM      7 WAT  UNL     1      -0.169  -0.357  -2.436  1.00  0.00     0.000 W 
ATOM      8 WAT  UNL     1      -0.514  -3.071   1.982  1.00  0.00     0.000 W 
ATOM      9  C   UNL     1      -3.451  -0.041  -0.952  1.00  0.00     0.177 C 
ATOM     10  C   UNL     1      -1.847   1.550   0.172  1.00  0.00     0.202 C 
ATOM     11  C   UNL     1      -3.287   1.329  -0.293  1.00  0.00     0.179 C 
BRANCH   6  12
ATOM     12  C   UNL     1      -2.902  -2.502  -0.760  1.00  0.00     0.191 C 
BRANCH  12  13
ATOM     13  O   UNL     1      -2.328  -3.465   0.104  1.00  0.00    -0.394 OA
ATOM     14  H   UNL     1      -1.419  -3.181   0.299  1.00  0.00     0.210 HD
ATOM     15 WAT  UNL     1      -2.142  -6.036  -1.431  1.00  0.00     0.000 W 
ATOM     16 WAT  UNL     1      -3.858  -3.366   2.683  1.00  0.00     0.000 W 
ATOM     17 WAT  UNL     1       0.452  -2.596   0.699  1.00  0.00     0.000 W 
ENDBRANCH  12  13
ENDBRANCH   6  12
BRANCH   9  18
ATOM     18  O   UNL     1      -4.837  -0.301  -1.159  1.00  0.00    -0.387 OA
ATOM     19  H   UNL     1      -5.272  -0.318  -0.290  1.00  0.00     0.211 HD
ATOM     20 WAT  UNL     1      -5.053  -3.063  -2.310  1.00  0.00     0.000 W 
ATOM     21 WAT  UNL     1      -5.959   2.042  -2.661  1.00  0.00     0.000 W 
ATOM     22 WAT  UNL     1      -6.168  -0.355   1.498  1.00  0.00     0.000 W 
ENDBRANCH   9  18
BRANCH  10  23
ATOM     23  O   UNL     1      -1.794   2.701   1.015  1.00  0.00    -0.385 OA
ATOM     24  H   UNL     1      -2.365   2.538   1.784  1.00  0.00     0.211 HD
ATOM     25 WAT  UNL     1      -3.009   4.975  -0.519  1.00  0.00     0.000 W 
ATOM     26 WAT  UNL     1       1.019   2.914   2.036  1.00  0.00     0.000 W 
ATOM     27 WAT  UNL     1      -3.541   2.203   3.367  1.00  0.00     0.000 W 
ENDBRANCH  10  23
BRANCH  11  28
ATOM     28  O   UNL     1      -3.635   2.326  -1.254  1.00  0.00    -0.387 OA
ATOM     29  H   UNL     1      -4.548   2.150  -1.539  1.00  0.00     0.211 HD
ATOM     30 WAT  UNL     1      -1.866   1.915  -3.642  1.00  0.00     0.000 W 
ATOM     31 WAT  UNL     1      -3.643   4.967   0.170  1.00  0.00     0.000 W 
ATOM     32 WAT  UNL     1      -6.426   1.788  -2.124  1.00  0.00     0.000 W 
ENDBRANCH  11  28
ENDBRANCH   1   4
BRANCH   1  33
ATOM     33  C   UNL     1       0.613  -0.507   1.975  1.00  0.00     0.168 C 
BRANCH  33  34
ATOM     34  C   UNL     1       2.085  -0.230   2.258  1.00  0.00     0.064 C 
BRANCH  34  35
ATOM     35  C   UNL     1       2.900  -0.111   0.993  1.00  0.00    -0.045 A 
ATOM     36  C   UNL     1       3.484  -1.244   0.452  1.00  0.00     0.007 A 
ATOM     37  C   UNL     1       3.049   1.131   0.396  1.00  0.00     0.007 A 
ATOM     38  C   UNL     1       4.237  -1.134  -0.717  1.00  0.00     0.046 A 
ATOM     39  C   UNL     1       3.802   1.242  -0.773  1.00  0.00     0.046 A 
ATOM     40  C   UNL     1       4.396   0.110  -1.329  1.00  0.00     0.115 A 
BRANCH  40  41
ATOM     41  O   UNL     1       5.131   0.217  -2.470  1.00  0.00    -0.508 OA
ATOM     42  H   UNL     1       5.467  -0.663  -2.712  1.00  0.00     0.293 HD
ATOM     43 WAT  UNL     1       7.518   1.911  -1.812  1.00  0.00     0.000 W 
ATOM     44 WAT  UNL     1       3.247   1.061  -4.646  1.00  0.00     0.000 W 
ATOM     45 WAT  UNL     1       6.158  -2.473  -3.211  1.00  0.00     0.000 W 
ENDBRANCH  40  41
ENDBRANCH  34  35
ENDBRANCH  33  34
ENDBRANCH   1  33
TORSDOF 10
