MODEL 1
REMARK VINA RESULT:    -8.118      0.000      0.000
REMARK INTER + INTRA:         -22.137
REMARK INTER:                 -18.322
REMARK INTRA:                  -3.815
REMARK UNBOUND:                -3.815
REMARK  23 active torsions:
REMARK  status: ('A' for Active; 'I' for Inactive)
REMARK    1  A    between atoms: C_3  and  O_7 
REMARK    2  A    between atoms: N_4  and  C_6 
REMARK    3  A    between atoms: C_6  and  C_9 
REMARK    4  A    between atoms: O_7  and  O_42 
REMARK    5  A    between atoms: C_12  and  O_42 
REMARK    6  A    between atoms: C_13  and  C_44 
REMARK    7  A    between atoms: C_19  and  C_21 
REMARK    8  A    between atoms: C_20  and  O_40 
REMARK    9  A    between atoms: C_26  and  O_37 
REMARK   10  A    between atoms: C_27  and  C_33 
REMARK   11  A    between atoms: C_28  and  O_32 
REMARK   12  A    between atoms: C_38  and  N_47 
REMARK   13  A    between atoms: C_43  and  N_48 
REMARK   14  A    between atoms: N_47  and  C_50 
REMARK   15  A    between atoms: N_48  and  C_65 
REMARK   16  A    between atoms: C_50  and  C_51 
REMARK   17  A    between atoms: C_51  and  S_52 
REMARK   18  A    between atoms: S_52  and  O_53 
REMARK   19  A    between atoms: O_53  and  O_56 
REMARK   20  A    between atoms: O_59  and  O_62 
REMARK   21  A    between atoms: O_62  and  S_63 
REMARK   22  A    between atoms: S_63  and  C_64 
REMARK   23  A    between atoms: C_64  and  C_65 
ROOT
HETATM    1  C   UNL     1       8.511  30.005  32.606  1.00  0.00     0.196 C 
HETATM    2  C   UNL     1       8.649  31.463  32.795  1.00  0.00     0.037 C 
HETATM    3  C   UNL     1       8.925  32.002  34.021  1.00  0.00    -0.028 C 
HETATM    4  C   UNL     1       9.068  31.062  35.219  1.00  0.00    -0.014 A 
HETATM    5  C   UNL     1       8.999  29.642  35.089  1.00  0.00     0.024 A 
HETATM    6  C   UNL     1       8.865  29.048  33.691  1.00  0.00     0.044 C 
HETATM    7  C   UNL     1       9.282  31.605  36.504  1.00  0.00     0.020 A 
HETATM    8  C   UNL     1       9.439  30.826  37.648  1.00  0.00    -0.047 A 
HETATM    9  C   UNL     1       9.327  29.423  37.557  1.00  0.00     0.017 A 
HETATM   10  C   UNL     1       9.073  28.842  36.280  1.00  0.00     0.089 A 
HETATM   11  C   UNL     1       9.778  31.546  38.935  1.00  0.00     0.049 C 
HETATM   12  O   UNL     1       8.135  29.620  31.512  1.00  0.00    -0.287 OA
HETATM   13  C   UNL     1       9.177  27.734  33.418  1.00  0.00     0.099 C 
ENDROOT
BRANCH   9  14
HETATM   14  C   UNL     1       9.539  28.537  38.767  1.00  0.00     0.017 C 
HETATM   15  C   UNL     1       8.653  28.610  39.868  1.00  0.00    -0.047 C 
HETATM   16  C   UNL     1       8.923  27.879  41.023  1.00  0.00     0.020 C 
HETATM   17  C   UNL     1       7.400  29.461  39.891  1.00  0.00     0.049 C 
HETATM   18  C   UNL     1      10.011  26.986  41.137  1.00  0.00    -0.012 C 
HETATM   19  C   UNL     1      10.838  26.811  39.992  1.00  0.00     0.025 C 
HETATM   20  C   UNL     1      10.316  26.289  42.476  1.00  0.00    -0.006 C 
HETATM   21  C   UNL     1      10.642  27.656  38.847  1.00  0.00     0.089 C 
HETATM   22  C   UNL     1      11.921  25.775  40.071  1.00  0.00     0.046 C 
HETATM   23  C   UNL     1      12.394  25.411  41.419  1.00  0.00     0.217 C 
HETATM   24  C   UNL     1      12.389  25.012  39.036  1.00  0.00     0.099 C 
HETATM   25  C   UNL     1      11.512  25.606  42.588  1.00  0.00     0.124 C 
HETATM   26  O   UNL     1      13.431  24.775  41.563  1.00  0.00    -0.284 OA
BRANCH  21  27
HETATM   27  O   UNL     1      11.558  27.727  37.855  1.00  0.00    -0.359 OA
HETATM   28  H   UNL     1      12.512  27.764  37.994  1.00  0.00     0.217 HD
ENDBRANCH  21  27
BRANCH  25  29
HETATM   29  O   UNL     1      11.992  25.002  43.706  1.00  0.00    -0.356 OA
HETATM   30  H   UNL     1      11.969  25.258  44.623  1.00  0.00     0.218 HD
ENDBRANCH  25  29
BRANCH  24  31
HETATM   31  N   UNL     1      11.817  24.987  37.732  1.00  0.00    -0.397 N 
HETATM   32  H   UNL     1      10.926  25.463  37.566  1.00  0.00     0.158 HD
BRANCH  31  33
HETATM   33  C   UNL     1      12.290  24.114  36.674  1.00  0.00     0.136 C 
BRANCH  33  34
HETATM   34  C   UNL     1      11.302  23.974  35.510  1.00  0.00     0.192 C 
BRANCH  34  35
HETATM   35  S   UNL     1       9.587  23.638  36.028  1.00  0.00     0.295 S 
HETATM   36  O   UNL     1       8.974  24.832  36.777  1.00  0.00    -0.196 OA
HETATM   37  O   UNL     1       8.632  23.545  34.828  1.00  0.00    -0.196 OA
BRANCH  35  38
HETATM   38  O   UNL     1       9.221  22.263  36.996  1.00  0.00    -0.074 OA
BRANCH  38  39
HETATM   39  O   UNL     1       8.028  21.872  36.600  1.00  0.00    -0.018 OA
HETATM   40 NA   UNL     1       6.898  23.567  36.574  1.00  0.00     0.000 Na
ENDBRANCH  38  39
ENDBRANCH  35  38
ENDBRANCH  34  35
ENDBRANCH  33  34
ENDBRANCH  31  33
ENDBRANCH  24  31
BRANCH  20  41
HETATM   41  C   UNL     1       9.269  26.488  43.620  1.00  0.00     0.014 C 
HETATM   42  C   UNL     1       8.466  25.182  43.810  1.00  0.00     0.015 C 
HETATM   43  C   UNL     1       9.708  26.944  45.018  1.00  0.00     0.015 C 
ENDBRANCH  20  41
ENDBRANCH   9  14
BRANCH  10  44
HETATM   44  O   UNL     1       8.855  27.510  36.205  1.00  0.00    -0.359 OA
HETATM   45  H   UNL     1       8.209  27.075  35.633  1.00  0.00     0.217 HD
ENDBRANCH  10  44
BRANCH   3  46
HETATM   46  C   UNL     1       9.133  33.534  34.252  1.00  0.00     0.012 C 
HETATM   47  C   UNL     1       7.887  34.131  34.940  1.00  0.00     0.015 C 
HETATM   48  C   UNL     1      10.362  34.027  35.035  1.00  0.00     0.015 C 
ENDBRANCH   3  46
BRANCH  13  49
HETATM   49  N   UNL     1       9.202  27.115  32.127  1.00  0.00    -0.397 N 
HETATM   50  H   UNL     1       9.233  27.640  31.250  1.00  0.00     0.158 HD
BRANCH  49  51
HETATM   51  C   UNL     1       9.282  25.669  32.034  1.00  0.00     0.136 C 
BRANCH  51  52
HETATM   52  C   UNL     1      10.030  25.237  30.770  1.00  0.00     0.192 C 
BRANCH  52  53
HETATM   53  S   UNL     1      11.265  23.946  31.133  1.00  0.00     0.295 S 
HETATM   54  O   UNL     1      12.358  24.414  32.109  1.00  0.00    -0.196 OA
HETATM   55  O   UNL     1      10.636  22.766  31.891  1.00  0.00    -0.196 OA
BRANCH  53  56
HETATM   56  O   UNL     1      12.099  23.251  29.795  1.00  0.00    -0.074 OA
BRANCH  56  57
HETATM   57  O   UNL     1      12.498  22.064  30.203  1.00  0.00    -0.018 OA
HETATM   58 NA   UNL     1      10.840  20.893  30.054  1.00  0.00     0.000 Na
ENDBRANCH  56  57
ENDBRANCH  53  56
ENDBRANCH  52  53
ENDBRANCH  51  52
ENDBRANCH  49  51
ENDBRANCH  13  49
BRANCH   2  59
HETATM   59  O   UNL     1       8.528  32.233  31.678  1.00  0.00     0.000 OA
HETATM   60  H   UNL     1       7.822  31.986  31.068  1.00  0.00     0.000 HD
BRANCH  59  61
HETATM   61  O   UNL     1       9.442  33.001  31.195  1.00  0.00    -0.177 OA
BRANCH  61  62
HETATM   62  C   UNL     1       9.337  33.830  30.280  1.00  0.00     0.153 C 
HETATM   63  C   UNL     1       9.390  33.572  28.797  1.00  0.00     0.088 C 
HETATM   64  C   UNL     1       9.673  34.972  28.279  1.00  0.00     0.028 C 
HETATM   65  C   UNL     1       8.984  35.881  29.287  1.00  0.00     0.125 C 
HETATM   66  N   UNL     1       9.122  35.150  30.524  1.00  0.00    -0.359 N 
BRANCH  66  67
HETATM   67  C   UNL     1       8.981  35.782  31.830  1.00  0.00     0.081 C 
HETATM   68  C   UNL     1      10.093  36.818  32.055  1.00  0.00     0.032 C 
BRANCH  67  69
HETATM   69  C   UNL     1       7.557  36.367  31.976  1.00  0.00     0.020 C 
HETATM   70  C   UNL     1       7.538  37.884  32.157  1.00  0.00     0.007 C 
ENDBRANCH  67  69
ENDBRANCH  66  67
ENDBRANCH  61  62
ENDBRANCH  59  61
ENDBRANCH   2  59
TORSDOF 23
ENDMDL
MODEL 2
REMARK VINA RESULT:    -7.885      1.324      2.132
REMARK INTER + INTRA:         -21.610
REMARK INTER:                 -17.073
REMARK INTRA:                  -4.537
REMARK UNBOUND:                -3.815
REMARK  23 active torsions:
REMARK  status: ('A' for Active; 'I' for Inactive)
REMARK    1  A    between atoms: C_3  and  O_7 
REMARK    2  A    between atoms: N_4  and  C_6 
REMARK    3  A    between atoms: C_6  and  C_9 
REMARK    4  A    between atoms: O_7  and  O_42 
REMARK    5  A    between atoms: C_12  and  O_42 
REMARK    6  A    between atoms: C_13  and  C_44 
REMARK    7  A    between atoms: C_19  and  C_21 
REMARK    8  A    between atoms: C_20  and  O_40 
REMARK    9  A    between atoms: C_26  and  O_37 
REMARK   10  A    between atoms: C_27  and  C_33 
REMARK   11  A    between atoms: C_28  and  O_32 
REMARK   12  A    between atoms: C_38  and  N_47 
REMARK   13  A    between atoms: C_43  and  N_48 
REMARK   14  A    between atoms: N_47  and  C_50 
REMARK   15  A    between atoms: N_48  and  C_65 
REMARK   16  A    between atoms: C_50  and  C_51 
REMARK   17  A    between atoms: C_51  and  S_52 
REMARK   18  A    between atoms: S_52  and  O_53 
REMARK   19  A    between atoms: O_53  and  O_56 
REMARK   20  A    between atoms: O_59  and  O_62 
REMARK   21  A    between atoms: O_62  and  S_63 
REMARK   22  A    between atoms: S_63  and  C_64 
REMARK   23  A    between atoms: C_64  and  C_65 
ROOT
HETATM    1  C   UNL     1       8.498  30.168  33.664  1.00  0.00     0.196 C 
HETATM    2  C   UNL     1       8.651  31.615  33.913  1.00  0.00     0.037 C 
HETATM    3  C   UNL     1       9.042  32.093  35.132  1.00  0.00    -0.028 C 
HETATM    4  C   UNL     1       9.301  31.094  36.261  1.00  0.00    -0.014 A 
HETATM    5  C   UNL     1       9.223  29.682  36.066  1.00  0.00     0.024 A 
HETATM    6  C   UNL     1       8.957  29.159  34.659  1.00  0.00     0.044 C 
HETATM    7  C   UNL     1       9.636  31.572  37.546  1.00  0.00     0.020 A 
HETATM    8  C   UNL     1       9.904  30.737  38.629  1.00  0.00    -0.047 A 
HETATM    9  C   UNL     1       9.786  29.340  38.477  1.00  0.00     0.017 A 
HETATM   10  C   UNL     1       9.412  28.823  37.202  1.00  0.00     0.089 A 
HETATM   11  C   UNL     1      10.363  31.393  39.913  1.00  0.00     0.049 C 
HETATM   12  O   UNL     1       8.020  29.837  32.592  1.00  0.00    -0.287 OA
HETATM   13  C   UNL     1       9.243  27.864  34.290  1.00  0.00     0.099 C 
ENDROOT
BRANCH   9  14
HETATM   14  C   UNL     1      10.114  28.396  39.614  1.00  0.00     0.017 C 
HETATM   15  C   UNL     1       9.215  28.240  40.695  1.00  0.00    -0.047 C 
HETATM   16  C   UNL     1       9.578  27.462  41.792  1.00  0.00     0.020 C 
HETATM   17  C   UNL     1       7.847  28.890  40.758  1.00  0.00     0.049 C 
HETATM   18  C   UNL     1      10.787  26.734  41.859  1.00  0.00    -0.012 C 
HETATM   19  C   UNL     1      11.644  26.784  40.723  1.00  0.00     0.025 C 
HETATM   20  C   UNL     1      11.177  25.979  43.142  1.00  0.00    -0.006 C 
HETATM   21  C   UNL     1      11.336  27.685  39.648  1.00  0.00     0.089 C 
HETATM   22  C   UNL     1      12.870  25.918  40.743  1.00  0.00     0.046 C 
HETATM   23  C   UNL     1      13.377  25.515  42.068  1.00  0.00     0.217 C 
HETATM   24  C   UNL     1      13.460  25.325  39.660  1.00  0.00     0.099 C 
HETATM   25  C   UNL     1      12.462  25.474  43.227  1.00  0.00     0.124 C 
HETATM   26  O   UNL     1      14.496  25.031  42.183  1.00  0.00    -0.284 OA
BRANCH  21  27
HETATM   27  O   UNL     1      12.243  27.976  38.688  1.00  0.00    -0.359 OA
HETATM   28  H   UNL     1      13.000  28.562  38.811  1.00  0.00     0.217 HD
ENDBRANCH  21  27
BRANCH  25  29
HETATM   29  O   UNL     1      13.014  24.856  44.302  1.00  0.00    -0.356 OA
HETATM   30  H   UNL     1      13.116  23.934  44.519  1.00  0.00     0.218 HD
ENDBRANCH  25  29
BRANCH  24  31
HETATM   31  N   UNL     1      12.914  25.327  38.345  1.00  0.00    -0.397 N 
HETATM   32  H   UNL     1      12.805  26.215  37.848  1.00  0.00     0.158 HD
BRANCH  31  33
HETATM   33  C   UNL     1      12.265  24.171  37.754  1.00  0.00     0.136 C 
BRANCH  33  34
HETATM   34  C   UNL     1      10.793  24.024  38.158  1.00  0.00     0.192 C 
BRANCH  34  35
HETATM   35  S   UNL     1       9.692  23.540  36.788  1.00  0.00     0.295 S 
HETATM   36  O   UNL     1       9.240  24.756  35.964  1.00  0.00    -0.196 OA
HETATM   37  O   UNL     1      10.436  22.738  35.710  1.00  0.00    -0.196 OA
BRANCH  35  38
HETATM   38  O   UNL     1       8.255  22.646  37.097  1.00  0.00    -0.074 OA
BRANCH  38  39
HETATM   39  O   UNL     1       7.411  23.017  36.157  1.00  0.00    -0.018 OA
HETATM   40 NA   UNL     1       8.508  23.045  34.441  1.00  0.00     0.000 Na
ENDBRANCH  38  39
ENDBRANCH  35  38
ENDBRANCH  34  35
ENDBRANCH  33  34
ENDBRANCH  31  33
ENDBRANCH  24  31
BRANCH  20  41
HETATM   41  C   UNL     1      10.099  25.921  44.273  1.00  0.00     0.014 C 
HETATM   42  C   UNL     1       9.627  24.461  44.453  1.00  0.00     0.015 C 
HETATM   43  C   UNL     1      10.399  26.465  45.676  1.00  0.00     0.015 C 
ENDBRANCH  20  41
ENDBRANCH   9  14
BRANCH  10  44
HETATM   44  O   UNL     1       9.190  27.496  37.080  1.00  0.00    -0.359 OA
HETATM   45  H   UNL     1       9.173  27.000  36.251  1.00  0.00     0.217 HD
ENDBRANCH  10  44
BRANCH   3  46
HETATM   46  C   UNL     1       9.268  33.613  35.421  1.00  0.00     0.012 C 
HETATM   47  C   UNL     1       7.950  34.253  35.906  1.00  0.00     0.015 C 
HETATM   48  C   UNL     1      10.370  34.047  36.404  1.00  0.00     0.015 C 
ENDBRANCH   3  46
BRANCH  13  49
HETATM   49  N   UNL     1       9.145  27.311  32.972  1.00  0.00    -0.397 N 
HETATM   50  H   UNL     1       9.067  27.880  32.127  1.00  0.00     0.158 HD
BRANCH  49  51
HETATM   51  C   UNL     1       9.256  25.875  32.794  1.00  0.00     0.136 C 
BRANCH  51  52
HETATM   52  C   UNL     1       9.417  25.512  31.315  1.00  0.00     0.192 C 
BRANCH  52  53
HETATM   53  S   UNL     1      10.952  24.575  31.020  1.00  0.00     0.295 S 
HETATM   54  O   UNL     1      11.467  24.700  29.577  1.00  0.00    -0.196 OA
HETATM   55  O   UNL     1      12.123  25.147  31.834  1.00  0.00    -0.196 OA
BRANCH  53  56
HETATM   56  O   UNL     1      10.925  22.886  31.363  1.00  0.00    -0.074 OA
BRANCH  56  57
HETATM   57  O   UNL     1      10.265  22.765  32.496  1.00  0.00    -0.018 OA
HETATM   58 NA   UNL     1      11.292  23.932  33.810  1.00  0.00     0.000 Na
ENDBRANCH  56  57
ENDBRANCH  53  56
ENDBRANCH  52  53
ENDBRANCH  51  52
ENDBRANCH  49  51
ENDBRANCH  13  49
BRANCH   2  59
HETATM   59  O   UNL     1       8.422  32.440  32.853  1.00  0.00     0.000 OA
HETATM   60  H   UNL     1       7.589  32.306  32.385  1.00  0.00     0.000 HD
BRANCH  59  61
HETATM   61  O   UNL     1       9.320  33.111  32.219  1.00  0.00    -0.177 OA
BRANCH  61  62
HETATM   62  C   UNL     1       9.216  34.240  31.717  1.00  0.00     0.153 C 
HETATM   63  C   UNL     1       9.531  35.564  32.361  1.00  0.00     0.088 C 
HETATM   64  C   UNL     1       8.772  36.509  31.444  1.00  0.00     0.028 C 
HETATM   65  C   UNL     1       8.826  35.823  30.087  1.00  0.00     0.125 C 
HETATM   66  N   UNL     1       8.804  34.423  30.434  1.00  0.00    -0.359 N 
BRANCH  66  67
HETATM   67  C   UNL     1       8.438  33.381  29.481  1.00  0.00     0.081 C 
HETATM   68  C   UNL     1       7.555  33.956  28.362  1.00  0.00     0.032 C 
BRANCH  67  69
HETATM   69  C   UNL     1       9.713  32.681  28.958  1.00  0.00     0.020 C 
HETATM   70  C   UNL     1       9.476  31.242  28.503  1.00  0.00     0.007 C 
ENDBRANCH  67  69
ENDBRANCH  66  67
ENDBRANCH  61  62
ENDBRANCH  59  61
ENDBRANCH   2  59
TORSDOF 23
ENDMDL
MODEL 3
REMARK VINA RESULT:    -7.877      6.283      9.023
REMARK INTER + INTRA:         -21.592
REMARK INTER:                 -15.637
REMARK INTRA:                  -5.955
REMARK UNBOUND:                -3.815
REMARK  23 active torsions:
REMARK  status: ('A' for Active; 'I' for Inactive)
REMARK    1  A    between atoms: C_3  and  O_7 
REMARK    2  A    between atoms: N_4  and  C_6 
REMARK    3  A    between atoms: C_6  and  C_9 
REMARK    4  A    between atoms: O_7  and  O_42 
REMARK    5  A    between atoms: C_12  and  O_42 
REMARK    6  A    between atoms: C_13  and  C_44 
REMARK    7  A    between atoms: C_19  and  C_21 
REMARK    8  A    between atoms: C_20  and  O_40 
REMARK    9  A    between atoms: C_26  and  O_37 
REMARK   10  A    between atoms: C_27  and  C_33 
REMARK   11  A    between atoms: C_28  and  O_32 
REMARK   12  A    between atoms: C_38  and  N_47 
REMARK   13  A    between atoms: C_43  and  N_48 
REMARK   14  A    between atoms: N_47  and  C_50 
REMARK   15  A    between atoms: N_48  and  C_65 
REMARK   16  A    between atoms: C_50  and  C_51 
REMARK   17  A    between atoms: C_51  and  S_52 
REMARK   18  A    between atoms: S_52  and  O_53 
REMARK   19  A    between atoms: O_53  and  O_56 
REMARK   20  A    between atoms: O_59  and  O_62 
REMARK   21  A    between atoms: O_62  and  S_63 
REMARK   22  A    between atoms: S_63  and  C_64 
REMARK   23  A    between atoms: C_64  and  C_65 
ROOT
HETATM    1  C   UNL     1      11.925  21.350  32.228  1.00  0.00     0.196 C 
HETATM    2  C   UNL     1      11.633  22.641  31.575  1.00  0.00     0.037 C 
HETATM    3  C   UNL     1      10.999  23.652  32.242  1.00  0.00    -0.028 C 
HETATM    4  C   UNL     1      10.569  23.418  33.690  1.00  0.00    -0.014 A 
HETATM    5  C   UNL     1      10.871  22.211  34.392  1.00  0.00     0.024 A 
HETATM    6  C   UNL     1      11.729  21.163  33.693  1.00  0.00     0.044 C 
HETATM    7  C   UNL     1       9.851  24.423  34.372  1.00  0.00     0.020 A 
HETATM    8  C   UNL     1       9.432  24.303  35.695  1.00  0.00    -0.047 A 
HETATM    9  C   UNL     1       9.675  23.104  36.396  1.00  0.00     0.017 A 
HETATM   10  C   UNL     1      10.364  22.051  35.726  1.00  0.00     0.089 A 
HETATM   11  C   UNL     1       8.774  25.511  36.326  1.00  0.00     0.049 C 
HETATM   12  O   UNL     1      12.372  20.460  31.524  1.00  0.00    -0.287 OA
HETATM   13  C   UNL     1      12.392  20.174  34.386  1.00  0.00     0.099 C 
ENDROOT
BRANCH   9  14
HETATM   14  C   UNL     1       9.279  22.949  37.850  1.00  0.00     0.017 C 
HETATM   15  C   UNL     1       8.059  22.320  38.195  1.00  0.00    -0.047 C 
HETATM   16  C   UNL     1       7.648  22.289  39.526  1.00  0.00     0.020 C 
HETATM   17  C   UNL     1       7.130  21.669  37.191  1.00  0.00     0.049 C 
HETATM   18  C   UNL     1       8.431  22.789  40.589  1.00  0.00    -0.012 C 
HETATM   19  C   UNL     1       9.716  23.312  40.268  1.00  0.00     0.025 C 
HETATM   20  C   UNL     1       7.875  22.821  42.024  1.00  0.00    -0.006 C 
HETATM   21  C   UNL     1      10.087  23.465  38.889  1.00  0.00     0.089 C 
HETATM   22  C   UNL     1      10.597  23.733  41.407  1.00  0.00     0.046 C 
HETATM   23  C   UNL     1       9.925  24.078  42.674  1.00  0.00     0.217 C 
HETATM   24  C   UNL     1      11.962  23.663  41.443  1.00  0.00     0.099 C 
HETATM   25  C   UNL     1       8.592  23.519  42.978  1.00  0.00     0.124 C 
HETATM   26  O   UNL     1      10.534  24.665  43.559  1.00  0.00    -0.284 OA
BRANCH  21  27
HETATM   27  O   UNL     1      11.161  24.201  38.524  1.00  0.00    -0.359 OA
HETATM   28  H   UNL     1      11.888  24.438  39.114  1.00  0.00     0.217 HD
ENDBRANCH  21  27
BRANCH  25  29
HETATM   29  O   UNL     1       8.224  23.729  44.268  1.00  0.00    -0.356 OA
HETATM   30  H   UNL     1       7.367  23.791  44.680  1.00  0.00     0.218 HD
ENDBRANCH  25  29
BRANCH  24  31
HETATM   31  N   UNL     1      12.763  23.043  40.442  1.00  0.00    -0.397 N 
HETATM   32  H   UNL     1      12.371  22.891  39.508  1.00  0.00     0.158 HD
BRANCH  31  33
HETATM   33  C   UNL     1      14.021  22.380  40.729  1.00  0.00     0.136 C 
BRANCH  33  34
HETATM   34  C   UNL     1      15.124  22.694  39.711  1.00  0.00     0.192 C 
BRANCH  34  35
HETATM   35  S   UNL     1      14.502  23.275  38.099  1.00  0.00     0.295 S 
HETATM   36  O   UNL     1      14.130  24.765  38.136  1.00  0.00    -0.196 OA
HETATM   37  O   UNL     1      15.606  23.293  37.030  1.00  0.00    -0.196 OA
BRANCH  35  38
HETATM   38  O   UNL     1      13.166  22.494  37.347  1.00  0.00    -0.074 OA
BRANCH  38  39
HETATM   39  O   UNL     1      13.297  21.220  37.651  1.00  0.00    -0.018 OA
HETATM   40 NA   UNL     1      15.297  20.852  37.543  1.00  0.00     0.000 Na
ENDBRANCH  38  39
ENDBRANCH  35  38
ENDBRANCH  34  35
ENDBRANCH  33  34
ENDBRANCH  31  33
ENDBRANCH  24  31
BRANCH  20  41
HETATM   41  C   UNL     1       6.496  22.121  42.254  1.00  0.00     0.014 C 
HETATM   42  C   UNL     1       6.714  20.810  43.042  1.00  0.00     0.015 C 
HETATM   43  C   UNL     1       5.340  22.861  42.940  1.00  0.00     0.015 C 
ENDBRANCH  20  41
ENDBRANCH   9  14
BRANCH  10  44
HETATM   44  O   UNL     1      10.501  20.862  36.354  1.00  0.00    -0.359 OA
HETATM   45  H   UNL     1      10.580  20.733  37.308  1.00  0.00     0.217 HD
ENDBRANCH  10  44
BRANCH   3  46
HETATM   46  C   UNL     1      10.720  25.053  31.603  1.00  0.00     0.012 C 
HETATM   47  C   UNL     1      11.775  25.348  30.516  1.00  0.00     0.015 C 
HETATM   48  C   UNL     1       9.341  25.350  30.990  1.00  0.00     0.015 C 
ENDBRANCH   3  46
BRANCH  13  49
HETATM   49  N   UNL     1      13.313  19.222  33.842  1.00  0.00    -0.397 N 
HETATM   50  H   UNL     1      14.191  19.483  33.389  1.00  0.00     0.158 HD
BRANCH  49  51
HETATM   51  C   UNL     1      13.054  17.804  34.014  1.00  0.00     0.136 C 
BRANCH  51  52
HETATM   52  C   UNL     1      14.357  17.001  34.020  1.00  0.00     0.192 C 
BRANCH  52  53
HETATM   53  S   UNL     1      15.380  17.399  35.475  1.00  0.00     0.295 S 
HETATM   54  O   UNL     1      15.224  16.382  36.619  1.00  0.00    -0.196 OA
HETATM   55  O   UNL     1      16.879  17.296  35.153  1.00  0.00    -0.196 OA
BRANCH  53  56
HETATM   56  O   UNL     1      15.162  18.950  36.194  1.00  0.00    -0.074 OA
BRANCH  56  57
HETATM   57  O   UNL     1      15.805  19.795  35.415  1.00  0.00    -0.018 OA
HETATM   58 NA   UNL     1      14.719  21.513  35.526  1.00  0.00     0.000 Na
ENDBRANCH  56  57
ENDBRANCH  53  56
ENDBRANCH  52  53
ENDBRANCH  51  52
ENDBRANCH  49  51
ENDBRANCH  13  49
BRANCH   2  59
HETATM   59  O   UNL     1      12.064  22.782  30.290  1.00  0.00     0.000 OA
HETATM   60  H   UNL     1      11.638  23.477  29.774  1.00  0.00     0.000 HD
BRANCH  59  61
HETATM   61  O   UNL     1      12.699  21.890  29.612  1.00  0.00    -0.177 OA
BRANCH  61  62
HETATM   62  C   UNL     1      13.398  22.054  28.602  1.00  0.00     0.153 C 
HETATM   63  C   UNL     1      13.471  23.275  27.724  1.00  0.00     0.088 C 
HETATM   64  C   UNL     1      14.098  22.684  26.472  1.00  0.00     0.028 C 
HETATM   65  C   UNL     1      14.984  21.565  27.001  1.00  0.00     0.125 C 
HETATM   66  N   UNL     1      14.256  21.098  28.156  1.00  0.00    -0.359 N 
BRANCH  66  67
HETATM   67  C   UNL     1      14.490  19.790  28.757  1.00  0.00     0.081 C 
HETATM   68  C   UNL     1      14.651  18.715  27.672  1.00  0.00     0.032 C 
BRANCH  67  69
HETATM   69  C   UNL     1      15.693  19.870  29.725  1.00  0.00     0.020 C 
HETATM   70  C   UNL     1      16.623  18.661  29.644  1.00  0.00     0.007 C 
ENDBRANCH  67  69
ENDBRANCH  66  67
ENDBRANCH  61  62
ENDBRANCH  59  61
ENDBRANCH   2  59
TORSDOF 23
ENDMDL
MODEL 4
REMARK VINA RESULT:    -7.829      4.705      9.015
REMARK INTER + INTRA:         -21.485
REMARK INTER:                 -16.678
REMARK INTRA:                  -4.807
REMARK UNBOUND:                -3.815
REMARK  23 active torsions:
REMARK  status: ('A' for Active; 'I' for Inactive)
REMARK    1  A    between atoms: C_3  and  O_7 
REMARK    2  A    between atoms: N_4  and  C_6 
REMARK    3  A    between atoms: C_6  and  C_9 
REMARK    4  A    between atoms: O_7  and  O_42 
REMARK    5  A    between atoms: C_12  and  O_42 
REMARK    6  A    between atoms: C_13  and  C_44 
REMARK    7  A    between atoms: C_19  and  C_21 
REMARK    8  A    between atoms: C_20  and  O_40 
REMARK    9  A    between atoms: C_26  and  O_37 
REMARK   10  A    between atoms: C_27  and  C_33 
REMARK   11  A    between atoms: C_28  and  O_32 
REMARK   12  A    between atoms: C_38  and  N_47 
REMARK   13  A    between atoms: C_43  and  N_48 
REMARK   14  A    between atoms: N_47  and  C_50 
REMARK   15  A    between atoms: N_48  and  C_65 
REMARK   16  A    between atoms: C_50  and  C_51 
REMARK   17  A    between atoms: C_51  and  S_52 
REMARK   18  A    between atoms: S_52  and  O_53 
REMARK   19  A    between atoms: O_53  and  O_56 
REMARK   20  A    between atoms: O_59  and  O_62 
REMARK   21  A    between atoms: O_62  and  S_63 
REMARK   22  A    between atoms: S_63  and  C_64 
REMARK   23  A    between atoms: C_64  and  C_65 
ROOT
HETATM    1  C   UNL     1      10.385  26.341  37.695  1.00  0.00     0.196 C 
HETATM    2  C   UNL     1      10.041  25.524  36.514  1.00  0.00     0.037 C 
HETATM    3  C   UNL     1       9.494  24.278  36.641  1.00  0.00    -0.028 C 
HETATM    4  C   UNL     1       9.261  23.720  38.046  1.00  0.00    -0.014 A 
HETATM    5  C   UNL     1       9.522  24.484  39.224  1.00  0.00     0.024 A 
HETATM    6  C   UNL     1       9.966  25.933  39.065  1.00  0.00     0.044 C 
HETATM    7  C   UNL     1       8.764  22.409  38.198  1.00  0.00     0.020 A 
HETATM    8  C   UNL     1       8.506  21.825  39.437  1.00  0.00    -0.047 A 
HETATM    9  C   UNL     1       8.801  22.538  40.617  1.00  0.00     0.017 A 
HETATM   10  C   UNL     1       9.340  23.852  40.502  1.00  0.00     0.089 A 
HETATM   11  C   UNL     1       7.865  20.454  39.437  1.00  0.00     0.049 C 
HETATM   12  O   UNL     1      10.988  27.381  37.494  1.00  0.00    -0.287 OA
HETATM   13  C   UNL     1       9.868  26.849  40.089  1.00  0.00     0.099 C 
ENDROOT
BRANCH   9  14
HETATM   14  C   UNL     1       8.492  21.959  41.982  1.00  0.00     0.017 C 
HETATM   15  C   UNL     1       9.502  21.301  42.724  1.00  0.00    -0.047 C 
HETATM   16  C   UNL     1       9.179  20.669  43.924  1.00  0.00     0.020 C 
HETATM   17  C   UNL     1      10.951  21.217  42.290  1.00  0.00     0.049 C 
HETATM   18  C   UNL     1       7.891  20.714  44.500  1.00  0.00    -0.012 C 
HETATM   19  C   UNL     1       6.897  21.478  43.825  1.00  0.00     0.025 C 
HETATM   20  C   UNL     1       7.573  19.907  45.772  1.00  0.00    -0.006 C 
HETATM   21  C   UNL     1       7.189  22.020  42.527  1.00  0.00     0.089 C 
HETATM   22  C   UNL     1       5.563  21.626  44.496  1.00  0.00     0.046 C 
HETATM   23  C   UNL     1       5.195  20.589  45.478  1.00  0.00     0.217 C 
HETATM   24  C   UNL     1       4.734  22.711  44.418  1.00  0.00     0.099 C 
HETATM   25  C   UNL     1       6.250  19.813  46.161  1.00  0.00     0.124 C 
HETATM   26  O   UNL     1       4.041  20.493  45.876  1.00  0.00    -0.284 OA
BRANCH  21  27
HETATM   27  O   UNL     1       6.212  22.508  41.730  1.00  0.00    -0.359 OA
HETATM   28  H   UNL     1       6.283  23.319  41.212  1.00  0.00     0.217 HD
ENDBRANCH  21  27
BRANCH  25  29
HETATM   29  O   UNL     1       5.767  19.083  47.199  1.00  0.00    -0.356 OA
HETATM   30  H   UNL     1       4.943  19.128  47.675  1.00  0.00     0.218 HD
ENDBRANCH  25  29
BRANCH  24  31
HETATM   31  N   UNL     1       5.076  23.942  43.789  1.00  0.00    -0.397 N 
HETATM   32  H   UNL     1       5.211  23.967  42.774  1.00  0.00     0.158 HD
BRANCH  31  33
HETATM   33  C   UNL     1       5.493  25.121  44.525  1.00  0.00     0.136 C 
BRANCH  33  34
HETATM   34  C   UNL     1       6.674  24.864  45.471  1.00  0.00     0.192 C 
BRANCH  34  35
HETATM   35  S   UNL     1       8.291  25.357  44.790  1.00  0.00     0.295 S 
HETATM   36  O   UNL     1       8.147  26.046  43.424  1.00  0.00    -0.196 OA
HETATM   37  O   UNL     1       8.935  26.490  45.604  1.00  0.00    -0.196 OA
BRANCH  35  38
HETATM   38  O   UNL     1       9.541  24.194  44.579  1.00  0.00    -0.074 OA
BRANCH  38  39
HETATM   39  O   UNL     1      10.634  24.898  44.373  1.00  0.00    -0.018 OA
HETATM   40 NA   UNL     1      12.072  23.526  43.929  1.00  0.00     0.000 Na
ENDBRANCH  38  39
ENDBRANCH  35  38
ENDBRANCH  34  35
ENDBRANCH  33  34
ENDBRANCH  31  33
ENDBRANCH  24  31
BRANCH  20  41
HETATM   41  C   UNL     1       8.780  19.197  46.467  1.00  0.00     0.014 C 
HETATM   42  C   UNL     1       8.984  19.798  47.876  1.00  0.00     0.015 C 
HETATM   43  C   UNL     1       8.809  17.671  46.630  1.00  0.00     0.015 C 
ENDBRANCH  20  41
ENDBRANCH   9  14
BRANCH  10  44
HETATM   44  O   UNL     1       9.728  24.496  41.626  1.00  0.00    -0.359 OA
HETATM   45  H   UNL     1       9.626  25.441  41.799  1.00  0.00     0.217 HD
ENDBRANCH  10  44
BRANCH   3  46
HETATM   46  C   UNL     1       9.066  23.404  35.417  1.00  0.00     0.012 C 
HETATM   47  C   UNL     1      10.161  22.360  35.114  1.00  0.00     0.015 C 
HETATM   48  C   UNL     1       7.722  22.655  35.448  1.00  0.00     0.015 C 
ENDBRANCH   3  46
BRANCH  13  49
HETATM   49  N   UNL     1      10.142  28.253  40.007  1.00  0.00    -0.397 N 
HETATM   50  H   UNL     1      10.681  28.678  39.249  1.00  0.00     0.158 HD
BRANCH  49  51
HETATM   51  C   UNL     1       9.556  29.149  40.986  1.00  0.00     0.136 C 
BRANCH  51  52
HETATM   52  C   UNL     1       8.548  30.098  40.333  1.00  0.00     0.192 C 
BRANCH  52  53
HETATM   53  S   UNL     1       9.221  30.844  38.812  1.00  0.00     0.295 S 
HETATM   54  O   UNL     1      10.753  30.977  38.832  1.00  0.00    -0.196 OA
HETATM   55  O   UNL     1       8.989  29.938  37.593  1.00  0.00    -0.196 OA
BRANCH  53  56
HETATM   56  O   UNL     1       8.622  32.396  38.361  1.00  0.00    -0.074 OA
BRANCH  56  57
HETATM   57  O   UNL     1       9.008  33.216  39.317  1.00  0.00    -0.018 OA
HETATM   58 NA   UNL     1      11.007  33.449  39.011  1.00  0.00     0.000 Na
ENDBRANCH  56  57
ENDBRANCH  53  56
ENDBRANCH  52  53
ENDBRANCH  51  52
ENDBRANCH  49  51
ENDBRANCH  13  49
BRANCH   2  59
HETATM   59  O   UNL     1      10.260  26.096  35.297  1.00  0.00     0.000 OA
HETATM   60  H   UNL     1      11.147  26.444  35.146  1.00  0.00     0.000 HD
BRANCH  59  61
HETATM   61  O   UNL     1       9.346  26.522  34.496  1.00  0.00    -0.177 OA
BRANCH  61  62
HETATM   62  C   UNL     1       9.310  26.427  33.260  1.00  0.00     0.153 C 
HETATM   63  C   UNL     1       9.605  25.209  32.424  1.00  0.00     0.088 C 
HETATM   64  C   UNL     1       9.843  25.852  31.068  1.00  0.00     0.028 C 
HETATM   65  C   UNL     1       8.937  27.074  31.079  1.00  0.00     0.125 C 
HETATM   66  N   UNL     1       8.949  27.470  32.466  1.00  0.00    -0.359 N 
BRANCH  66  67
HETATM   67  C   UNL     1       8.562  28.805  32.907  1.00  0.00     0.081 C 
HETATM   68  C   UNL     1       9.523  29.319  33.991  1.00  0.00     0.032 C 
BRANCH  67  69
HETATM   69  C   UNL     1       8.455  29.747  31.685  1.00  0.00     0.020 C 
HETATM   70  C   UNL     1       9.445  30.910  31.724  1.00  0.00     0.007 C 
ENDBRANCH  67  69
ENDBRANCH  66  67
ENDBRANCH  61  62
ENDBRANCH  59  61
ENDBRANCH   2  59
TORSDOF 23
ENDMDL
MODEL 5
REMARK VINA RESULT:    -7.814      6.788      9.936
REMARK INTER + INTRA:         -21.449
REMARK INTER:                 -16.065
REMARK INTRA:                  -5.384
REMARK UNBOUND:                -3.815
REMARK  23 active torsions:
REMARK  status: ('A' for Active; 'I' for Inactive)
REMARK    1  A    between atoms: C_3  and  O_7 
REMARK    2  A    between atoms: N_4  and  C_6 
REMARK    3  A    between atoms: C_6  and  C_9 
REMARK    4  A    between atoms: O_7  and  O_42 
REMARK    5  A    between atoms: C_12  and  O_42 
REMARK    6  A    between atoms: C_13  and  C_44 
REMARK    7  A    between atoms: C_19  and  C_21 
REMARK    8  A    between atoms: C_20  and  O_40 
REMARK    9  A    between atoms: C_26  and  O_37 
REMARK   10  A    between atoms: C_27  and  C_33 
REMARK   11  A    between atoms: C_28  and  O_32 
REMARK   12  A    between atoms: C_38  and  N_47 
REMARK   13  A    between atoms: C_43  and  N_48 
REMARK   14  A    between atoms: N_47  and  C_50 
REMARK   15  A    between atoms: N_48  and  C_65 
REMARK   16  A    between atoms: C_50  and  C_51 
REMARK   17  A    between atoms: C_51  and  S_52 
REMARK   18  A    between atoms: S_52  and  O_53 
REMARK   19  A    between atoms: O_53  and  O_56 
REMARK   20  A    between atoms: O_59  and  O_62 
REMARK   21  A    between atoms: O_62  and  S_63 
REMARK   22  A    between atoms: S_63  and  C_64 
REMARK   23  A    between atoms: C_64  and  C_65 
ROOT
HETATM    1  C   UNL     1      13.631  20.318  31.205  1.00  0.00     0.196 C 
HETATM    2  C   UNL     1      13.068  21.350  30.311  1.00  0.00     0.037 C 
HETATM    3  C   UNL     1      12.183  22.286  30.767  1.00  0.00    -0.028 C 
HETATM    4  C   UNL     1      11.757  22.237  32.235  1.00  0.00    -0.014 A 
HETATM    5  C   UNL     1      12.307  21.298  33.160  1.00  0.00     0.024 A 
HETATM    6  C   UNL     1      13.420  20.375  32.679  1.00  0.00     0.044 C 
HETATM    7  C   UNL     1      10.790  23.150  32.708  1.00  0.00     0.020 A 
HETATM    8  C   UNL     1      10.353  23.188  34.030  1.00  0.00    -0.047 A 
HETATM    9  C   UNL     1      10.844  22.242  34.953  1.00  0.00     0.017 A 
HETATM   10  C   UNL     1      11.794  21.279  34.502  1.00  0.00     0.089 A 
HETATM   11  C   UNL     1       9.399  24.299  34.413  1.00  0.00     0.049 C 
HETATM   12  O   UNL     1      14.308  19.445  30.689  1.00  0.00    -0.287 OA
HETATM   13  C   UNL     1      14.267  19.728  33.551  1.00  0.00     0.099 C 
ENDROOT
BRANCH   9  14
HETATM   14  C   UNL     1      10.432  22.279  36.410  1.00  0.00     0.017 C 
HETATM   15  C   UNL     1       9.302  21.550  36.851  1.00  0.00    -0.047 C 
HETATM   16  C   UNL     1       8.862  21.684  38.166  1.00  0.00     0.020 C 
HETATM   17  C   UNL     1       8.501  20.614  35.968  1.00  0.00     0.049 C 
HETATM   18  C   UNL     1       9.537  22.461  39.133  1.00  0.00    -0.012 C 
HETATM   19  C   UNL     1      10.745  23.100  38.733  1.00  0.00     0.025 C 
HETATM   20  C   UNL     1       8.941  22.654  40.539  1.00  0.00    -0.006 C 
HETATM   21  C   UNL     1      11.131  23.071  37.350  1.00  0.00     0.089 C 
HETATM   22  C   UNL     1      11.526  23.827  39.789  1.00  0.00     0.046 C 
HETATM   23  C   UNL     1      10.777  24.280  40.975  1.00  0.00     0.217 C 
HETATM   24  C   UNL     1      12.887  23.958  39.842  1.00  0.00     0.099 C 
HETATM   25  C   UNL     1       9.526  23.596  41.363  1.00  0.00     0.124 C 
HETATM   26  O   UNL     1      11.273  25.088  41.750  1.00  0.00    -0.284 OA
BRANCH  21  27
HETATM   27  O   UNL     1      12.102  23.880  36.870  1.00  0.00    -0.359 OA
HETATM   28  H   UNL     1      13.004  23.597  36.679  1.00  0.00     0.217 HD
ENDBRANCH  21  27
BRANCH  25  29
HETATM   29  O   UNL     1       9.096  23.965  42.597  1.00  0.00    -0.356 OA
HETATM   30  H   UNL     1       9.395  24.643  43.196  1.00  0.00     0.218 HD
ENDBRANCH  25  29
BRANCH  24  31
HETATM   31  N   UNL     1      13.794  23.299  38.964  1.00  0.00    -0.397 N 
HETATM   32  H   UNL     1      13.456  22.528  38.380  1.00  0.00     0.158 HD
BRANCH  31  33
HETATM   33  C   UNL     1      15.232  23.481  39.025  1.00  0.00     0.136 C 
BRANCH  33  34
HETATM   34  C   UNL     1      15.859  23.844  37.673  1.00  0.00     0.192 C 
BRANCH  34  35
HETATM   35  S   UNL     1      15.270  22.823  36.283  1.00  0.00     0.295 S 
HETATM   36  O   UNL     1      16.417  22.037  35.629  1.00  0.00    -0.196 OA
HETATM   37  O   UNL     1      14.378  21.666  36.759  1.00  0.00    -0.196 OA
BRANCH  35  38
HETATM   38  O   UNL     1      14.411  23.540  34.976  1.00  0.00    -0.074 OA
BRANCH  38  39
HETATM   39  O   UNL     1      14.267  24.805  35.313  1.00  0.00    -0.018 OA
HETATM   40 NA   UNL     1      12.327  25.250  34.880  1.00  0.00     0.000 Na
ENDBRANCH  38  39
ENDBRANCH  35  38
ENDBRANCH  34  35
ENDBRANCH  33  34
ENDBRANCH  31  33
ENDBRANCH  24  31
BRANCH  20  41
HETATM   41  C   UNL     1       7.667  21.814  40.878  1.00  0.00     0.014 C 
HETATM   42  C   UNL     1       8.095  20.463  41.494  1.00  0.00     0.015 C 
HETATM   43  C   UNL     1       6.565  22.382  41.783  1.00  0.00     0.015 C 
ENDBRANCH  20  41
ENDBRANCH   9  14
BRANCH  10  44
HETATM   44  O   UNL     1      12.182  20.303  35.351  1.00  0.00    -0.359 OA
HETATM   45  H   UNL     1      11.832  19.403  35.376  1.00  0.00     0.217 HD
ENDBRANCH  10  44
BRANCH   3  46
HETATM   46  C   UNL     1      11.607  23.427  29.866  1.00  0.00     0.012 C 
HETATM   47  C   UNL     1      11.968  24.800  30.470  1.00  0.00     0.015 C 
HETATM   48  C   UNL     1      11.975  23.478  28.373  1.00  0.00     0.015 C 
ENDBRANCH   3  46
BRANCH  13  49
HETATM   49  N   UNL     1      15.412  18.941  33.202  1.00  0.00    -0.397 N 
HETATM   50  H   UNL     1      15.586  18.587  32.259  1.00  0.00     0.158 HD
BRANCH  49  51
HETATM   51  C   UNL     1      16.440  18.701  34.199  1.00  0.00     0.136 C 
BRANCH  51  52
HETATM   52  C   UNL     1      16.430  17.242  34.663  1.00  0.00     0.192 C 
BRANCH  52  53
HETATM   53  S   UNL     1      15.039  16.910  35.793  1.00  0.00     0.295 S 
HETATM   54  O   UNL     1      15.483  16.285  37.127  1.00  0.00    -0.196 OA
HETATM   55  O   UNL     1      14.367  18.213  36.253  1.00  0.00    -0.196 OA
BRANCH  53  56
HETATM   56  O   UNL     1      13.766  15.908  35.207  1.00  0.00    -0.074 OA
BRANCH  56  57
HETATM   57  O   UNL     1      13.322  16.500  34.118  1.00  0.00    -0.018 OA
HETATM   58 NA   UNL     1      12.159  18.023  34.804  1.00  0.00     0.000 Na
ENDBRANCH  56  57
ENDBRANCH  53  56
ENDBRANCH  52  53
ENDBRANCH  51  52
ENDBRANCH  49  51
ENDBRANCH  13  49
BRANCH   2  59
HETATM   59  O   UNL     1      13.510  21.341  29.022  1.00  0.00     0.000 OA
HETATM   60  H   UNL     1      12.886  21.016  28.363  1.00  0.00     0.000 HD
BRANCH  59  61
HETATM   61  O   UNL     1      14.744  21.382  28.654  1.00  0.00    -0.177 OA
BRANCH  61  62
HETATM   62  C   UNL     1      15.351  20.578  27.932  1.00  0.00     0.153 C 
HETATM   63  C   UNL     1      14.761  19.534  27.022  1.00  0.00     0.088 C 
HETATM   64  C   UNL     1      15.963  18.627  26.819  1.00  0.00     0.028 C 
HETATM   65  C   UNL     1      17.152  19.573  26.901  1.00  0.00     0.125 C 
HETATM   66  N   UNL     1      16.709  20.564  27.852  1.00  0.00    -0.359 N 
BRANCH  66  67
HETATM   67  C   UNL     1      17.631  21.444  28.559  1.00  0.00     0.081 C 
HETATM   68  C   UNL     1      17.949  20.887  29.956  1.00  0.00     0.032 C 
BRANCH  67  69
HETATM   69  C   UNL     1      18.889  21.685  27.693  1.00  0.00     0.020 C 
HETATM   70  C   UNL     1      20.144  21.984  28.511  1.00  0.00     0.007 C 
ENDBRANCH  67  69
ENDBRANCH  66  67
ENDBRANCH  61  62
ENDBRANCH  59  61
ENDBRANCH   2  59
TORSDOF 23
ENDMDL
MODEL 6
REMARK VINA RESULT:    -7.778      3.786     11.519
REMARK INTER + INTRA:         -21.369
REMARK INTER:                 -17.663
REMARK INTRA:                  -3.706
REMARK UNBOUND:                -3.815
REMARK  23 active torsions:
REMARK  status: ('A' for Active; 'I' for Inactive)
REMARK    1  A    between atoms: C_3  and  O_7 
REMARK    2  A    between atoms: N_4  and  C_6 
REMARK    3  A    between atoms: C_6  and  C_9 
REMARK    4  A    between atoms: O_7  and  O_42 
REMARK    5  A    between atoms: C_12  and  O_42 
REMARK    6  A    between atoms: C_13  and  C_44 
REMARK    7  A    between atoms: C_19  and  C_21 
REMARK    8  A    between atoms: C_20  and  O_40 
REMARK    9  A    between atoms: C_26  and  O_37 
REMARK   10  A    between atoms: C_27  and  C_33 
REMARK   11  A    between atoms: C_28  and  O_32 
REMARK   12  A    between atoms: C_38  and  N_47 
REMARK   13  A    between atoms: C_43  and  N_48 
REMARK   14  A    between atoms: N_47  and  C_50 
REMARK   15  A    between atoms: N_48  and  C_65 
REMARK   16  A    between atoms: C_50  and  C_51 
REMARK   17  A    between atoms: C_51  and  S_52 
REMARK   18  A    between atoms: S_52  and  O_53 
REMARK   19  A    between atoms: O_53  and  O_56 
REMARK   20  A    between atoms: O_59  and  O_62 
REMARK   21  A    between atoms: O_62  and  S_63 
REMARK   22  A    between atoms: S_63  and  C_64 
REMARK   23  A    between atoms: C_64  and  C_65 
ROOT
HETATM    1  C   UNL     1       8.747  27.432  34.979  1.00  0.00     0.196 C 
HETATM    2  C   UNL     1       9.070  26.481  33.896  1.00  0.00     0.037 C 
HETATM    3  C   UNL     1       9.270  26.903  32.611  1.00  0.00    -0.028 C 
HETATM    4  C   UNL     1       9.129  28.393  32.298  1.00  0.00    -0.014 A 
HETATM    5  C   UNL     1       8.872  29.365  33.312  1.00  0.00     0.024 A 
HETATM    6  C   UNL     1       8.824  28.903  34.764  1.00  0.00     0.044 C 
HETATM    7  C   UNL     1       9.261  28.838  30.966  1.00  0.00     0.020 A 
HETATM    8  C   UNL     1       9.163  30.176  30.591  1.00  0.00    -0.047 A 
HETATM    9  C   UNL     1       8.862  31.151  31.564  1.00  0.00     0.017 A 
HETATM   10  C   UNL     1       8.684  30.733  32.915  1.00  0.00     0.089 A 
HETATM   11  C   UNL     1       9.444  30.512  29.142  1.00  0.00     0.049 C 
HETATM   12  O   UNL     1       8.455  26.959  36.064  1.00  0.00    -0.287 OA
HETATM   13  C   UNL     1       8.973  29.777  35.818  1.00  0.00     0.099 C 
ENDROOT
BRANCH   9  14
HETATM   14  C   UNL     1       8.794  32.621  31.207  1.00  0.00     0.017 C 
HETATM   15  C   UNL     1       8.060  33.049  30.076  1.00  0.00    -0.047 C 
HETATM   16  C   UNL     1       8.101  34.387  29.688  1.00  0.00     0.020 C 
HETATM   17  C   UNL     1       7.216  32.128  29.217  1.00  0.00     0.049 C 
HETATM   18  C   UNL     1       8.784  35.384  30.419  1.00  0.00    -0.012 C 
HETATM   19  C   UNL     1       9.423  34.987  31.628  1.00  0.00     0.025 C 
HETATM   20  C   UNL     1       8.880  36.823  29.881  1.00  0.00    -0.006 C 
HETATM   21  C   UNL     1       9.494  33.592  31.961  1.00  0.00     0.089 C 
HETATM   22  C   UNL     1      10.046  36.065  32.467  1.00  0.00     0.046 C 
HETATM   23  C   UNL     1      10.423  37.311  31.775  1.00  0.00     0.217 C 
HETATM   24  C   UNL     1      10.141  36.074  33.832  1.00  0.00     0.099 C 
HETATM   25  C   UNL     1       9.741  37.694  30.522  1.00  0.00     0.124 C 
HETATM   26  O   UNL     1      11.155  38.127  32.321  1.00  0.00    -0.284 OA
BRANCH  21  27
HETATM   27  O   UNL     1      10.315  33.139  32.935  1.00  0.00    -0.359 OA
HETATM   28  H   UNL     1      10.329  33.477  33.839  1.00  0.00     0.217 HD
ENDBRANCH  21  27
BRANCH  25  29
HETATM   29  O   UNL     1      10.022  38.968  30.148  1.00  0.00    -0.356 OA
HETATM   30  H   UNL     1      10.368  39.329  29.336  1.00  0.00     0.218 HD
ENDBRANCH  25  29
BRANCH  24  31
HETATM   31  N   UNL     1       9.531  35.114  34.688  1.00  0.00    -0.397 N 
HETATM   32  H   UNL     1       9.948  34.183  34.775  1.00  0.00     0.158 HD
BRANCH  31  33
HETATM   33  C   UNL     1       8.207  35.285  35.257  1.00  0.00     0.136 C 
BRANCH  33  34
HETATM   34  C   UNL     1       8.185  35.200  36.789  1.00  0.00     0.192 C 
BRANCH  34  35
HETATM   35  S   UNL     1       9.285  33.919  37.476  1.00  0.00     0.295 S 
HETATM   36  O   UNL     1       9.441  32.728  36.518  1.00  0.00    -0.196 OA
HETATM   37  O   UNL     1      10.742  34.399  37.560  1.00  0.00    -0.196 OA
BRANCH  35  38
HETATM   38  O   UNL     1       8.956  33.220  39.014  1.00  0.00    -0.074 OA
BRANCH  38  39
HETATM   39  O   UNL     1      10.138  33.026  39.562  1.00  0.00    -0.018 OA
HETATM   40 NA   UNL     1       9.897  31.413  40.782  1.00  0.00     0.000 Na
ENDBRANCH  38  39
ENDBRANCH  35  38
ENDBRANCH  34  35
ENDBRANCH  33  34
ENDBRANCH  31  33
ENDBRANCH  24  31
BRANCH  20  41
HETATM   41  C   UNL     1       8.046  37.145  28.598  1.00  0.00     0.014 C 
HETATM   42  C   UNL     1       6.939  38.162  28.952  1.00  0.00     0.015 C 
HETATM   43  C   UNL     1       8.728  37.660  27.324  1.00  0.00     0.015 C 
ENDBRANCH  20  41
ENDBRANCH   9  14
BRANCH  10  44
HETATM   44  O   UNL     1       8.286  31.645  33.829  1.00  0.00    -0.359 OA
HETATM   45  H   UNL     1       7.671  31.485  34.557  1.00  0.00     0.217 HD
ENDBRANCH  10  44
BRANCH   3  46
HETATM   46  C   UNL     1       9.667  25.936  31.448  1.00  0.00     0.012 C 
HETATM   47  C   UNL     1      11.168  25.592  31.546  1.00  0.00     0.015 C 
HETATM   48  C   UNL     1       8.909  24.608  31.267  1.00  0.00     0.015 C 
ENDBRANCH   3  46
BRANCH  13  49
HETATM   49  N   UNL     1       9.066  29.431  37.205  1.00  0.00    -0.397 N 
HETATM   50  H   UNL     1       9.788  28.816  37.586  1.00  0.00     0.158 HD
BRANCH  49  51
HETATM   51  C   UNL     1       8.156  30.047  38.153  1.00  0.00     0.136 C 
BRANCH  51  52
HETATM   52  C   UNL     1       8.141  29.286  39.481  1.00  0.00     0.192 C 
BRANCH  52  53
HETATM   53  S   UNL     1       9.645  28.276  39.688  1.00  0.00     0.295 S 
HETATM   54  O   UNL     1      10.005  28.027  41.163  1.00  0.00    -0.196 OA
HETATM   55  O   UNL     1       9.438  26.848  39.159  1.00  0.00    -0.196 OA
BRANCH  53  56
HETATM   56  O   UNL     1      11.089  28.847  38.943  1.00  0.00    -0.074 OA
BRANCH  56  57
HETATM   57  O   UNL     1      11.368  29.989  39.538  1.00  0.00    -0.018 OA
HETATM   58 NA   UNL     1      10.868  31.410  38.170  1.00  0.00     0.000 Na
ENDBRANCH  56  57
ENDBRANCH  53  56
ENDBRANCH  52  53
ENDBRANCH  51  52
ENDBRANCH  49  51
ENDBRANCH  13  49
BRANCH   2  59
HETATM   59  O   UNL     1       9.198  25.173  34.255  1.00  0.00     0.000 OA
HETATM   60  H   UNL     1       8.379  24.664  34.299  1.00  0.00     0.000 HD
BRANCH  59  61
HETATM   61  O   UNL     1      10.210  24.661  34.865  1.00  0.00    -0.177 OA
BRANCH  61  62
HETATM   62  C   UNL     1      10.487  23.460  35.006  1.00  0.00     0.153 C 
HETATM   63  C   UNL     1      11.493  22.653  34.229  1.00  0.00     0.088 C 
HETATM   64  C   UNL     1      11.022  21.243  34.542  1.00  0.00     0.028 C 
HETATM   65  C   UNL     1      10.439  21.354  35.943  1.00  0.00     0.125 C 
HETATM   66  N   UNL     1       9.896  22.691  35.959  1.00  0.00    -0.359 N 
BRANCH  66  67
HETATM   67  C   UNL     1       8.894  23.122  36.927  1.00  0.00     0.081 C 
HETATM   68  C   UNL     1       7.479  22.962  36.350  1.00  0.00     0.032 C 
BRANCH  67  69
HETATM   69  C   UNL     1       9.101  22.371  38.262  1.00  0.00     0.020 C 
HETATM   70  C   UNL     1       9.490  23.285  39.422  1.00  0.00     0.007 C 
ENDBRANCH  67  69
ENDBRANCH  66  67
ENDBRANCH  61  62
ENDBRANCH  59  61
ENDBRANCH   2  59
TORSDOF 23
ENDMDL
MODEL 7
REMARK VINA RESULT:    -7.749      6.816     14.271
REMARK INTER + INTRA:         -21.304
REMARK INTER:                 -15.582
REMARK INTRA:                  -5.722
REMARK UNBOUND:                -3.815
REMARK  23 active torsions:
REMARK  status: ('A' for Active; 'I' for Inactive)
REMARK    1  A    between atoms: C_3  and  O_7 
REMARK    2  A    between atoms: N_4  and  C_6 
REMARK    3  A    between atoms: C_6  and  C_9 
REMARK    4  A    between atoms: O_7  and  O_42 
REMARK    5  A    between atoms: C_12  and  O_42 
REMARK    6  A    between atoms: C_13  and  C_44 
REMARK    7  A    between atoms: C_19  and  C_21 
REMARK    8  A    between atoms: C_20  and  O_40 
REMARK    9  A    between atoms: C_26  and  O_37 
REMARK   10  A    between atoms: C_27  and  C_33 
REMARK   11  A    between atoms: C_28  and  O_32 
REMARK   12  A    between atoms: C_38  and  N_47 
REMARK   13  A    between atoms: C_43  and  N_48 
REMARK   14  A    between atoms: N_47  and  C_50 
REMARK   15  A    between atoms: N_48  and  C_65 
REMARK   16  A    between atoms: C_50  and  C_51 
REMARK   17  A    between atoms: C_51  and  S_52 
REMARK   18  A    between atoms: S_52  and  O_53 
REMARK   19  A    between atoms: O_53  and  O_56 
REMARK   20  A    between atoms: O_59  and  O_62 
REMARK   21  A    between atoms: O_62  and  S_63 
REMARK   22  A    between atoms: S_63  and  C_64 
REMARK   23  A    between atoms: C_64  and  C_65 
ROOT
HETATM    1  C   UNL     1       8.523  34.789  34.750  1.00  0.00     0.196 C 
HETATM    2  C   UNL     1       8.949  33.376  34.812  1.00  0.00     0.037 C 
HETATM    3  C   UNL     1       9.146  32.639  33.679  1.00  0.00    -0.028 C 
HETATM    4  C   UNL     1       8.894  33.298  32.322  1.00  0.00    -0.014 A 
HETATM    5  C   UNL     1       8.534  34.674  32.196  1.00  0.00     0.024 A 
HETATM    6  C   UNL     1       8.488  35.529  33.458  1.00  0.00     0.044 C 
HETATM    7  C   UNL     1       9.024  32.533  31.144  1.00  0.00     0.020 A 
HETATM    8  C   UNL     1       8.829  33.053  29.866  1.00  0.00    -0.047 A 
HETATM    9  C   UNL     1       8.426  34.396  29.715  1.00  0.00     0.017 A 
HETATM   10  C   UNL     1       8.248  35.189  30.886  1.00  0.00     0.089 A 
HETATM   11  C   UNL     1       9.119  32.139  28.695  1.00  0.00     0.049 C 
HETATM   12  O   UNL     1       8.243  35.331  35.805  1.00  0.00    -0.287 OA
HETATM   13  C   UNL     1       8.539  36.904  33.416  1.00  0.00     0.099 C 
ENDROOT
BRANCH   9  14
HETATM   14  C   UNL     1       8.250  35.013  28.344  1.00  0.00     0.017 C 
HETATM   15  C   UNL     1       7.073  34.769  27.596  1.00  0.00    -0.047 C 
HETATM   16  C   UNL     1       6.972  35.243  26.290  1.00  0.00     0.020 C 
HETATM   17  C   UNL     1       5.883  33.992  28.122  1.00  0.00     0.049 C 
HETATM   18  C   UNL     1       7.963  36.041  25.677  1.00  0.00    -0.012 C 
HETATM   19  C   UNL     1       9.095  36.398  26.463  1.00  0.00     0.025 C 
HETATM   20  C   UNL     1       7.839  36.444  24.197  1.00  0.00    -0.006 C 
HETATM   21  C   UNL     1       9.265  35.805  27.760  1.00  0.00     0.089 C 
HETATM   22  C   UNL     1      10.090  37.343  25.855  1.00  0.00     0.046 C 
HETATM   23  C   UNL     1      10.128  37.410  24.382  1.00  0.00     0.217 C 
HETATM   24  C   UNL     1      10.839  38.271  26.525  1.00  0.00     0.099 C 
HETATM   25  C   UNL     1       8.936  37.032  23.595  1.00  0.00     0.124 C 
HETATM   26  O   UNL     1      11.065  37.953  23.810  1.00  0.00    -0.284 OA
BRANCH  21  27
HETATM   27  O   UNL     1      10.439  35.888  28.426  1.00  0.00    -0.359 OA
HETATM   28  H   UNL     1      10.719  35.276  29.118  1.00  0.00     0.217 HD
ENDBRANCH  21  27
BRANCH  25  29
HETATM   29  O   UNL     1       9.048  37.379  22.287  1.00  0.00    -0.356 OA
HETATM   30  H   UNL     1       8.680  38.104  21.791  1.00  0.00     0.218 HD
ENDBRANCH  25  29
BRANCH  24  31
HETATM   31  N   UNL     1      10.688  38.581  27.906  1.00  0.00    -0.397 N 
HETATM   32  H   UNL     1       9.809  38.353  28.379  1.00  0.00     0.158 HD
BRANCH  31  33
HETATM   33  C   UNL     1      11.611  39.432  28.635  1.00  0.00     0.136 C 
BRANCH  33  34
HETATM   34  C   UNL     1      10.942  40.247  29.749  1.00  0.00     0.192 C 
BRANCH  34  35
HETATM   35  S   UNL     1      10.224  39.232  31.082  1.00  0.00     0.295 S 
HETATM   36  O   UNL     1       8.690  39.180  30.995  1.00  0.00    -0.196 OA
HETATM   37  O   UNL     1      10.560  37.742  30.913  1.00  0.00    -0.196 OA
BRANCH  35  38
HETATM   38  O   UNL     1      10.570  39.584  32.730  1.00  0.00    -0.074 OA
BRANCH  38  39
HETATM   39  O   UNL     1      11.415  38.648  33.110  1.00  0.00    -0.018 OA
HETATM   40 NA   UNL     1      12.808  38.558  31.626  1.00  0.00     0.000 Na
ENDBRANCH  38  39
ENDBRANCH  35  38
ENDBRANCH  34  35
ENDBRANCH  33  34
ENDBRANCH  31  33
ENDBRANCH  24  31
BRANCH  20  41
HETATM   41  C   UNL     1       6.498  36.075  23.483  1.00  0.00     0.014 C 
HETATM   42  C   UNL     1       5.764  37.371  23.074  1.00  0.00     0.015 C 
HETATM   43  C   UNL     1       6.487  35.155  22.254  1.00  0.00     0.015 C 
ENDBRANCH  20  41
ENDBRANCH   9  14
BRANCH  10  44
HETATM   44  O   UNL     1       7.755  36.440  30.753  1.00  0.00    -0.359 OA
HETATM   45  H   UNL     1       7.494  36.859  29.923  1.00  0.00     0.217 HD
ENDBRANCH  10  44
BRANCH   3  46
HETATM   46  C   UNL     1       9.649  31.158  33.701  1.00  0.00     0.012 C 
HETATM   47  C   UNL     1       8.442  30.199  33.771  1.00  0.00     0.015 C 
HETATM   48  C   UNL     1      10.568  30.648  32.576  1.00  0.00     0.015 C 
ENDBRANCH   3  46
BRANCH  13  49
HETATM   49  N   UNL     1       8.624  37.789  34.539  1.00  0.00    -0.397 N 
HETATM   50  H   UNL     1       9.410  37.797  35.193  1.00  0.00     0.158 HD
BRANCH  49  51
HETATM   51  C   UNL     1       7.598  38.799  34.727  1.00  0.00     0.136 C 
BRANCH  51  52
HETATM   52  C   UNL     1       6.217  38.160  34.896  1.00  0.00     0.192 C 
BRANCH  52  53
HETATM   53  S   UNL     1       5.205  38.348  33.392  1.00  0.00     0.295 S 
HETATM   54  O   UNL     1       3.706  38.514  33.691  1.00  0.00    -0.196 OA
HETATM   55  O   UNL     1       5.536  39.655  32.653  1.00  0.00    -0.196 OA
BRANCH  53  56
HETATM   56  O   UNL     1       5.311  37.102  32.207  1.00  0.00    -0.074 OA
BRANCH  56  57
HETATM   57  O   UNL     1       5.229  37.712  31.042  1.00  0.00    -0.018 OA
HETATM   58 NA   UNL     1       3.669  39.002  31.254  1.00  0.00     0.000 Na
ENDBRANCH  56  57
ENDBRANCH  53  56
ENDBRANCH  52  53
ENDBRANCH  51  52
ENDBRANCH  49  51
ENDBRANCH  13  49
BRANCH   2  59
HETATM   59  O   UNL     1       9.172  32.865  36.055  1.00  0.00     0.000 OA
HETATM   60  H   UNL     1       8.483  32.286  36.405  1.00  0.00     0.000 HD
BRANCH  59  61
HETATM   61  O   UNL     1      10.000  33.337  36.921  1.00  0.00    -0.177 OA
BRANCH  61  62
HETATM   62  C   UNL     1      10.639  32.716  37.783  1.00  0.00     0.153 C 
HETATM   63  C   UNL     1      11.888  33.161  38.497  1.00  0.00     0.088 C 
HETATM   64  C   UNL     1      12.399  31.829  39.023  1.00  0.00     0.028 C 
HETATM   65  C   UNL     1      11.132  31.023  39.269  1.00  0.00     0.125 C 
HETATM   66  N   UNL     1      10.245  31.495  38.232  1.00  0.00    -0.359 N 
BRANCH  66  67
HETATM   67  C   UNL     1       9.068  30.748  37.804  1.00  0.00     0.081 C 
HETATM   68  C   UNL     1       9.476  29.414  37.160  1.00  0.00     0.032 C 
BRANCH  67  69
HETATM   69  C   UNL     1       8.095  30.584  38.994  1.00  0.00     0.020 C 
HETATM   70  C   UNL     1       7.452  29.199  39.069  1.00  0.00     0.007 C 
ENDBRANCH  67  69
ENDBRANCH  66  67
ENDBRANCH  61  62
ENDBRANCH  59  61
ENDBRANCH   2  59
TORSDOF 23
ENDMDL
MODEL 8
REMARK VINA RESULT:    -7.725      6.275     11.604
REMARK INTER + INTRA:         -21.250
REMARK INTER:                 -15.612
REMARK INTRA:                  -5.638
REMARK UNBOUND:                -3.815
REMARK  23 active torsions:
REMARK  status: ('A' for Active; 'I' for Inactive)
REMARK    1  A    between atoms: C_3  and  O_7 
REMARK    2  A    between atoms: N_4  and  C_6 
REMARK    3  A    between atoms: C_6  and  C_9 
REMARK    4  A    between atoms: O_7  and  O_42 
REMARK    5  A    between atoms: C_12  and  O_42 
REMARK    6  A    between atoms: C_13  and  C_44 
REMARK    7  A    between atoms: C_19  and  C_21 
REMARK    8  A    between atoms: C_20  and  O_40 
REMARK    9  A    between atoms: C_26  and  O_37 
REMARK   10  A    between atoms: C_27  and  C_33 
REMARK   11  A    between atoms: C_28  and  O_32 
REMARK   12  A    between atoms: C_38  and  N_47 
REMARK   13  A    between atoms: C_43  and  N_48 
REMARK   14  A    between atoms: N_47  and  C_50 
REMARK   15  A    between atoms: N_48  and  C_65 
REMARK   16  A    between atoms: C_50  and  C_51 
REMARK   17  A    between atoms: C_51  and  S_52 
REMARK   18  A    between atoms: S_52  and  O_53 
REMARK   19  A    between atoms: O_53  and  O_56 
REMARK   20  A    between atoms: O_59  and  O_62 
REMARK   21  A    between atoms: O_62  and  S_63 
REMARK   22  A    between atoms: S_63  and  C_64 
REMARK   23  A    between atoms: C_64  and  C_65 
ROOT
HETATM    1  C   UNL     1      10.559  22.825  34.612  1.00  0.00     0.196 C 
HETATM    2  C   UNL     1      10.743  22.992  36.068  1.00  0.00     0.037 C 
HETATM    3  C   UNL     1      11.641  22.234  36.766  1.00  0.00    -0.028 C 
HETATM    4  C   UNL     1      12.450  21.178  36.013  1.00  0.00    -0.014 A 
HETATM    5  C   UNL     1      12.355  21.007  34.599  1.00  0.00     0.024 A 
HETATM    6  C   UNL     1      11.481  21.974  33.809  1.00  0.00     0.044 C 
HETATM    7  C   UNL     1      13.330  20.338  36.728  1.00  0.00     0.020 A 
HETATM    8  C   UNL     1      14.117  19.360  36.124  1.00  0.00    -0.047 A 
HETATM    9  C   UNL     1      14.008  19.137  34.736  1.00  0.00     0.017 A 
HETATM   10  C   UNL     1      13.100  19.941  33.987  1.00  0.00     0.089 A 
HETATM   11  C   UNL     1      15.098  18.617  37.007  1.00  0.00     0.049 C 
HETATM   12  O   UNL     1       9.647  23.446  34.093  1.00  0.00    -0.287 OA
HETATM   13  C   UNL     1      11.619  22.149  32.450  1.00  0.00     0.099 C 
ENDROOT
BRANCH   9  14
HETATM   14  C   UNL     1      14.879  18.118  34.033  1.00  0.00     0.017 C 
HETATM   15  C   UNL     1      14.500  16.754  34.003  1.00  0.00    -0.047 C 
HETATM   16  C   UNL     1      15.365  15.807  33.458  1.00  0.00     0.020 C 
HETATM   17  C   UNL     1      13.189  16.228  34.549  1.00  0.00     0.049 C 
HETATM   18  C   UNL     1      16.594  16.142  32.847  1.00  0.00    -0.012 C 
HETATM   19  C   UNL     1      16.927  17.523  32.760  1.00  0.00     0.025 C 
HETATM   20  C   UNL     1      17.552  15.040  32.360  1.00  0.00    -0.006 C 
HETATM   21  C   UNL     1      16.105  18.489  33.434  1.00  0.00     0.089 C 
HETATM   22  C   UNL     1      18.172  17.888  32.006  1.00  0.00     0.046 C 
HETATM   23  C   UNL     1      19.204  16.842  31.880  1.00  0.00     0.217 C 
HETATM   24  C   UNL     1      18.372  19.030  31.279  1.00  0.00     0.099 C 
HETATM   25  C   UNL     1      18.825  15.417  31.976  1.00  0.00     0.124 C 
HETATM   26  O   UNL     1      20.335  17.128  31.510  1.00  0.00    -0.284 OA
BRANCH  21  27
HETATM   27  O   UNL     1      16.518  19.763  33.619  1.00  0.00    -0.359 OA
HETATM   28  H   UNL     1      17.439  20.027  33.734  1.00  0.00     0.217 HD
ENDBRANCH  21  27
BRANCH  25  29
HETATM   29  O   UNL     1      19.831  14.588  31.598  1.00  0.00    -0.356 OA
HETATM   30  H   UNL     1      19.979  13.660  31.755  1.00  0.00     0.218 HD
ENDBRANCH  25  29
BRANCH  24  31
HETATM   31  N   UNL     1      17.364  19.999  31.008  1.00  0.00    -0.397 N 
HETATM   32  H   UNL     1      16.403  19.821  31.313  1.00  0.00     0.158 HD
BRANCH  31  33
HETATM   33  C   UNL     1      17.559  21.116  30.102  1.00  0.00     0.136 C 
BRANCH  33  34
HETATM   34  C   UNL     1      16.540  21.158  28.957  1.00  0.00     0.192 C 
BRANCH  34  35
HETATM   35  S   UNL     1      15.374  19.758  28.948  1.00  0.00     0.295 S 
HETATM   36  O   UNL     1      14.546  19.714  27.655  1.00  0.00    -0.196 OA
HETATM   37  O   UNL     1      16.100  18.407  28.857  1.00  0.00    -0.196 OA
BRANCH  35  38
HETATM   38  O   UNL     1      14.232  19.565  30.221  1.00  0.00    -0.074 OA
BRANCH  38  39
HETATM   39  O   UNL     1      13.057  19.756  29.659  1.00  0.00    -0.018 OA
HETATM   40 NA   UNL     1      11.710  18.967  30.968  1.00  0.00     0.000 Na
ENDBRANCH  38  39
ENDBRANCH  35  38
ENDBRANCH  34  35
ENDBRANCH  33  34
ENDBRANCH  31  33
ENDBRANCH  24  31
BRANCH  20  41
HETATM   41  C   UNL     1      17.016  13.573  32.420  1.00  0.00     0.014 C 
HETATM   42  C   UNL     1      16.955  12.992  30.990  1.00  0.00     0.015 C 
HETATM   43  C   UNL     1      17.706  12.517  33.295  1.00  0.00     0.015 C 
ENDBRANCH  20  41
ENDBRANCH   9  14
BRANCH  10  44
HETATM   44  O   UNL     1      12.909  19.659  32.679  1.00  0.00    -0.359 OA
HETATM   45  H   UNL     1      12.404  20.193  32.054  1.00  0.00     0.217 HD
ENDBRANCH  10  44
BRANCH   3  46
HETATM   46  C   UNL     1      11.904  22.418  38.297  1.00  0.00     0.012 C 
HETATM   47  C   UNL     1      12.861  23.608  38.522  1.00  0.00     0.015 C 
HETATM   48  C   UNL     1      10.717  22.603  39.258  1.00  0.00     0.015 C 
ENDBRANCH   3  46
BRANCH  13  49
HETATM   49  N   UNL     1      10.936  23.113  31.640  1.00  0.00    -0.397 N 
HETATM   50  H   UNL     1       9.959  23.380  31.785  1.00  0.00     0.158 HD
BRANCH  49  51
HETATM   51  C   UNL     1      11.672  23.830  30.616  1.00  0.00     0.136 C 
BRANCH  51  52
HETATM   52  C   UNL     1      12.059  22.901  29.461  1.00  0.00     0.192 C 
BRANCH  52  53
HETATM   53  S   UNL     1      12.682  23.841  28.029  1.00  0.00     0.295 S 
HETATM   54  O   UNL     1      11.728  23.805  26.823  1.00  0.00    -0.196 OA
HETATM   55  O   UNL     1      12.761  25.345  28.336  1.00  0.00    -0.196 OA
BRANCH  53  56
HETATM   56  O   UNL     1      14.232  23.408  27.413  1.00  0.00    -0.074 OA
BRANCH  56  57
HETATM   57  O   UNL     1      13.997  22.720  26.314  1.00  0.00    -0.018 OA
HETATM   58 NA   UNL     1      15.583  21.454  26.158  1.00  0.00     0.000 Na
ENDBRANCH  56  57
ENDBRANCH  53  56
ENDBRANCH  52  53
ENDBRANCH  51  52
ENDBRANCH  49  51
ENDBRANCH  13  49
BRANCH   2  59
HETATM   59  O   UNL     1      10.000  23.966  36.665  1.00  0.00     0.000 OA
HETATM   60  H   UNL     1       9.063  23.770  36.786  1.00  0.00     0.000 HD
BRANCH  59  61
HETATM   61  O   UNL     1      10.330  25.208  36.755  1.00  0.00    -0.177 OA
BRANCH  61  62
HETATM   62  C   UNL     1       9.608  26.168  37.064  1.00  0.00     0.153 C 
HETATM   63  C   UNL     1       8.365  26.645  36.362  1.00  0.00     0.088 C 
HETATM   64  C   UNL     1       8.253  28.055  36.919  1.00  0.00     0.028 C 
HETATM   65  C   UNL     1       8.839  27.943  38.318  1.00  0.00     0.125 C 
HETATM   66  N   UNL     1       9.858  26.934  38.160  1.00  0.00    -0.359 N 
BRANCH  66  67
HETATM   67  C   UNL     1      10.953  26.765  39.108  1.00  0.00     0.081 C 
HETATM   68  C   UNL     1      11.693  28.095  39.324  1.00  0.00     0.032 C 
BRANCH  67  69
HETATM   69  C   UNL     1      10.418  26.141  40.417  1.00  0.00     0.020 C 
HETATM   70  C   UNL     1      11.521  25.665  41.361  1.00  0.00     0.007 C 
ENDBRANCH  67  69
ENDBRANCH  66  67
ENDBRANCH  61  62
ENDBRANCH  59  61
ENDBRANCH   2  59
TORSDOF 23
ENDMDL
MODEL 9
REMARK VINA RESULT:    -7.720      3.504      4.612
REMARK INTER + INTRA:         -21.238
REMARK INTER:                 -16.673
REMARK INTRA:                  -4.565
REMARK UNBOUND:                -3.815
REMARK  23 active torsions:
REMARK  status: ('A' for Active; 'I' for Inactive)
REMARK    1  A    between atoms: C_3  and  O_7 
REMARK    2  A    between atoms: N_4  and  C_6 
REMARK    3  A    between atoms: C_6  and  C_9 
REMARK    4  A    between atoms: O_7  and  O_42 
REMARK    5  A    between atoms: C_12  and  O_42 
REMARK    6  A    between atoms: C_13  and  C_44 
REMARK    7  A    between atoms: C_19  and  C_21 
REMARK    8  A    between atoms: C_20  and  O_40 
REMARK    9  A    between atoms: C_26  and  O_37 
REMARK   10  A    between atoms: C_27  and  C_33 
REMARK   11  A    between atoms: C_28  and  O_32 
REMARK   12  A    between atoms: C_38  and  N_47 
REMARK   13  A    between atoms: C_43  and  N_48 
REMARK   14  A    between atoms: N_47  and  C_50 
REMARK   15  A    between atoms: N_48  and  C_65 
REMARK   16  A    between atoms: C_50  and  C_51 
REMARK   17  A    between atoms: C_51  and  S_52 
REMARK   18  A    between atoms: S_52  and  O_53 
REMARK   19  A    between atoms: O_53  and  O_56 
REMARK   20  A    between atoms: O_59  and  O_62 
REMARK   21  A    between atoms: O_62  and  S_63 
REMARK   22  A    between atoms: S_63  and  C_64 
REMARK   23  A    between atoms: C_64  and  C_65 
ROOT
HETATM    1  C   UNL     1       8.753  29.761  34.074  1.00  0.00     0.196 C 
HETATM    2  C   UNL     1       8.666  31.230  33.959  1.00  0.00     0.037 C 
HETATM    3  C   UNL     1       8.927  32.047  35.024  1.00  0.00    -0.028 C 
HETATM    4  C   UNL     1       9.294  31.408  36.364  1.00  0.00    -0.014 A 
HETATM    5  C   UNL     1       9.447  29.997  36.522  1.00  0.00     0.024 A 
HETATM    6  C   UNL     1       9.324  29.113  35.287  1.00  0.00     0.044 C 
HETATM    7  C   UNL     1       9.497  32.232  37.492  1.00  0.00     0.020 A 
HETATM    8  C   UNL     1       9.849  31.740  38.747  1.00  0.00    -0.047 A 
HETATM    9  C   UNL     1       9.959  30.348  38.943  1.00  0.00     0.017 A 
HETATM   10  C   UNL     1       9.723  29.483  37.835  1.00  0.00     0.089 A 
HETATM   11  C   UNL     1      10.147  32.754  39.830  1.00  0.00     0.049 C 
HETATM   12  O   UNL     1       8.377  29.106  33.116  1.00  0.00    -0.287 OA
HETATM   13  C   UNL     1       9.825  27.830  35.249  1.00  0.00     0.099 C 
ENDROOT
BRANCH   9  14
HETATM   14  C   UNL     1      10.385  29.774  40.278  1.00  0.00     0.017 C 
HETATM   15  C   UNL     1       9.420  29.252  41.172  1.00  0.00    -0.047 C 
HETATM   16  C   UNL     1       9.808  28.836  42.444  1.00  0.00     0.020 C 
HETATM   17  C   UNL     1       7.947  29.121  40.844  1.00  0.00     0.049 C 
HETATM   18  C   UNL     1      11.151  28.829  42.880  1.00  0.00    -0.012 C 
HETATM   19  C   UNL     1      12.145  29.235  41.946  1.00  0.00     0.025 C 
HETATM   20  C   UNL     1      11.501  28.459  44.333  1.00  0.00    -0.006 C 
HETATM   21  C   UNL     1      11.740  29.786  40.683  1.00  0.00     0.089 C 
HETATM   22  C   UNL     1      13.581  29.114  42.366  1.00  0.00     0.046 C 
HETATM   23  C   UNL     1      13.850  29.108  43.816  1.00  0.00     0.217 C 
HETATM   24  C   UNL     1      14.642  28.836  41.550  1.00  0.00     0.099 C 
HETATM   25  C   UNL     1      12.796  28.682  44.760  1.00  0.00     0.124 C 
HETATM   26  O   UNL     1      14.989  29.267  44.237  1.00  0.00    -0.284 OA
BRANCH  21  27
HETATM   27  O   UNL     1      12.615  30.435  39.882  1.00  0.00    -0.359 OA
HETATM   28  H   UNL     1      12.770  31.388  39.901  1.00  0.00     0.217 HD
ENDBRANCH  21  27
BRANCH  25  29
HETATM   29  O   UNL     1      13.272  28.498  46.018  1.00  0.00    -0.356 OA
HETATM   30  H   UNL     1      14.159  28.402  46.353  1.00  0.00     0.218 HD
ENDBRANCH  25  29
BRANCH  24  31
HETATM   31  N   UNL     1      14.529  28.477  40.176  1.00  0.00    -0.397 N 
HETATM   32  H   UNL     1      13.621  28.556  39.710  1.00  0.00     0.158 HD
BRANCH  31  33
HETATM   33  C   UNL     1      15.567  27.765  39.453  1.00  0.00     0.136 C 
BRANCH  33  34
HETATM   34  C   UNL     1      16.053  28.502  38.199  1.00  0.00     0.192 C 
BRANCH  34  35
HETATM   35  S   UNL     1      16.498  30.246  38.488  1.00  0.00     0.295 S 
HETATM   36  O   UNL     1      17.934  30.387  39.017  1.00  0.00    -0.196 OA
HETATM   37  O   UNL     1      16.609  31.035  37.175  1.00  0.00    -0.196 OA
BRANCH  35  38
HETATM   38  O   UNL     1      15.538  31.231  39.521  1.00  0.00    -0.074 OA
BRANCH  38  39
HETATM   39  O   UNL     1      15.517  32.415  38.944  1.00  0.00    -0.018 OA
HETATM   40 NA   UNL     1      17.471  32.857  38.573  1.00  0.00     0.000 Na
ENDBRANCH  38  39
ENDBRANCH  35  38
ENDBRANCH  34  35
ENDBRANCH  33  34
ENDBRANCH  31  33
ENDBRANCH  24  31
BRANCH  20  41
HETATM   41  C   UNL     1      10.327  27.933  45.221  1.00  0.00     0.014 C 
HETATM   42  C   UNL     1      10.592  26.458  45.598  1.00  0.00     0.015 C 
HETATM   43  C   UNL     1       9.934  28.655  46.517  1.00  0.00     0.015 C 
ENDBRANCH  20  41
ENDBRANCH   9  14
BRANCH  10  44
HETATM   44  O   UNL     1       9.717  28.147  38.043  1.00  0.00    -0.359 OA
HETATM   45  H   UNL     1      10.225  27.496  37.542  1.00  0.00     0.217 HD
ENDBRANCH  10  44
BRANCH   3  46
HETATM   46  C   UNL     1       8.899  33.607  34.929  1.00  0.00     0.012 C 
HETATM   47  C   UNL     1      10.140  34.105  34.159  1.00  0.00     0.015 C 
HETATM   48  C   UNL     1       7.674  34.312  34.319  1.00  0.00     0.015 C 
ENDBRANCH   3  46
BRANCH  13  49
HETATM   49  N   UNL     1       9.869  26.965  34.108  1.00  0.00    -0.397 N 
HETATM   50  H   UNL     1       9.034  26.631  33.622  1.00  0.00     0.158 HD
BRANCH  49  51
HETATM   51  C   UNL     1      11.154  26.608  33.536  1.00  0.00     0.136 C 
BRANCH  51  52
HETATM   52  C   UNL     1      11.361  25.091  33.547  1.00  0.00     0.192 C 
BRANCH  52  53
HETATM   53  S   UNL     1       9.834  24.205  33.094  1.00  0.00     0.295 S 
HETATM   54  O   UNL     1       8.909  23.944  34.294  1.00  0.00    -0.196 OA
HETATM   55  O   UNL     1       8.943  25.057  32.176  1.00  0.00    -0.196 OA
BRANCH  53  56
HETATM   56  O   UNL     1      10.008  22.686  32.299  1.00  0.00    -0.074 OA
BRANCH  56  57
HETATM   57  O   UNL     1      11.232  22.680  31.811  1.00  0.00    -0.018 OA
HETATM   58 NA   UNL     1      11.469  20.804  31.058  1.00  0.00     0.000 Na
ENDBRANCH  56  57
ENDBRANCH  53  56
ENDBRANCH  52  53
ENDBRANCH  51  52
ENDBRANCH  49  51
ENDBRANCH  13  49
BRANCH   2  59
HETATM   59  O   UNL     1       8.352  31.725  32.729  1.00  0.00     0.000 OA
HETATM   60  H   UNL     1       7.452  31.560  32.423  1.00  0.00     0.000 HD
BRANCH  59  61
HETATM   61  O   UNL     1       9.200  32.062  31.820  1.00  0.00    -0.177 OA
BRANCH  61  62
HETATM   62  C   UNL     1       9.120  31.879  30.596  1.00  0.00     0.153 C 
HETATM   63  C   UNL     1       8.788  30.597  29.880  1.00  0.00     0.088 C 
HETATM   64  C   UNL     1       9.304  30.913  28.486  1.00  0.00     0.028 C 
HETATM   65  C   UNL     1       9.103  32.416  28.354  1.00  0.00     0.125 C 
HETATM   66  N   UNL     1       9.307  32.886  29.703  1.00  0.00    -0.359 N 
BRANCH  66  67
HETATM   67  C   UNL     1       9.614  34.278  30.012  1.00  0.00     0.081 C 
HETATM   68  C   UNL     1      10.107  35.017  28.758  1.00  0.00     0.032 C 
BRANCH  67  69
HETATM   69  C   UNL     1       8.389  34.946  30.678  1.00  0.00     0.020 C 
HETATM   70  C   UNL     1       8.703  36.300  31.313  1.00  0.00     0.007 C 
ENDBRANCH  67  69
ENDBRANCH  66  67
ENDBRANCH  61  62
ENDBRANCH  59  61
ENDBRANCH   2  59
TORSDOF 23
ENDMDL
MODEL 10
REMARK VINA RESULT:    -7.700      3.082      4.734
REMARK INTER + INTRA:         -21.194
REMARK INTER:                 -16.229
REMARK INTRA:                  -4.964
REMARK UNBOUND:                -3.815
REMARK  23 active torsions:
REMARK  status: ('A' for Active; 'I' for Inactive)
REMARK    1  A    between atoms: C_3  and  O_7 
REMARK    2  A    between atoms: N_4  and  C_6 
REMARK    3  A    between atoms: C_6  and  C_9 
REMARK    4  A    between atoms: O_7  and  O_42 
REMARK    5  A    between atoms: C_12  and  O_42 
REMARK    6  A    between atoms: C_13  and  C_44 
REMARK    7  A    between atoms: C_19  and  C_21 
REMARK    8  A    between atoms: C_20  and  O_40 
REMARK    9  A    between atoms: C_26  and  O_37 
REMARK   10  A    between atoms: C_27  and  C_33 
REMARK   11  A    between atoms: C_28  and  O_32 
REMARK   12  A    between atoms: C_38  and  N_47 
REMARK   13  A    between atoms: C_43  and  N_48 
REMARK   14  A    between atoms: N_47  and  C_50 
REMARK   15  A    between atoms: N_48  and  C_65 
REMARK   16  A    between atoms: C_50  and  C_51 
REMARK   17  A    between atoms: C_51  and  S_52 
REMARK   18  A    between atoms: S_52  and  O_53 
REMARK   19  A    between atoms: O_53  and  O_56 
REMARK   20  A    between atoms: O_59  and  O_62 
REMARK   21  A    between atoms: O_62  and  S_63 
REMARK   22  A    between atoms: S_63  and  C_64 
REMARK   23  A    between atoms: C_64  and  C_65 
ROOT
HETATM    1  C   UNL     1       9.418  27.217  35.020  1.00  0.00     0.196 C 
HETATM    2  C   UNL     1       8.979  28.471  35.666  1.00  0.00     0.037 C 
HETATM    3  C   UNL     1       9.020  28.628  37.023  1.00  0.00    -0.028 C 
HETATM    4  C   UNL     1       9.514  27.462  37.881  1.00  0.00    -0.014 A 
HETATM    5  C   UNL     1      10.002  26.247  37.311  1.00  0.00     0.024 A 
HETATM    6  C   UNL     1      10.113  26.152  35.794  1.00  0.00     0.044 C 
HETATM    7  C   UNL     1       9.497  27.579  39.287  1.00  0.00     0.020 A 
HETATM    8  C   UNL     1       9.941  26.575  40.145  1.00  0.00    -0.047 A 
HETATM    9  C   UNL     1      10.383  25.348  39.611  1.00  0.00     0.017 A 
HETATM   10  C   UNL     1      10.377  25.179  38.196  1.00  0.00     0.089 A 
HETATM   11  C   UNL     1       9.970  26.893  41.625  1.00  0.00     0.049 C 
HETATM   12  O   UNL     1       9.224  27.114  33.821  1.00  0.00    -0.287 OA
HETATM   13  C   UNL     1      10.911  25.216  35.172  1.00  0.00     0.099 C 
ENDROOT
BRANCH   9  14
HETATM   14  C   UNL     1      10.918  24.249  40.506  1.00  0.00     0.017 C 
HETATM   15  C   UNL     1      10.029  23.359  41.154  1.00  0.00    -0.047 C 
HETATM   16  C   UNL     1      10.522  22.429  42.067  1.00  0.00     0.020 C 
HETATM   17  C   UNL     1       8.530  23.351  40.933  1.00  0.00     0.049 C 
HETATM   18  C   UNL     1      11.899  22.262  42.333  1.00  0.00    -0.012 C 
HETATM   19  C   UNL     1      12.812  23.067  41.595  1.00  0.00     0.025 C 
HETATM   20  C   UNL     1      12.372  21.291  43.430  1.00  0.00    -0.006 C 
HETATM   21  C   UNL     1      12.303  24.114  40.752  1.00  0.00     0.089 C 
HETATM   22  C   UNL     1      14.277  22.808  41.788  1.00  0.00     0.046 C 
HETATM   23  C   UNL     1      14.676  22.162  43.053  1.00  0.00     0.217 C 
HETATM   24  C   UNL     1      15.256  22.951  40.844  1.00  0.00     0.099 C 
HETATM   25  C   UNL     1      13.705  21.333  43.796  1.00  0.00     0.124 C 
HETATM   26  O   UNL     1      15.851  22.146  43.398  1.00  0.00    -0.284 OA
BRANCH  21  27
HETATM   27  O   UNL     1      13.113  25.074  40.252  1.00  0.00    -0.359 OA
HETATM   28  H   UNL     1      14.019  24.925  39.955  1.00  0.00     0.217 HD
ENDBRANCH  21  27
BRANCH  25  29
HETATM   29  O   UNL     1      14.289  20.619  44.792  1.00  0.00    -0.356 OA
HETATM   30  H   UNL     1      14.662  19.742  44.808  1.00  0.00     0.218 HD
ENDBRANCH  25  29
BRANCH  24  31
HETATM   31  N   UNL     1      15.014  23.240  39.471  1.00  0.00    -0.397 N 
HETATM   32  H   UNL     1      14.413  24.031  39.223  1.00  0.00     0.158 HD
BRANCH  31  33
HETATM   33  C   UNL     1      15.361  22.331  38.394  1.00  0.00     0.136 C 
BRANCH  33  34
HETATM   34  C   UNL     1      15.808  23.045  37.112  1.00  0.00     0.192 C 
BRANCH  34  35
HETATM   35  S   UNL     1      15.169  24.743  36.947  1.00  0.00     0.295 S 
HETATM   36  O   UNL     1      15.150  25.205  35.481  1.00  0.00    -0.196 OA
HETATM   37  O   UNL     1      13.671  24.828  37.282  1.00  0.00    -0.196 OA
BRANCH  35  38
HETATM   38  O   UNL     1      15.894  26.038  37.818  1.00  0.00    -0.074 OA
BRANCH  38  39
HETATM   39  O   UNL     1      15.322  26.016  39.004  1.00  0.00    -0.018 OA
HETATM   40 NA   UNL     1      13.427  26.694  38.690  1.00  0.00     0.000 Na
ENDBRANCH  38  39
ENDBRANCH  35  38
ENDBRANCH  34  35
ENDBRANCH  33  34
ENDBRANCH  31  33
ENDBRANCH  24  31
BRANCH  20  41
HETATM   41  C   UNL     1      11.275  20.395  44.089  1.00  0.00     0.014 C 
HETATM   42  C   UNL     1      10.840  21.025  45.432  1.00  0.00     0.015 C 
HETATM   43  C   UNL     1       9.989  20.038  43.332  1.00  0.00     0.015 C 
ENDBRANCH  20  41
ENDBRANCH   9  14
BRANCH  10  44
HETATM   44  O   UNL     1      10.693  23.968  37.685  1.00  0.00    -0.359 OA
HETATM   45  H   UNL     1      11.542  23.518  37.783  1.00  0.00     0.217 HD
ENDBRANCH  10  44
BRANCH   3  46
HETATM   46  C   UNL     1       8.616  29.957  37.741  1.00  0.00     0.012 C 
HETATM   47  C   UNL     1       7.635  29.649  38.892  1.00  0.00     0.015 C 
HETATM   48  C   UNL     1       9.709  30.878  38.311  1.00  0.00     0.015 C 
ENDBRANCH   3  46
BRANCH  13  49
HETATM   49  N   UNL     1      11.178  25.121  33.768  1.00  0.00    -0.397 N 
HETATM   50  H   UNL     1      10.479  25.316  33.047  1.00  0.00     0.158 HD
BRANCH  49  51
HETATM   51  C   UNL     1      12.525  24.825  33.320  1.00  0.00     0.136 C 
BRANCH  51  52
HETATM   52  C   UNL     1      12.907  23.376  33.633  1.00  0.00     0.192 C 
BRANCH  52  53
HETATM   53  S   UNL     1      11.650  22.207  33.021  1.00  0.00     0.295 S 
HETATM   54  O   UNL     1      10.501  21.979  34.018  1.00  0.00    -0.196 OA
HETATM   55  O   UNL     1      10.910  22.769  31.797  1.00  0.00    -0.196 OA
BRANCH  53  56
HETATM   56  O   UNL     1      12.189  20.636  32.561  1.00  0.00    -0.074 OA
BRANCH  56  57
HETATM   57  O   UNL     1      12.214  20.641  31.244  1.00  0.00    -0.018 OA
HETATM   58 NA   UNL     1      11.420  18.844  30.714  1.00  0.00     0.000 Na
ENDBRANCH  56  57
ENDBRANCH  53  56
ENDBRANCH  52  53
ENDBRANCH  51  52
ENDBRANCH  49  51
ENDBRANCH  13  49
BRANCH   2  59
HETATM   59  O   UNL     1       8.571  29.470  34.835  1.00  0.00     0.000 OA
HETATM   60  H   UNL     1       7.746  29.315  34.359  1.00  0.00     0.000 HD
BRANCH  59  61
HETATM   61  O   UNL     1       9.321  30.406  34.366  1.00  0.00    -0.177 OA
BRANCH  61  62
HETATM   62  C   UNL     1       9.261  30.946  33.252  1.00  0.00     0.153 C 
HETATM   63  C   UNL     1       9.166  30.271  31.909  1.00  0.00     0.088 C 
HETATM   64  C   UNL     1       9.597  31.406  30.994  1.00  0.00     0.028 C 
HETATM   65  C   UNL     1       9.116  32.658  31.713  1.00  0.00     0.125 C 
HETATM   66  N   UNL     1       9.246  32.298  33.105  1.00  0.00    -0.359 N 
BRANCH  66  67
HETATM   67  C   UNL     1       9.291  33.289  34.173  1.00  0.00     0.081 C 
HETATM   68  C   UNL     1      10.142  34.498  33.756  1.00  0.00     0.032 C 
BRANCH  67  69
HETATM   69  C   UNL     1       7.852  33.668  34.594  1.00  0.00     0.020 C 
HETATM   70  C   UNL     1       7.600  35.175  34.619  1.00  0.00     0.007 C 
ENDBRANCH  67  69
ENDBRANCH  66  67
ENDBRANCH  61  62
ENDBRANCH  59  61
ENDBRANCH   2  59
TORSDOF 23
ENDMDL
