MODEL 1
REMARK VINA RESULT:      -9.2      0.000      0.000
REMARK  26 active torsions:
REMARK  status: ('A' for Active; 'I' for Inactive)
REMARK    1  A    between atoms: C_1  and  C_7 
REMARK    2  A    between atoms: C_4  and  O_9 
REMARK    3  A    between atoms: C_5  and  O_11 
REMARK    4  A    between atoms: C_6  and  O_10 
REMARK    5  A    between atoms: C_12  and  C_18 
REMARK    6  A    between atoms: C_15  and  O_76 
REMARK    7  A    between atoms: C_18  and  O_74 
REMARK    8  A    between atoms: C_21  and  O_25 
REMARK    9  A    between atoms: C_23  and  O_26 
REMARK   10  A    between atoms: C_30  and  O_35 
REMARK   11  A    between atoms: C_32  and  O_36 
REMARK   12  A    between atoms: O_36  and  C_67 
REMARK   13  A    between atoms: C_39  and  O_60 
REMARK   14  A    between atoms: C_41  and  O_58 
REMARK   15  A    between atoms: C_42  and  C_45 
REMARK   16  A    between atoms: C_43  and  O_59 
REMARK   17  A    between atoms: C_45  and  O_53 
REMARK   18  A    between atoms: C_47  and  O_53 
REMARK   19  A    between atoms: C_50  and  O_55 
REMARK   20  A    between atoms: C_51  and  C_54 
REMARK   21  A    between atoms: C_54  and  O_74 
REMARK   22  A    between atoms: C_64  and  O_69 
REMARK   23  A    between atoms: C_65  and  C_72 
REMARK   24  A    between atoms: C_66  and  O_70 
REMARK   25  A    between atoms: C_68  and  O_71 
REMARK   26  A    between atoms: C_72  and  O_73 
ROOT
HETATM    1  C   UNK     0      -4.483   3.334 -24.899  0.00  0.00     0.026 A 
HETATM    2  C   UNK     0      -3.685   3.053 -26.022  0.00  0.00     0.006 A 
HETATM    3  C   UNK     0      -5.367   4.392 -24.813  0.00  0.00     0.111 A 
HETATM    4  C   UNK     0      -3.801   4.022 -27.061  0.00  0.00     0.054 A 
HETATM    5  C   UNK     0      -5.491   5.267 -25.860  0.00  0.00     0.100 A 
HETATM    6  C   UNK     0      -4.693   5.081 -26.962  0.00  0.00     0.058 A 
HETATM    7  O   UNK     0      -4.388   2.544 -23.801  0.00  0.00     0.000 OA
HETATM    8  C   UNK     0      -3.410   0.964 -24.755  0.00  0.00     0.026 A 
HETATM    9  C   UNK     0      -2.822   1.697 -25.789  0.00  0.00     0.006 A 
HETATM   10  C   UNK     0      -2.859  -0.160 -24.199  0.00  0.00     0.111 A 
HETATM   11  C   UNK     0      -1.634   1.103 -26.340  0.00  0.00     0.054 A 
HETATM   12  C   UNK     0      -1.678  -0.662 -24.661  0.00  0.00     0.111 A 
HETATM   13  C   UNK     0      -1.083  -0.046 -25.750  0.00  0.00     0.058 A 
HETATM   14  C   UNK     0      -0.829   1.548 -27.511  0.00  0.00     0.294 C 
HETATM   15  O   UNK     0      -4.599   1.366 -24.244  0.00  0.00     0.000 OA
HETATM   16  O   UNK     0      -0.239   2.602 -27.459  0.00  0.00    -0.259 OA
HETATM   17  C   UNK     0      -1.138   1.013 -31.124  0.00  0.00     0.302 C 
HETATM   18  C   UNK     0      -1.094   1.632 -29.746  0.00  0.00     0.219 C 
HETATM   19  O   UNK     0      -1.720   2.001 -32.059  0.00  0.00    -0.348 OA
HETATM   20  C   UNK     0      -2.388   2.087 -29.520  0.00  0.00     0.184 C 
HETATM   21  C   UNK     0      -2.581   3.141 -31.657  0.00  0.00     0.181 C 
HETATM   22  C   UNK     0      -2.469   3.370 -30.142  0.00  0.00     0.194 C 
HETATM   23  O   UNK     0      -3.561   4.041 -29.561  0.00  0.00    -0.307 OA
HETATM   24  O   UNK     0      -0.748   0.770 -28.680  0.00  0.00    -0.304 OA
HETATM   25  C   UNK     0      -3.038   4.116 -28.280  0.00  0.00     0.294 C 
HETATM   26  O   UNK     0      -1.841   4.240 -28.177  0.00  0.00    -0.259 OA
HETATM   27  H   UNK     0      -4.948   2.745 -22.984  0.00  0.00     0.000 HD
HETATM   28  H   UNK     0      -5.030   0.843 -23.493  0.00  0.00     0.000 HD
ENDROOT
BRANCH  21  29
HETATM   29  C   UNK     0      -2.116   4.431 -32.378  0.00  0.00     0.213 C 
BRANCH  29  30
HETATM   30  O   UNK     0      -2.804   4.797 -33.574  0.00  0.00    -0.315 OA
BRANCH  30  31
HETATM   31  C   UNK     0      -3.977   4.177 -33.896  0.00  0.00     0.293 C 
HETATM   32  O   UNK     0      -5.019   4.662 -33.521  0.00  0.00    -0.259 OA
BRANCH  31  33
HETATM   33  C   UNK     0      -4.017   2.944 -34.726  0.00  0.00     0.044 A 
HETATM   34  C   UNK     0      -2.925   2.663 -35.531  0.00  0.00     0.055 A 
HETATM   35  C   UNK     0      -2.917   1.537 -36.337  0.00  0.00     0.080 A 
HETATM   36  C   UNK     0      -4.004   0.683 -36.337  0.00  0.00     0.047 A 
HETATM   37  C   UNK     0      -5.108   0.946 -35.536  0.00  0.00     0.091 A 
HETATM   38  O   UNK     0      -3.987  -0.421 -37.132  0.00  0.00     0.000 OA
HETATM   39  C   UNK     0      -5.112   2.082 -34.729  0.00  0.00     0.056 A 
HETATM   40  O   UNK     0      -6.183   0.088 -35.553  0.00  0.00    -0.306 OA
HETATM   41  C   UNK     0      -6.178  -1.014 -36.369  0.00  0.00     0.121 A 
HETATM   42  O   UNK     0      -5.229  -1.202 -37.093  0.00  0.00     0.000 OA
HETATM   43  H   UNK     0      -4.779  -1.051 -37.139  0.00  0.00     0.000 HD
BRANCH  35  44
HETATM   44  O   UNK     0      -1.845   1.272 -37.131  0.00  0.00    -0.360 OA
HETATM   45  H   UNK     0      -0.975   1.771 -36.990  0.00  0.00     0.217 HD
ENDBRANCH  35  44
BRANCH  41  46
HETATM   46  C   UNK     0      -7.285  -1.989 -36.394  0.00  0.00     0.006 A 
HETATM   47  C   UNK     0      -7.019  -3.311 -36.069  0.00  0.00     0.054 A 
HETATM   48  C   UNK     0      -8.039  -4.249 -36.070  0.00  0.00     0.102 A 
HETATM   49  C   UNK     0      -9.329  -3.865 -36.398  0.00  0.00     0.132 A 
HETATM   50  C   UNK     0      -9.597  -2.544 -36.727  0.00  0.00     0.102 A 
HETATM   51  C   UNK     0      -8.576  -1.604 -36.722  0.00  0.00     0.054 A 
BRANCH  48  52
HETATM   52  O   UNK     0      -7.775  -5.543 -35.749  0.00  0.00    -0.358 OA
HETATM   53  H   UNK     0      -8.255  -5.980 -34.973  0.00  0.00     0.217 HD
ENDBRANCH  48  52
BRANCH  49  54
HETATM   54  O   UNK     0     -10.330  -4.785 -36.397  0.00  0.00    -0.356 OA
HETATM   55  H   UNK     0     -10.318  -5.546 -35.731  0.00  0.00     0.218 HD
ENDBRANCH  49  54
BRANCH  50  56
HETATM   56  O   UNK     0     -10.865  -2.170 -37.051  0.00  0.00    -0.358 OA
HETATM   57  H   UNK     0     -11.136  -1.197 -36.995  0.00  0.00     0.217 HD
ENDBRANCH  50  56
ENDBRANCH  41  46
ENDBRANCH  31  33
ENDBRANCH  30  31
ENDBRANCH  29  30
ENDBRANCH  21  29
BRANCH  17  58
HETATM   58  O   UNK     0       0.170   0.663 -31.539  0.00  0.00    -0.283 OA
BRANCH  58  59
HETATM   59  C   UNK     0       0.428  -0.569 -32.051  0.00  0.00     0.295 C 
HETATM   60  O   UNK     0       1.425  -1.171 -31.721  0.00  0.00    -0.259 OA
BRANCH  59  61
HETATM   61  C   UNK     0      -0.510  -1.162 -33.015  0.00  0.00     0.045 A 
HETATM   62  C   UNK     0      -1.597  -1.891 -32.557  0.00  0.00     0.057 A 
HETATM   63  C   UNK     0      -2.490  -2.447 -33.459  0.00  0.00     0.102 A 
HETATM   64  C   UNK     0      -2.294  -2.278 -34.820  0.00  0.00     0.132 A 
HETATM   65  C   UNK     0      -1.207  -1.549 -35.278  0.00  0.00     0.102 A 
HETATM   66  C   UNK     0      -0.315  -0.989 -34.376  0.00  0.00     0.057 A 
BRANCH  63  67
HETATM   67  O   UNK     0      -3.558  -3.158 -33.007  0.00  0.00    -0.358 OA
HETATM   68  H   UNK     0      -3.437  -4.118 -32.709  0.00  0.00     0.217 HD
ENDBRANCH  63  67
BRANCH  64  69
HETATM   69  O   UNK     0      -3.166  -2.829 -35.707  0.00  0.00    -0.356 OA
HETATM   70  H   UNK     0      -2.915  -2.901 -36.685  0.00  0.00     0.218 HD
ENDBRANCH  64  69
BRANCH  65  71
HETATM   71  O   UNK     0      -1.016  -1.382 -36.613  0.00  0.00    -0.358 OA
HETATM   72  H   UNK     0      -1.229  -0.494 -37.048  0.00  0.00     0.217 HD
ENDBRANCH  65  71
ENDBRANCH  59  61
ENDBRANCH  58  59
ENDBRANCH  17  58
BRANCH  20  73
HETATM   73  O   UNK     0      -2.645   2.192 -28.128  0.00  0.00    -0.390 OA
HETATM   74  H   UNK     0      -2.831   3.096 -27.714  0.00  0.00     0.210 HD
ENDBRANCH  20  73
BRANCH   5  75
HETATM   75  O   UNK     0      -6.367   6.306 -25.797  0.00  0.00    -0.358 OA
HETATM   76  H   UNK     0      -6.650   6.779 -26.645  0.00  0.00     0.217 HD
ENDBRANCH   5  75
BRANCH   3  77
HETATM   77  O   UNK     0      -6.113   4.567 -23.690  0.00  0.00    -0.357 OA
HETATM   78  H   UNK     0      -7.115   4.676 -23.760  0.00  0.00     0.217 HD
ENDBRANCH   3  77
BRANCH  12  79
HETATM   79  O   UNK     0      -1.232  -1.739 -23.942  0.00  0.00    -0.304 OA
BRANCH  79  80
HETATM   80  C   UNK     0      -0.154  -2.477 -23.543  0.00  0.00     0.129 A 
HETATM   81  C   UNK     0      -0.185  -3.800 -23.120  0.00  0.00     0.077 A 
HETATM   82  C   UNK     0       0.990  -4.416 -22.708  0.00  0.00     0.060 A 
HETATM   83  C   UNK     0       2.193  -3.725 -22.719  0.00  0.00     0.102 A 
HETATM   84  C   UNK     0       2.225  -2.411 -23.151  0.00  0.00     0.135 A 
HETATM   85  C   UNK     0       1.057  -1.798 -23.561  0.00  0.00     0.137 A 
BRANCH  81  86
HETATM   86  C   UNK     0      -1.434  -4.565 -23.098  0.00  0.00     0.179 C 
HETATM   87  O   UNK     0      -1.411  -5.765 -22.944  0.00  0.00    -0.646 OA
BRANCH  86  88
HETATM   88  O   UNK     0      -2.620  -3.917 -23.256  0.00  0.00    -0.773 OA
HETATM   89  H   UNK     0      -3.214  -3.749 -22.454  0.00  0.00     0.167 HD
ENDBRANCH  86  88
ENDBRANCH  81  86
BRANCH  83  90
HETATM   90  O   UNK     0       3.340  -4.331 -22.309  0.00  0.00    -0.358 OA
HETATM   91  H   UNK     0       4.204  -3.808 -22.280  0.00  0.00     0.217 HD
ENDBRANCH  83  90
BRANCH  84  92
HETATM   92  O   UNK     0       3.399  -1.722 -23.172  0.00  0.00    -0.356 OA
HETATM   93  H   UNK     0       4.272  -2.216 -23.307  0.00  0.00     0.218 HD
ENDBRANCH  84  92
BRANCH  85  94
HETATM   94  O   UNK     0       1.092  -0.506 -23.986  0.00  0.00    -0.356 OA
HETATM   95  H   UNK     0       0.417   0.161 -23.635  0.00  0.00     0.218 HD
ENDBRANCH  85  94
ENDBRANCH  79  80
ENDBRANCH  12  79
BRANCH  10  96
HETATM   96  O   UNK     0      -3.484  -0.776 -23.161  0.00  0.00    -0.357 OA
HETATM   97  H   UNK     0      -3.893  -0.226 -22.417  0.00  0.00     0.217 HD
ENDBRANCH  10  96
TORSDOF 26
ENDMDL
MODEL 2
REMARK VINA RESULT:      -9.1      4.783     14.660
REMARK  26 active torsions:
REMARK  status: ('A' for Active; 'I' for Inactive)
REMARK    1  A    between atoms: C_1  and  C_7 
REMARK    2  A    between atoms: C_4  and  O_9 
REMARK    3  A    between atoms: C_5  and  O_11 
REMARK    4  A    between atoms: C_6  and  O_10 
REMARK    5  A    between atoms: C_12  and  C_18 
REMARK    6  A    between atoms: C_15  and  O_76 
REMARK    7  A    between atoms: C_18  and  O_74 
REMARK    8  A    between atoms: C_21  and  O_25 
REMARK    9  A    between atoms: C_23  and  O_26 
REMARK   10  A    between atoms: C_30  and  O_35 
REMARK   11  A    between atoms: C_32  and  O_36 
REMARK   12  A    between atoms: O_36  and  C_67 
REMARK   13  A    between atoms: C_39  and  O_60 
REMARK   14  A    between atoms: C_41  and  O_58 
REMARK   15  A    between atoms: C_42  and  C_45 
REMARK   16  A    between atoms: C_43  and  O_59 
REMARK   17  A    between atoms: C_45  and  O_53 
REMARK   18  A    between atoms: C_47  and  O_53 
REMARK   19  A    between atoms: C_50  and  O_55 
REMARK   20  A    between atoms: C_51  and  C_54 
REMARK   21  A    between atoms: C_54  and  O_74 
REMARK   22  A    between atoms: C_64  and  O_69 
REMARK   23  A    between atoms: C_65  and  C_72 
REMARK   24  A    between atoms: C_66  and  O_70 
REMARK   25  A    between atoms: C_68  and  O_71 
REMARK   26  A    between atoms: C_72  and  O_73 
ROOT
HETATM    1  C   UNK     0       1.117  -1.507 -31.086  0.00  0.00     0.026 A 
HETATM    2  C   UNK     0       0.274  -0.927 -30.122  0.00  0.00     0.006 A 
HETATM    3  C   UNK     0       2.424  -1.890 -30.854  0.00  0.00     0.111 A 
HETATM    4  C   UNK     0       0.919  -0.681 -28.874  0.00  0.00     0.054 A 
HETATM    5  C   UNK     0       2.987  -1.689 -29.621  0.00  0.00     0.100 A 
HETATM    6  C   UNK     0       2.233  -1.071 -28.653  0.00  0.00     0.058 A 
HETATM    7  O   UNK     0       0.653  -1.699 -32.346  0.00  0.00     0.000 OA
HETATM    8  C   UNK     0      -1.367  -1.468 -31.871  0.00  0.00     0.026 A 
HETATM    9  C   UNK     0      -1.209  -0.671 -30.734  0.00  0.00     0.006 A 
HETATM   10  C   UNK     0      -2.441  -1.394 -32.718  0.00  0.00     0.111 A 
HETATM   11  C   UNK     0      -2.341   0.160 -30.425  0.00  0.00     0.054 A 
HETATM   12  C   UNK     0      -3.467  -0.529 -32.473  0.00  0.00     0.111 A 
HETATM   13  C   UNK     0      -3.429   0.225 -31.312  0.00  0.00     0.058 A 
HETATM   14  C   UNK     0      -2.557   1.035 -29.241  0.00  0.00     0.294 C 
HETATM   15  O   UNK     0      -0.415  -2.378 -32.187  0.00  0.00     0.000 OA
HETATM   16  O   UNK     0      -1.845   1.999 -29.078  0.00  0.00    -0.259 OA
HETATM   17  C   UNK     0      -3.805   0.414 -25.851  0.00  0.00     0.302 C 
HETATM   18  C   UNK     0      -2.933   0.750 -27.038  0.00  0.00     0.219 C 
HETATM   19  O   UNK     0      -2.934   0.244 -24.667  0.00  0.00    -0.348 OA
HETATM   20  C   UNK     0      -1.962  -0.246 -27.058  0.00  0.00     0.184 C 
HETATM   21  C   UNK     0      -1.484  -0.074 -24.722  0.00  0.00     0.181 C 
HETATM   22  C   UNK     0      -0.950   0.172 -26.141  0.00  0.00     0.194 C 
HETATM   23  O   UNK     0       0.219  -0.539 -26.466  0.00  0.00    -0.307 OA
HETATM   24  O   UNK     0      -3.567   0.758 -28.301  0.00  0.00    -0.304 OA
HETATM   25  C   UNK     0       0.397   0.013 -27.725  0.00  0.00     0.294 C 
HETATM   26  O   UNK     0       0.058   1.163 -27.876  0.00  0.00    -0.259 OA
HETATM   27  H   UNK     0       1.256  -2.103 -33.050  0.00  0.00     0.000 HD
HETATM   28  H   UNK     0      -0.520  -2.956 -33.010  0.00  0.00     0.000 HD
ENDROOT
BRANCH  21  29
HETATM   29  C   UNK     0      -0.707   0.843 -23.745  0.00  0.00     0.213 C 
BRANCH  29  30
HETATM   30  O   UNK     0       0.676   0.555 -23.535  0.00  0.00    -0.315 OA
BRANCH  30  31
HETATM   31  C   UNK     0       1.101   0.142 -22.306  0.00  0.00     0.293 C 
HETATM   32  O   UNK     0       1.210  -1.043 -22.089  0.00  0.00    -0.259 OA
BRANCH  31  33
HETATM   33  C   UNK     0       1.471   1.103 -21.233  0.00  0.00     0.044 A 
HETATM   34  C   UNK     0       2.014   2.322 -21.608  0.00  0.00     0.055 A 
HETATM   35  C   UNK     0       2.392   3.247 -20.650  0.00  0.00     0.080 A 
HETATM   36  C   UNK     0       2.224   2.957 -19.309  0.00  0.00     0.047 A 
HETATM   37  C   UNK     0       1.680   1.742 -18.912  0.00  0.00     0.091 A 
HETATM   38  O   UNK     0       2.598   3.873 -18.375  0.00  0.00     0.000 OA
HETATM   39  C   UNK     0       1.304   0.813 -19.881  0.00  0.00     0.056 A 
HETATM   40  O   UNK     0       1.526   1.468 -17.573  0.00  0.00    -0.306 OA
HETATM   41  C   UNK     0       1.921   2.380 -16.629  0.00  0.00     0.121 A 
HETATM   42  O   UNK     0       2.435   3.413 -16.990  0.00  0.00     0.000 OA
HETATM   43  H   UNK     0       2.480   3.668 -17.390  0.00  0.00     0.000 HD
BRANCH  35  44
HETATM   44  O   UNK     0       2.932   4.438 -21.025  0.00  0.00    -0.360 OA
HETATM   45  H   UNK     0       2.328   5.204 -21.297  0.00  0.00     0.217 HD
ENDBRANCH  35  44
BRANCH  41  46
HETATM   46  C   UNK     0       1.738   2.156 -15.183  0.00  0.00     0.006 A 
HETATM   47  C   UNK     0       0.482   1.801 -14.714  0.00  0.00     0.054 A 
HETATM   48  C   UNK     0       0.280   1.570 -13.362  0.00  0.00     0.102 A 
HETATM   49  C   UNK     0       1.337   1.696 -12.476  0.00  0.00     0.132 A 
HETATM   50  C   UNK     0       2.594   2.054 -12.941  0.00  0.00     0.102 A 
HETATM   51  C   UNK     0       2.797   2.282 -14.295  0.00  0.00     0.054 A 
BRANCH  48  52
HETATM   52  O   UNK     0      -0.952   1.220 -12.908  0.00  0.00    -0.358 OA
HETATM   53  H   UNK     0      -1.771   1.721 -13.228  0.00  0.00     0.217 HD
ENDBRANCH  48  52
BRANCH  49  54
HETATM   54  O   UNK     0       1.139   1.468 -11.150  0.00  0.00    -0.356 OA
HETATM   55  H   UNK     0       0.922   2.238 -10.531  0.00  0.00     0.218 HD
ENDBRANCH  49  54
BRANCH  50  56
HETATM   56  O   UNK     0       3.630   2.179 -12.067  0.00  0.00    -0.358 OA
HETATM   57  H   UNK     0       3.690   1.569 -11.263  0.00  0.00     0.217 HD
ENDBRANCH  50  56
ENDBRANCH  41  46
ENDBRANCH  31  33
ENDBRANCH  30  31
ENDBRANCH  29  30
ENDBRANCH  21  29
BRANCH  17  58
HETATM   58  O   UNK     0      -4.735   1.458 -25.623  0.00  0.00    -0.283 OA
BRANCH  58  59
HETATM   59  C   UNK     0      -4.661   2.219 -24.500  0.00  0.00     0.295 C 
HETATM   60  O   UNK     0      -3.638   2.804 -24.224  0.00  0.00    -0.259 OA
BRANCH  59  61
HETATM   61  C   UNK     0      -5.833   2.323 -23.619  0.00  0.00     0.045 A 
HETATM   62  C   UNK     0      -6.392   3.565 -23.361  0.00  0.00     0.057 A 
HETATM   63  C   UNK     0      -7.501   3.670 -22.537  0.00  0.00     0.102 A 
HETATM   64  C   UNK     0      -8.049   2.532 -21.967  0.00  0.00     0.132 A 
HETATM   65  C   UNK     0      -7.491   1.290 -22.225  0.00  0.00     0.102 A 
HETATM   66  C   UNK     0      -6.383   1.184 -23.053  0.00  0.00     0.057 A 
BRANCH  63  67
HETATM   67  O   UNK     0      -8.051   4.889 -22.289  0.00  0.00    -0.358 OA
HETATM   68  H   UNK     0      -7.786   5.687 -22.852  0.00  0.00     0.217 HD
ENDBRANCH  63  67
BRANCH  64  69
HETATM   69  O   UNK     0      -9.135   2.634 -21.152  0.00  0.00    -0.356 OA
HETATM   70  H   UNK     0      -9.215   2.037 -20.339  0.00  0.00     0.218 HD
ENDBRANCH  64  69
BRANCH  65  71
HETATM   71  O   UNK     0      -8.030   0.174 -21.667  0.00  0.00    -0.358 OA
HETATM   72  H   UNK     0      -8.507   0.233 -20.777  0.00  0.00     0.217 HD
ENDBRANCH  65  71
ENDBRANCH  59  61
ENDBRANCH  58  59
ENDBRANCH  17  58
BRANCH  20  73
HETATM   73  O   UNK     0      -1.422  -0.391 -28.362  0.00  0.00    -0.390 OA
HETATM   74  H   UNK     0      -1.084   0.420 -28.864  0.00  0.00     0.210 HD
ENDBRANCH  20  73
BRANCH   5  75
HETATM   75  O   UNK     0       4.267  -2.073 -29.370  0.00  0.00    -0.358 OA
HETATM   76  H   UNK     0       4.806  -2.536 -30.090  0.00  0.00     0.217 HD
ENDBRANCH   5  75
BRANCH   3  77
HETATM   77  O   UNK     0       3.152  -2.464 -31.847  0.00  0.00    -0.357 OA
HETATM   78  H   UNK     0       2.746  -3.197 -32.413  0.00  0.00     0.217 HD
ENDBRANCH   3  77
BRANCH  12  79
HETATM   79  O   UNK     0      -4.417  -0.527 -33.460  0.00  0.00    -0.304 OA
BRANCH  79  80
HETATM   80  C   UNK     0      -5.080   0.205 -34.404  0.00  0.00     0.129 A 
HETATM   81  C   UNK     0      -5.851  -0.309 -35.438  0.00  0.00     0.077 A 
HETATM   82  C   UNK     0      -6.441   0.559 -36.349  0.00  0.00     0.060 A 
HETATM   83  C   UNK     0      -6.272   1.930 -36.233  0.00  0.00     0.102 A 
HETATM   84  C   UNK     0      -5.513   2.442 -35.196  0.00  0.00     0.135 A 
HETATM   85  C   UNK     0      -4.926   1.580 -34.289  0.00  0.00     0.137 A 
BRANCH  81  86
HETATM   86  C   UNK     0      -6.059  -1.750 -35.593  0.00  0.00     0.179 C 
HETATM   87  O   UNK     0      -7.065  -2.169 -36.118  0.00  0.00    -0.646 OA
BRANCH  86  88
HETATM   88  O   UNK     0      -5.112  -2.616 -35.138  0.00  0.00    -0.773 OA
HETATM   89  H   UNK     0      -4.523  -3.111 -35.795  0.00  0.00     0.167 HD
ENDBRANCH  86  88
ENDBRANCH  81  86
BRANCH  83  90
HETATM   90  O   UNK     0      -6.848   2.774 -37.131  0.00  0.00    -0.358 OA
HETATM   91  H   UNK     0      -7.428   2.403 -37.872  0.00  0.00     0.217 HD
ENDBRANCH  83  90
BRANCH  84  92
HETATM   92  O   UNK     0      -5.342   3.786 -35.066  0.00  0.00    -0.356 OA
HETATM   93  H   UNK     0      -5.281   4.369 -35.891  0.00  0.00     0.218 HD
ENDBRANCH  84  92
BRANCH  85  94
HETATM   94  O   UNK     0      -4.181   2.087 -33.270  0.00  0.00    -0.356 OA
HETATM   95  H   UNK     0      -4.301   3.051 -32.985  0.00  0.00     0.218 HD
ENDBRANCH  85  94
ENDBRANCH  79  80
ENDBRANCH  12  79
BRANCH  10  96
HETATM   96  O   UNK     0      -2.481  -2.177 -33.829  0.00  0.00    -0.357 OA
HETATM   97  H   UNK     0      -1.627  -2.578 -34.197  0.00  0.00     0.217 HD
ENDBRANCH  10  96
TORSDOF 26
ENDMDL
MODEL 3
REMARK VINA RESULT:      -8.4      3.691      9.099
REMARK  26 active torsions:
REMARK  status: ('A' for Active; 'I' for Inactive)
REMARK    1  A    between atoms: C_1  and  C_7 
REMARK    2  A    between atoms: C_4  and  O_9 
REMARK    3  A    between atoms: C_5  and  O_11 
REMARK    4  A    between atoms: C_6  and  O_10 
REMARK    5  A    between atoms: C_12  and  C_18 
REMARK    6  A    between atoms: C_15  and  O_76 
REMARK    7  A    between atoms: C_18  and  O_74 
REMARK    8  A    between atoms: C_21  and  O_25 
REMARK    9  A    between atoms: C_23  and  O_26 
REMARK   10  A    between atoms: C_30  and  O_35 
REMARK   11  A    between atoms: C_32  and  O_36 
REMARK   12  A    between atoms: O_36  and  C_67 
REMARK   13  A    between atoms: C_39  and  O_60 
REMARK   14  A    between atoms: C_41  and  O_58 
REMARK   15  A    between atoms: C_42  and  C_45 
REMARK   16  A    between atoms: C_43  and  O_59 
REMARK   17  A    between atoms: C_45  and  O_53 
REMARK   18  A    between atoms: C_47  and  O_53 
REMARK   19  A    between atoms: C_50  and  O_55 
REMARK   20  A    between atoms: C_51  and  C_54 
REMARK   21  A    between atoms: C_54  and  O_74 
REMARK   22  A    between atoms: C_64  and  O_69 
REMARK   23  A    between atoms: C_65  and  C_72 
REMARK   24  A    between atoms: C_66  and  O_70 
REMARK   25  A    between atoms: C_68  and  O_71 
REMARK   26  A    between atoms: C_72  and  O_73 
ROOT
HETATM    1  C   UNK     0      -3.280   0.443 -28.432  0.00  0.00     0.026 A 
HETATM    2  C   UNK     0      -2.345   1.220 -27.727  0.00  0.00     0.006 A 
HETATM    3  C   UNK     0      -3.022  -0.196 -29.629  0.00  0.00     0.111 A 
HETATM    4  C   UNK     0      -1.099   1.370 -28.406  0.00  0.00     0.054 A 
HETATM    5  C   UNK     0      -1.791  -0.074 -30.219  0.00  0.00     0.100 A 
HETATM    6  C   UNK     0      -0.853   0.722 -29.609  0.00  0.00     0.058 A 
HETATM    7  O   UNK     0      -4.537   0.309 -27.942  0.00  0.00     0.000 OA
HETATM    8  C   UNK     0      -4.090   0.973 -26.013  0.00  0.00     0.026 A 
HETATM    9  C   UNK     0      -2.979   1.759 -26.332  0.00  0.00     0.006 A 
HETATM   10  C   UNK     0      -4.949   1.240 -24.980  0.00  0.00     0.111 A 
HETATM   11  C   UNK     0      -2.710   2.819 -25.398  0.00  0.00     0.054 A 
HETATM   12  C   UNK     0      -4.744   2.309 -24.157  0.00  0.00     0.111 A 
HETATM   13  C   UNK     0      -3.608   3.078 -24.350  0.00  0.00     0.058 A 
HETATM   14  C   UNK     0      -1.558   3.762 -25.368  0.00  0.00     0.294 C 
HETATM   15  O   UNK     0      -4.365  -0.126 -26.754  0.00  0.00     0.000 OA
HETATM   16  O   UNK     0      -1.421   4.561 -26.265  0.00  0.00    -0.259 OA
HETATM   17  C   UNK     0       1.839   3.535 -24.009  0.00  0.00     0.302 C 
HETATM   18  C   UNK     0       0.649   3.639 -24.935  0.00  0.00     0.219 C 
HETATM   19  O   UNK     0       3.037   3.229 -24.823  0.00  0.00    -0.348 OA
HETATM   20  C   UNK     0       0.673   2.462 -25.676  0.00  0.00     0.184 C 
HETATM   21  C   UNK     0       3.006   2.613 -26.174  0.00  0.00     0.181 C 
HETATM   22  C   UNK     0       1.585   2.691 -26.751  0.00  0.00     0.194 C 
HETATM   23  O   UNK     0       1.295   1.740 -27.746  0.00  0.00    -0.307 OA
HETATM   24  O   UNK     0      -0.620   3.735 -24.320  0.00  0.00    -0.304 OA
HETATM   25  C   UNK     0       0.020   2.198 -28.038  0.00  0.00     0.294 C 
HETATM   26  O   UNK     0      -0.174   3.387 -27.949  0.00  0.00    -0.259 OA
HETATM   27  H   UNK     0      -5.221  -0.238 -28.448  0.00  0.00     0.000 HD
HETATM   28  H   UNK     0      -5.169  -0.699 -26.532  0.00  0.00     0.000 HD
ENDROOT
BRANCH  21  29
HETATM   29  C   UNK     0       3.959   3.381 -27.124  0.00  0.00     0.213 C 
BRANCH  29  30
HETATM   30  O   UNK     0       3.393   3.934 -28.312  0.00  0.00    -0.315 OA
BRANCH  30  31
HETATM   31  C   UNK     0       3.672   3.366 -29.521  0.00  0.00     0.293 C 
HETATM   32  O   UNK     0       4.690   2.725 -29.648  0.00  0.00    -0.259 OA
BRANCH  31  33
HETATM   33  C   UNK     0       2.747   3.477 -30.680  0.00  0.00     0.044 A 
HETATM   34  C   UNK     0       2.598   4.718 -31.279  0.00  0.00     0.055 A 
HETATM   35  C   UNK     0       1.737   4.881 -32.351  0.00  0.00     0.080 A 
HETATM   36  C   UNK     0       1.022   3.800 -32.832  0.00  0.00     0.047 A 
HETATM   37  C   UNK     0       1.159   2.547 -32.246  0.00  0.00     0.091 A 
HETATM   38  O   UNK     0       0.179   3.971 -33.886  0.00  0.00     0.000 OA
HETATM   39  C   UNK     0       2.024   2.389 -31.165  0.00  0.00     0.056 A 
HETATM   40  O   UNK     0       0.435   1.484 -32.734  0.00  0.00    -0.306 OA
HETATM   41  C   UNK     0      -0.431   1.658 -33.782  0.00  0.00     0.121 A 
HETATM   42  O   UNK     0      -0.572   2.764 -34.250  0.00  0.00     0.000 OA
HETATM   43  H   UNK     0      -0.349   3.185 -34.243  0.00  0.00     0.000 HD
BRANCH  35  44
HETATM   44  O   UNK     0       1.589   6.104 -32.929  0.00  0.00    -0.360 OA
HETATM   45  H   UNK     0       2.327   6.480 -33.512  0.00  0.00     0.217 HD
ENDBRANCH  35  44
BRANCH  41  46
HETATM   46  C   UNK     0      -1.198   0.544 -34.371  0.00  0.00     0.006 A 
HETATM   47  C   UNK     0      -2.558   0.707 -34.586  0.00  0.00     0.054 A 
HETATM   48  C   UNK     0      -3.304  -0.316 -35.151  0.00  0.00     0.102 A 
HETATM   49  C   UNK     0      -2.689  -1.506 -35.500  0.00  0.00     0.132 A 
HETATM   50  C   UNK     0      -1.328  -1.674 -35.284  0.00  0.00     0.102 A 
HETATM   51  C   UNK     0      -0.581  -0.648 -34.721  0.00  0.00     0.054 A 
BRANCH  48  52
HETATM   52  O   UNK     0      -4.636  -0.150 -35.362  0.00  0.00    -0.358 OA
HETATM   53  H   UNK     0      -4.966   0.236 -36.238  0.00  0.00     0.217 HD
ENDBRANCH  48  52
BRANCH  49  54
HETATM   54  O   UNK     0      -3.420  -2.508 -36.056  0.00  0.00    -0.356 OA
HETATM   55  H   UNK     0      -4.412  -2.577 -35.866  0.00  0.00     0.218 HD
ENDBRANCH  49  54
BRANCH  50  56
HETATM   56  O   UNK     0      -0.727  -2.846 -35.626  0.00  0.00    -0.358 OA
HETATM   57  H   UNK     0      -0.809  -3.652 -35.021  0.00  0.00     0.217 HD
ENDBRANCH  50  56
ENDBRANCH  41  46
ENDBRANCH  31  33
ENDBRANCH  30  31
ENDBRANCH  29  30
ENDBRANCH  21  29
BRANCH  17  58
HETATM   58  O   UNK     0       2.022   4.758 -23.318  0.00  0.00    -0.283 OA
BRANCH  58  59
HETATM   59  C   UNK     0       1.629   4.887 -22.023  0.00  0.00     0.295 C 
HETATM   60  O   UNK     0       1.312   5.971 -21.586  0.00  0.00    -0.259 OA
BRANCH  59  61
HETATM   61  C   UNK     0       1.598   3.701 -21.156  0.00  0.00     0.045 A 
HETATM   62  C   UNK     0       0.566   2.785 -21.280  0.00  0.00     0.057 A 
HETATM   63  C   UNK     0       0.534   1.661 -20.470  0.00  0.00     0.102 A 
HETATM   64  C   UNK     0       1.533   1.455 -19.532  0.00  0.00     0.132 A 
HETATM   65  C   UNK     0       2.566   2.372 -19.408  0.00  0.00     0.102 A 
HETATM   66  C   UNK     0       2.601   3.495 -20.221  0.00  0.00     0.057 A 
BRANCH  63  67
HETATM   67  O   UNK     0      -0.478   0.761 -20.597  0.00  0.00    -0.358 OA
HETATM   68  H   UNK     0      -0.715   0.391 -21.509  0.00  0.00     0.217 HD
ENDBRANCH  63  67
BRANCH  64  69
HETATM   69  O   UNK     0       1.500   0.355 -18.732  0.00  0.00    -0.356 OA
HETATM   70  H   UNK     0       1.650   0.449 -17.736  0.00  0.00     0.218 HD
ENDBRANCH  64  69
BRANCH  65  71
HETATM   71  O   UNK     0       3.547   2.168 -18.490  0.00  0.00    -0.358 OA
HETATM   72  H   UNK     0       4.311   2.825 -18.411  0.00  0.00     0.217 HD
ENDBRANCH  65  71
ENDBRANCH  59  61
ENDBRANCH  58  59
ENDBRANCH  17  58
BRANCH  20  73
HETATM   73  O   UNK     0      -0.621   2.161 -26.176  0.00  0.00    -0.390 OA
HETATM   74  H   UNK     0      -1.342   2.872 -26.176  0.00  0.00     0.210 HD
ENDBRANCH  20  73
BRANCH   5  75
HETATM   75  O   UNK     0      -1.515  -0.708 -31.390  0.00  0.00    -0.358 OA
HETATM   76  H   UNK     0      -2.270  -1.055 -31.966  0.00  0.00     0.217 HD
ENDBRANCH   5  75
BRANCH   3  77
HETATM   77  O   UNK     0      -3.988  -0.945 -30.224  0.00  0.00    -0.357 OA
HETATM   78  H   UNK     0      -3.733  -1.737 -30.798  0.00  0.00     0.217 HD
ENDBRANCH   3  77
BRANCH  12  79
HETATM   79  O   UNK     0      -5.739   2.475 -23.231  0.00  0.00    -0.304 OA
BRANCH  79  80
HETATM   80  C   UNK     0      -7.056   2.766 -23.011  0.00  0.00     0.129 A 
HETATM   81  C   UNK     0      -7.689   3.960 -23.331  0.00  0.00     0.077 A 
HETATM   82  C   UNK     0      -9.031   4.130 -23.014  0.00  0.00     0.060 A 
HETATM   83  C   UNK     0      -9.744   3.119 -22.388  0.00  0.00     0.102 A 
HETATM   84  C   UNK     0      -9.116   1.926 -22.079  0.00  0.00     0.135 A 
HETATM   85  C   UNK     0      -7.781   1.756 -22.393  0.00  0.00     0.137 A 
BRANCH  81  86
HETATM   86  C   UNK     0      -6.973   5.050 -23.998  0.00  0.00     0.179 C 
HETATM   87  O   UNK     0      -6.734   6.076 -23.404  0.00  0.00    -0.646 OA
BRANCH  86  88
HETATM   88  O   UNK     0      -6.580   4.900 -25.292  0.00  0.00    -0.773 OA
HETATM   89  H   UNK     0      -5.620   5.083 -25.553  0.00  0.00     0.167 HD
ENDBRANCH  86  88
ENDBRANCH  81  86
BRANCH  83  90
HETATM   90  O   UNK     0     -11.057   3.293 -22.075  0.00  0.00    -0.358 OA
HETATM   91  H   UNK     0     -11.313   3.753 -21.211  0.00  0.00     0.217 HD
ENDBRANCH  83  90
BRANCH  84  92
HETATM   92  O   UNK     0      -9.804   0.923 -21.468  0.00  0.00    -0.356 OA
HETATM   93  H   UNK     0      -9.326   0.299 -20.831  0.00  0.00     0.218 HD
ENDBRANCH  84  92
BRANCH  85  94
HETATM   94  O   UNK     0      -7.166   0.581 -22.090  0.00  0.00    -0.356 OA
HETATM   95  H   UNK     0      -6.815   0.420 -21.154  0.00  0.00     0.218 HD
ENDBRANCH  85  94
ENDBRANCH  79  80
ENDBRANCH  12  79
BRANCH  10  96
HETATM   96  O   UNK     0      -6.033   0.444 -24.780  0.00  0.00    -0.357 OA
HETATM   97  H   UNK     0      -6.431  -0.074 -25.553  0.00  0.00     0.217 HD
ENDBRANCH  10  96
TORSDOF 26
ENDMDL
MODEL 4
REMARK VINA RESULT:      -8.4      2.514      6.731
REMARK  26 active torsions:
REMARK  status: ('A' for Active; 'I' for Inactive)
REMARK    1  A    between atoms: C_1  and  C_7 
REMARK    2  A    between atoms: C_4  and  O_9 
REMARK    3  A    between atoms: C_5  and  O_11 
REMARK    4  A    between atoms: C_6  and  O_10 
REMARK    5  A    between atoms: C_12  and  C_18 
REMARK    6  A    between atoms: C_15  and  O_76 
REMARK    7  A    between atoms: C_18  and  O_74 
REMARK    8  A    between atoms: C_21  and  O_25 
REMARK    9  A    between atoms: C_23  and  O_26 
REMARK   10  A    between atoms: C_30  and  O_35 
REMARK   11  A    between atoms: C_32  and  O_36 
REMARK   12  A    between atoms: O_36  and  C_67 
REMARK   13  A    between atoms: C_39  and  O_60 
REMARK   14  A    between atoms: C_41  and  O_58 
REMARK   15  A    between atoms: C_42  and  C_45 
REMARK   16  A    between atoms: C_43  and  O_59 
REMARK   17  A    between atoms: C_45  and  O_53 
REMARK   18  A    between atoms: C_47  and  O_53 
REMARK   19  A    between atoms: C_50  and  O_55 
REMARK   20  A    between atoms: C_51  and  C_54 
REMARK   21  A    between atoms: C_54  and  O_74 
REMARK   22  A    between atoms: C_64  and  O_69 
REMARK   23  A    between atoms: C_65  and  C_72 
REMARK   24  A    between atoms: C_66  and  O_70 
REMARK   25  A    between atoms: C_68  and  O_71 
REMARK   26  A    between atoms: C_72  and  O_73 
ROOT
HETATM    1  C   UNK     0       2.508  -1.568 -28.881  0.00  0.00     0.026 A 
HETATM    2  C   UNK     0       1.372  -0.754 -28.729  0.00  0.00     0.006 A 
HETATM    3  C   UNK     0       2.993  -2.014 -30.095  0.00  0.00     0.111 A 
HETATM    4  C   UNK     0       0.691  -0.488 -29.954  0.00  0.00     0.054 A 
HETATM    5  C   UNK     0       2.341  -1.686 -31.255  0.00  0.00     0.100 A 
HETATM    6  C   UNK     0       1.189  -0.944 -31.167  0.00  0.00     0.058 A 
HETATM    7  O   UNK     0       3.185  -1.976 -27.780  0.00  0.00     0.000 OA
HETATM    8  C   UNK     0       2.338  -0.585 -26.474  0.00  0.00     0.026 A 
HETATM    9  C   UNK     0       1.142  -0.374 -27.166  0.00  0.00     0.006 A 
HETATM   10  C   UNK     0       2.462  -0.504 -25.112  0.00  0.00     0.111 A 
HETATM   11  C   UNK     0       0.051   0.080 -26.347  0.00  0.00     0.054 A 
HETATM   12  C   UNK     0       1.395  -0.171 -24.330  0.00  0.00     0.111 A 
HETATM   13  C   UNK     0       0.199   0.149 -24.952  0.00  0.00     0.058 A 
HETATM   14  C   UNK     0      -1.313   0.505 -26.767  0.00  0.00     0.294 C 
HETATM   15  O   UNK     0       3.462  -0.894 -27.163  0.00  0.00     0.000 OA
HETATM   16  O   UNK     0      -2.062  -0.305 -27.261  0.00  0.00    -0.259 OA
HETATM   17  C   UNK     0      -2.692   3.675 -27.986  0.00  0.00     0.302 C 
HETATM   18  C   UNK     0      -2.218   2.244 -27.876  0.00  0.00     0.219 C 
HETATM   19  O   UNK     0      -2.941   3.974 -29.414  0.00  0.00    -0.348 OA
HETATM   20  C   UNK     0      -1.161   2.151 -28.774  0.00  0.00     0.184 C 
HETATM   21  C   UNK     0      -2.342   3.230 -30.551  0.00  0.00     0.181 C 
HETATM   22  C   UNK     0      -1.750   1.903 -30.051  0.00  0.00     0.194 C 
HETATM   23  O   UNK     0      -0.744   1.357 -30.870  0.00  0.00    -0.307 OA
HETATM   24  O   UNK     0      -1.744   1.835 -26.609  0.00  0.00    -0.304 OA
HETATM   25  C   UNK     0      -0.565   0.190 -30.144  0.00  0.00     0.294 C 
HETATM   26  O   UNK     0      -1.538  -0.280 -29.604  0.00  0.00    -0.259 OA
HETATM   27  H   UNK     0       3.996  -2.573 -27.878  0.00  0.00     0.000 HD
HETATM   28  H   UNK     0       4.331  -1.052 -26.669  0.00  0.00     0.000 HD
ENDROOT
BRANCH  21  29
HETATM   29  C   UNK     0      -3.432   2.910 -31.603  0.00  0.00     0.213 C 
BRANCH  29  30
HETATM   30  O   UNK     0      -2.994   2.471 -32.889  0.00  0.00    -0.315 OA
BRANCH  30  31
HETATM   31  C   UNK     0      -3.914   2.167 -33.849  0.00  0.00     0.293 C 
HETATM   32  O   UNK     0      -4.539   3.063 -34.369  0.00  0.00    -0.259 OA
BRANCH  31  33
HETATM   33  C   UNK     0      -4.150   0.771 -34.306  0.00  0.00     0.044 A 
HETATM   34  C   UNK     0      -3.049  -0.054 -34.476  0.00  0.00     0.055 A 
HETATM   35  C   UNK     0      -3.210  -1.357 -34.914  0.00  0.00     0.080 A 
HETATM   36  C   UNK     0      -4.475  -1.843 -35.183  0.00  0.00     0.047 A 
HETATM   37  C   UNK     0      -5.592  -1.032 -35.018  0.00  0.00     0.091 A 
HETATM   38  O   UNK     0      -4.623  -3.125 -35.614  0.00  0.00     0.000 OA
HETATM   39  C   UNK     0      -5.424   0.280 -34.579  0.00  0.00     0.056 A 
HETATM   40  O   UNK     0      -6.843  -1.530 -35.296  0.00  0.00    -0.306 OA
HETATM   41  C   UNK     0      -6.993  -2.814 -35.750  0.00  0.00     0.121 A 
HETATM   42  O   UNK     0      -6.008  -3.491 -35.932  0.00  0.00     0.000 OA
HETATM   43  H   UNK     0      -5.546  -3.488 -35.814  0.00  0.00     0.000 HD
BRANCH  35  44
HETATM   44  O   UNK     0      -2.124  -2.159 -35.086  0.00  0.00    -0.360 OA
HETATM   45  H   UNK     0      -1.439  -1.937 -35.798  0.00  0.00     0.217 HD
ENDBRANCH  35  44
BRANCH  41  46
HETATM   46  C   UNK     0      -8.314  -3.412 -36.021  0.00  0.00     0.006 A 
HETATM   47  C   UNK     0      -8.445  -4.792 -35.981  0.00  0.00     0.054 A 
HETATM   48  C   UNK     0      -9.676  -5.385 -36.218  0.00  0.00     0.102 A 
HETATM   49  C   UNK     0     -10.779  -4.595 -36.496  0.00  0.00     0.132 A 
HETATM   50  C   UNK     0     -10.651  -3.214 -36.540  0.00  0.00     0.102 A 
HETATM   51  C   UNK     0      -9.419  -2.621 -36.300  0.00  0.00     0.054 A 
BRANCH  48  52
HETATM   52  O   UNK     0      -9.800  -6.737 -36.175  0.00  0.00    -0.358 OA
HETATM   53  H   UNK     0     -10.660  -7.157 -35.847  0.00  0.00     0.217 HD
ENDBRANCH  48  52
BRANCH  49  54
HETATM   54  O   UNK     0     -11.986  -5.176 -36.726  0.00  0.00    -0.356 OA
HETATM   55  H   UNK     0     -12.291  -5.954 -36.155  0.00  0.00     0.218 HD
ENDBRANCH  49  54
BRANCH  50  56
HETATM   56  O   UNK     0     -11.736  -2.440 -36.816  0.00  0.00    -0.358 OA
HETATM   57  H   UNK     0     -11.761  -1.476 -36.512  0.00  0.00     0.217 HD
ENDBRANCH  50  56
ENDBRANCH  41  46
ENDBRANCH  31  33
ENDBRANCH  30  31
ENDBRANCH  29  30
ENDBRANCH  21  29
BRANCH  17  58
HETATM   58  O   UNK     0      -3.883   3.850 -27.239  0.00  0.00    -0.283 OA
BRANCH  58  59
HETATM   59  C   UNK     0      -3.834   4.060 -25.897  0.00  0.00     0.295 C 
HETATM   60  O   UNK     0      -3.127   4.929 -25.440  0.00  0.00    -0.259 OA
BRANCH  59  61
HETATM   61  C   UNK     0      -4.644   3.218 -25.005  0.00  0.00     0.045 A 
HETATM   62  C   UNK     0      -4.280   1.899 -24.786  0.00  0.00     0.057 A 
HETATM   63  C   UNK     0      -5.035   1.101 -23.940  0.00  0.00     0.102 A 
HETATM   64  C   UNK     0      -6.157   1.622 -23.317  0.00  0.00     0.132 A 
HETATM   65  C   UNK     0      -6.521   2.942 -23.536  0.00  0.00     0.102 A 
HETATM   66  C   UNK     0      -5.764   3.742 -24.379  0.00  0.00     0.057 A 
BRANCH  63  67
HETATM   67  O   UNK     0      -4.673  -0.192 -23.723  0.00  0.00    -0.358 OA
HETATM   68  H   UNK     0      -4.311  -0.471 -22.820  0.00  0.00     0.217 HD
ENDBRANCH  63  67
BRANCH  64  69
HETATM   69  O   UNK     0      -6.903   0.838 -22.491  0.00  0.00    -0.356 OA
HETATM   70  H   UNK     0      -6.840  -0.170 -22.557  0.00  0.00     0.218 HD
ENDBRANCH  64  69
BRANCH  65  71
HETATM   71  O   UNK     0      -7.621   3.453 -22.923  0.00  0.00    -0.358 OA
HETATM   72  H   UNK     0      -8.352   2.834 -22.596  0.00  0.00     0.217 HD
ENDBRANCH  65  71
ENDBRANCH  59  61
ENDBRANCH  58  59
ENDBRANCH  17  58
BRANCH  20  73
HETATM   73  O   UNK     0      -0.292   1.089 -28.413  0.00  0.00    -0.390 OA
HETATM   74  H   UNK     0      -0.625   0.342 -27.817  0.00  0.00     0.210 HD
ENDBRANCH  20  73
BRANCH   5  75
HETATM   75  O   UNK     0       2.812  -2.106 -32.460  0.00  0.00    -0.358 OA
HETATM   76  H   UNK     0       2.637  -1.555 -33.290  0.00  0.00     0.217 HD
ENDBRANCH   5  75
BRANCH   3  77
HETATM   77  O   UNK     0       4.115  -2.781 -30.140  0.00  0.00    -0.357 OA
HETATM   78  H   UNK     0       4.125  -3.630 -30.689  0.00  0.00     0.217 HD
ENDBRANCH   3  77
BRANCH  12  79
HETATM   79  O   UNK     0       1.674  -0.216 -22.990  0.00  0.00    -0.304 OA
BRANCH  79  80
HETATM   80  C   UNK     0       1.518   0.382 -21.771  0.00  0.00     0.129 A 
HETATM   81  C   UNK     0       1.090   1.685 -21.553  0.00  0.00     0.077 A 
HETATM   82  C   UNK     0       1.012   2.172 -20.255  0.00  0.00     0.060 A 
HETATM   83  C   UNK     0       1.352   1.369 -19.176  0.00  0.00     0.102 A 
HETATM   84  C   UNK     0       1.768   0.068 -19.393  0.00  0.00     0.135 A 
HETATM   85  C   UNK     0       1.846  -0.418 -20.685  0.00  0.00     0.137 A 
BRANCH  81  86
HETATM   86  C   UNK     0       0.716   2.562 -22.665  0.00  0.00     0.179 C 
HETATM   87  O   UNK     0       1.570   3.128 -23.309  0.00  0.00    -0.646 OA
BRANCH  86  88
HETATM   88  O   UNK     0      -0.599   2.738 -22.966  0.00  0.00    -0.773 OA
HETATM   89  H   UNK     0      -0.892   3.549 -23.495  0.00  0.00     0.167 HD
ENDBRANCH  86  88
ENDBRANCH  81  86
BRANCH  83  90
HETATM   90  O   UNK     0       1.279   1.853 -17.907  0.00  0.00    -0.358 OA
HETATM   91  H   UNK     0       0.411   2.244 -17.565  0.00  0.00     0.217 HD
ENDBRANCH  83  90
BRANCH  84  92
HETATM   92  O   UNK     0       2.101  -0.733 -18.344  0.00  0.00    -0.356 OA
HETATM   93  H   UNK     0       2.924  -0.527 -17.793  0.00  0.00     0.218 HD
ENDBRANCH  84  92
BRANCH  85  94
HETATM   94  O   UNK     0       2.254  -1.698 -20.895  0.00  0.00    -0.356 OA
HETATM   95  H   UNK     0       2.875  -2.147 -20.233  0.00  0.00     0.218 HD
ENDBRANCH  85  94
ENDBRANCH  79  80
ENDBRANCH  12  79
BRANCH  10  96
HETATM   96  O   UNK     0       3.658  -0.777 -24.526  0.00  0.00    -0.357 OA
HETATM   97  H   UNK     0       4.192  -1.586 -24.816  0.00  0.00     0.217 HD
ENDBRANCH  10  96
TORSDOF 26
ENDMDL
MODEL 5
REMARK VINA RESULT:      -8.2      4.466     14.487
REMARK  26 active torsions:
REMARK  status: ('A' for Active; 'I' for Inactive)
REMARK    1  A    between atoms: C_1  and  C_7 
REMARK    2  A    between atoms: C_4  and  O_9 
REMARK    3  A    between atoms: C_5  and  O_11 
REMARK    4  A    between atoms: C_6  and  O_10 
REMARK    5  A    between atoms: C_12  and  C_18 
REMARK    6  A    between atoms: C_15  and  O_76 
REMARK    7  A    between atoms: C_18  and  O_74 
REMARK    8  A    between atoms: C_21  and  O_25 
REMARK    9  A    between atoms: C_23  and  O_26 
REMARK   10  A    between atoms: C_30  and  O_35 
REMARK   11  A    between atoms: C_32  and  O_36 
REMARK   12  A    between atoms: O_36  and  C_67 
REMARK   13  A    between atoms: C_39  and  O_60 
REMARK   14  A    between atoms: C_41  and  O_58 
REMARK   15  A    between atoms: C_42  and  C_45 
REMARK   16  A    between atoms: C_43  and  O_59 
REMARK   17  A    between atoms: C_45  and  O_53 
REMARK   18  A    between atoms: C_47  and  O_53 
REMARK   19  A    between atoms: C_50  and  O_55 
REMARK   20  A    between atoms: C_51  and  C_54 
REMARK   21  A    between atoms: C_54  and  O_74 
REMARK   22  A    between atoms: C_64  and  O_69 
REMARK   23  A    between atoms: C_65  and  C_72 
REMARK   24  A    between atoms: C_66  and  O_70 
REMARK   25  A    between atoms: C_68  and  O_71 
REMARK   26  A    between atoms: C_72  and  O_73 
ROOT
HETATM    1  C   UNK     0       1.269  -1.465 -31.358  0.00  0.00     0.026 A 
HETATM    2  C   UNK     0       0.473  -0.838 -30.384  0.00  0.00     0.006 A 
HETATM    3  C   UNK     0       2.504  -2.034 -31.110  0.00  0.00     0.111 A 
HETATM    4  C   UNK     0       1.094  -0.758 -29.103  0.00  0.00     0.054 A 
HETATM    5  C   UNK     0       3.039  -1.986 -29.850  0.00  0.00     0.100 A 
HETATM    6  C   UNK     0       2.336  -1.333 -28.867  0.00  0.00     0.058 A 
HETATM    7  O   UNK     0       0.835  -1.515 -32.641  0.00  0.00     0.000 OA
HETATM    8  C   UNK     0      -1.155  -1.045 -32.215  0.00  0.00     0.026 A 
HETATM    9  C   UNK     0      -0.938  -0.348 -31.023  0.00  0.00     0.006 A 
HETATM   10  C   UNK     0      -2.175  -0.776 -33.088  0.00  0.00     0.111 A 
HETATM   11  C   UNK     0      -1.962   0.606 -30.695  0.00  0.00     0.054 A 
HETATM   12  C   UNK     0      -3.087   0.203 -32.819  0.00  0.00     0.111 A 
HETATM   13  C   UNK     0      -2.996   0.871 -31.609  0.00  0.00     0.058 A 
HETATM   14  C   UNK     0      -2.107   1.429 -29.463  0.00  0.00     0.294 C 
HETATM   15  O   UNK     0      -0.319  -2.053 -32.560  0.00  0.00     0.000 OA
HETATM   16  O   UNK     0      -1.282   2.277 -29.214  0.00  0.00    -0.259 OA
HETATM   17  C   UNK     0      -3.560   0.773 -26.162  0.00  0.00     0.302 C 
HETATM   18  C   UNK     0      -2.605   1.061 -27.296  0.00  0.00     0.219 C 
HETATM   19  O   UNK     0      -2.766   0.415 -24.965  0.00  0.00    -0.348 OA
HETATM   20  C   UNK     0      -1.774  -0.053 -27.352  0.00  0.00     0.184 C 
HETATM   21  C   UNK     0      -1.370  -0.091 -24.996  0.00  0.00     0.181 C 
HETATM   22  C   UNK     0      -0.753   0.168 -26.379  0.00  0.00     0.194 C 
HETATM   23  O   UNK     0       0.325  -0.672 -26.714  0.00  0.00    -0.307 OA
HETATM   24  O   UNK     0      -3.181   1.232 -28.576  0.00  0.00    -0.304 OA
HETATM   25  C   UNK     0       0.623  -0.072 -27.927  0.00  0.00     0.294 C 
HETATM   26  O   UNK     0       0.446   1.120 -28.012  0.00  0.00    -0.259 OA
HETATM   27  H   UNK     0       1.407  -1.952 -33.351  0.00  0.00     0.000 HD
HETATM   28  H   UNK     0      -0.467  -2.561 -33.423  0.00  0.00     0.000 HD
ENDROOT
BRANCH  21  29
HETATM   29  C   UNK     0      -0.518   0.652 -23.937  0.00  0.00     0.213 C 
BRANCH  29  30
HETATM   30  O   UNK     0       0.880   0.366 -23.903  0.00  0.00    -0.315 OA
BRANCH  30  31
HETATM   31  C   UNK     0       1.416  -0.257 -22.813  0.00  0.00     0.293 C 
HETATM   32  O   UNK     0       1.505  -1.463 -22.811  0.00  0.00    -0.259 OA
BRANCH  31  33
HETATM   33  C   UNK     0       1.930   0.501 -21.641  0.00  0.00     0.044 A 
HETATM   34  C   UNK     0       3.046   1.302 -21.822  0.00  0.00     0.055 A 
HETATM   35  C   UNK     0       3.576   2.017 -20.761  0.00  0.00     0.080 A 
HETATM   36  C   UNK     0       2.988   1.936 -19.513  0.00  0.00     0.047 A 
HETATM   37  C   UNK     0       1.867   1.139 -19.312  0.00  0.00     0.091 A 
HETATM   38  O   UNK     0       3.516   2.642 -18.477  0.00  0.00     0.000 OA
HETATM   39  C   UNK     0       1.340   0.419 -20.383  0.00  0.00     0.056 A 
HETATM   40  O   UNK     0       1.299   1.065 -18.062  0.00  0.00    -0.306 OA
HETATM   41  C   UNK     0       1.841   1.759 -17.011  0.00  0.00     0.121 A 
HETATM   42  O   UNK     0       2.843   2.410 -17.194  0.00  0.00     0.000 OA
HETATM   43  H   UNK     0       3.092   2.586 -17.559  0.00  0.00     0.000 HD
BRANCH  35  44
HETATM   44  O   UNK     0       4.677   2.795 -20.943  0.00  0.00    -0.360 OA
HETATM   45  H   UNK     0       5.571   2.366 -21.149  0.00  0.00     0.217 HD
ENDBRANCH  35  44
BRANCH  41  46
HETATM   46  C   UNK     0       1.246   1.750 -15.662  0.00  0.00     0.006 A 
HETATM   47  C   UNK     0      -0.119   1.537 -15.534  0.00  0.00     0.054 A 
HETATM   48  C   UNK     0      -0.707   1.510 -14.279  0.00  0.00     0.102 A 
HETATM   49  C   UNK     0       0.071   1.697 -13.149  0.00  0.00     0.132 A 
HETATM   50  C   UNK     0       1.436   1.913 -13.273  0.00  0.00     0.102 A 
HETATM   51  C   UNK     0       2.025   1.937 -14.530  0.00  0.00     0.054 A 
BRANCH  48  52
HETATM   52  O   UNK     0      -2.044   1.298 -14.158  0.00  0.00    -0.358 OA
HETATM   53  H   UNK     0      -2.687   2.079 -14.203  0.00  0.00     0.217 HD
ENDBRANCH  48  52
BRANCH  49  54
HETATM   54  O   UNK     0      -0.506   1.668 -11.918  0.00  0.00    -0.356 OA
HETATM   55  H   UNK     0      -1.410   2.098 -11.772  0.00  0.00     0.218 HD
ENDBRANCH  49  54
BRANCH  50  56
HETATM   56  O   UNK     0       2.197   2.099 -12.161  0.00  0.00    -0.358 OA
HETATM   57  H   UNK     0       1.791   1.976 -11.243  0.00  0.00     0.217 HD
ENDBRANCH  50  56
ENDBRANCH  41  46
ENDBRANCH  31  33
ENDBRANCH  30  31
ENDBRANCH  29  30
ENDBRANCH  21  29
BRANCH  17  58
HETATM   58  O   UNK     0      -4.353   1.916 -25.894  0.00  0.00    -0.283 OA
BRANCH  58  59
HETATM   59  C   UNK     0      -4.448   2.413 -24.633  0.00  0.00     0.295 C 
HETATM   60  O   UNK     0      -3.453   2.745 -24.030  0.00  0.00    -0.259 OA
BRANCH  59  61
HETATM   61  C   UNK     0      -5.771   2.540 -24.005  0.00  0.00     0.045 A 
HETATM   62  C   UNK     0      -6.207   1.569 -23.117  0.00  0.00     0.057 A 
HETATM   63  C   UNK     0      -7.450   1.685 -22.516  0.00  0.00     0.102 A 
HETATM   64  C   UNK     0      -8.260   2.771 -22.807  0.00  0.00     0.132 A 
HETATM   65  C   UNK     0      -7.824   3.743 -23.695  0.00  0.00     0.102 A 
HETATM   66  C   UNK     0      -6.579   3.629 -24.294  0.00  0.00     0.057 A 
BRANCH  63  67
HETATM   67  O   UNK     0      -7.874   0.734 -21.641  0.00  0.00    -0.358 OA
HETATM   68  H   UNK     0      -8.290   1.007 -20.760  0.00  0.00     0.217 HD
ENDBRANCH  63  67
BRANCH  64  69
HETATM   69  O   UNK     0      -9.484   2.884 -22.222  0.00  0.00    -0.356 OA
HETATM   70  H   UNK     0     -10.227   3.383 -22.695  0.00  0.00     0.218 HD
ENDBRANCH  64  69
BRANCH  65  71
HETATM   71  O   UNK     0      -8.619   4.808 -23.979  0.00  0.00    -0.358 OA
HETATM   72  H   UNK     0      -9.488   4.939 -23.478  0.00  0.00     0.217 HD
ENDBRANCH  65  71
ENDBRANCH  59  61
ENDBRANCH  58  59
ENDBRANCH  17  58
BRANCH  20  73
HETATM   73  O   UNK     0      -1.207  -0.188 -28.646  0.00  0.00    -0.390 OA
HETATM   74  H   UNK     0      -0.811  -1.074 -28.935  0.00  0.00     0.210 HD
ENDBRANCH  20  73
BRANCH   5  75
HETATM   75  O   UNK     0       4.247  -2.553 -29.585  0.00  0.00    -0.358 OA
HETATM   76  H   UNK     0       4.819  -2.195 -28.832  0.00  0.00     0.217 HD
ENDBRANCH   5  75
BRANCH   3  77
HETATM   77  O   UNK     0       3.189  -2.638 -32.117  0.00  0.00    -0.357 OA
HETATM   78  H   UNK     0       3.226  -3.647 -32.168  0.00  0.00     0.217 HD
ENDBRANCH   3  77
BRANCH  12  79
HETATM   79  O   UNK     0      -3.988   0.393 -33.832  0.00  0.00    -0.304 OA
BRANCH  79  80
HETATM   80  C   UNK     0      -4.654   1.295 -34.613  0.00  0.00     0.129 A 
HETATM   81  C   UNK     0      -4.341   2.642 -34.747  0.00  0.00     0.077 A 
HETATM   82  C   UNK     0      -5.131   3.452 -35.553  0.00  0.00     0.060 A 
HETATM   83  C   UNK     0      -6.223   2.928 -36.229  0.00  0.00     0.102 A 
HETATM   84  C   UNK     0      -6.527   1.584 -36.104  0.00  0.00     0.135 A 
HETATM   85  C   UNK     0      -5.743   0.778 -35.302  0.00  0.00     0.137 A 
BRANCH  81  86
HETATM   86  C   UNK     0      -3.193   3.232 -34.055  0.00  0.00     0.179 C 
HETATM   87  O   UNK     0      -2.068   2.992 -34.427  0.00  0.00    -0.646 OA
BRANCH  86  88
HETATM   88  O   UNK     0      -3.403   4.050 -32.987  0.00  0.00    -0.773 OA
HETATM   89  H   UNK     0      -2.642   4.607 -32.621  0.00  0.00     0.167 HD
ENDBRANCH  86  88
ENDBRANCH  81  86
BRANCH  83  90
HETATM   90  O   UNK     0      -6.996   3.727 -37.013  0.00  0.00    -0.358 OA
HETATM   91  H   UNK     0      -7.710   3.319 -37.602  0.00  0.00     0.217 HD
ENDBRANCH  83  90
BRANCH  84  92
HETATM   92  O   UNK     0      -7.594   1.056 -36.764  0.00  0.00    -0.356 OA
HETATM   93  H   UNK     0      -8.531   1.359 -36.534  0.00  0.00     0.218 HD
ENDBRANCH  84  92
BRANCH  85  94
HETATM   94  O   UNK     0      -6.044  -0.543 -35.183  0.00  0.00    -0.356 OA
HETATM   95  H   UNK     0      -6.117  -1.123 -36.010  0.00  0.00     0.218 HD
ENDBRANCH  85  94
ENDBRANCH  79  80
ENDBRANCH  12  79
BRANCH  10  96
HETATM   96  O   UNK     0      -2.274  -1.477 -34.249  0.00  0.00    -0.357 OA
HETATM   97  H   UNK     0      -2.704  -1.054 -35.062  0.00  0.00     0.217 HD
ENDBRANCH  10  96
TORSDOF 26
ENDMDL
MODEL 6
REMARK VINA RESULT:      -8.1      2.374      6.682
REMARK  26 active torsions:
REMARK  status: ('A' for Active; 'I' for Inactive)
REMARK    1  A    between atoms: C_1  and  C_7 
REMARK    2  A    between atoms: C_4  and  O_9 
REMARK    3  A    between atoms: C_5  and  O_11 
REMARK    4  A    between atoms: C_6  and  O_10 
REMARK    5  A    between atoms: C_12  and  C_18 
REMARK    6  A    between atoms: C_15  and  O_76 
REMARK    7  A    between atoms: C_18  and  O_74 
REMARK    8  A    between atoms: C_21  and  O_25 
REMARK    9  A    between atoms: C_23  and  O_26 
REMARK   10  A    between atoms: C_30  and  O_35 
REMARK   11  A    between atoms: C_32  and  O_36 
REMARK   12  A    between atoms: O_36  and  C_67 
REMARK   13  A    between atoms: C_39  and  O_60 
REMARK   14  A    between atoms: C_41  and  O_58 
REMARK   15  A    between atoms: C_42  and  C_45 
REMARK   16  A    between atoms: C_43  and  O_59 
REMARK   17  A    between atoms: C_45  and  O_53 
REMARK   18  A    between atoms: C_47  and  O_53 
REMARK   19  A    between atoms: C_50  and  O_55 
REMARK   20  A    between atoms: C_51  and  C_54 
REMARK   21  A    between atoms: C_54  and  O_74 
REMARK   22  A    between atoms: C_64  and  O_69 
REMARK   23  A    between atoms: C_65  and  C_72 
REMARK   24  A    between atoms: C_66  and  O_70 
REMARK   25  A    between atoms: C_68  and  O_71 
REMARK   26  A    between atoms: C_72  and  O_73 
ROOT
HETATM    1  C   UNK     0       2.838  -1.541 -29.446  0.00  0.00     0.026 A 
HETATM    2  C   UNK     0       1.694  -0.748 -29.249  0.00  0.00     0.006 A 
HETATM    3  C   UNK     0       3.261  -2.011 -30.675  0.00  0.00     0.111 A 
HETATM    4  C   UNK     0       0.937  -0.532 -30.438  0.00  0.00     0.054 A 
HETATM    5  C   UNK     0       2.535  -1.730 -31.802  0.00  0.00     0.100 A 
HETATM    6  C   UNK     0       1.373  -1.010 -31.666  0.00  0.00     0.058 A 
HETATM    7  O   UNK     0       3.588  -1.904 -28.377  0.00  0.00     0.000 OA
HETATM    8  C   UNK     0       2.787  -0.495 -27.061  0.00  0.00     0.026 A 
HETATM    9  C   UNK     0       1.548  -0.329 -27.686  0.00  0.00     0.006 A 
HETATM   10  C   UNK     0       2.989  -0.374 -25.711  0.00  0.00     0.111 A 
HETATM   11  C   UNK     0       0.496   0.123 -26.816  0.00  0.00     0.054 A 
HETATM   12  C   UNK     0       1.962  -0.042 -24.877  0.00  0.00     0.111 A 
HETATM   13  C   UNK     0       0.725   0.235 -25.435  0.00  0.00     0.058 A 
HETATM   14  C   UNK     0      -0.899   0.507 -27.165  0.00  0.00     0.294 C 
HETATM   15  O   UNK     0       3.875  -0.799 -27.806  0.00  0.00     0.000 OA
HETATM   16  O   UNK     0      -1.657  -0.333 -27.592  0.00  0.00    -0.259 OA
HETATM   17  C   UNK     0      -2.421   3.611 -28.385  0.00  0.00     0.302 C 
HETATM   18  C   UNK     0      -1.908   2.195 -28.265  0.00  0.00     0.219 C 
HETATM   19  O   UNK     0      -2.760   3.865 -29.803  0.00  0.00    -0.348 OA
HETATM   20  C   UNK     0      -0.904   2.099 -29.222  0.00  0.00     0.184 C 
HETATM   21  C   UNK     0      -2.211   3.102 -30.953  0.00  0.00     0.181 C 
HETATM   22  C   UNK     0      -1.561   1.803 -30.454  0.00  0.00     0.194 C 
HETATM   23  O   UNK     0      -0.592   1.256 -31.316  0.00  0.00    -0.307 OA
HETATM   24  O   UNK     0      -1.351   1.831 -27.017  0.00  0.00    -0.304 OA
HETATM   25  C   UNK     0      -0.344   0.114 -30.572  0.00  0.00     0.294 C 
HETATM   26  O   UNK     0      -1.272  -0.361 -29.962  0.00  0.00    -0.259 OA
HETATM   27  H   UNK     0       4.405  -2.485 -28.508  0.00  0.00     0.000 HD
HETATM   28  H   UNK     0       4.775  -0.924 -27.361  0.00  0.00     0.000 HD
ENDROOT
BRANCH  21  29
HETATM   29  C   UNK     0      -3.354   2.729 -31.930  0.00  0.00     0.213 C 
BRANCH  29  30
HETATM   30  O   UNK     0      -3.001   2.497 -33.293  0.00  0.00    -0.315 OA
BRANCH  30  31
HETATM   31  C   UNK     0      -3.962   2.115 -34.185  0.00  0.00     0.293 C 
HETATM   32  O   UNK     0      -4.637   2.964 -34.720  0.00  0.00    -0.259 OA
BRANCH  31  33
HETATM   33  C   UNK     0      -4.182   0.689 -34.549  0.00  0.00     0.044 A 
HETATM   34  C   UNK     0      -3.072  -0.130 -34.675  0.00  0.00     0.055 A 
HETATM   35  C   UNK     0      -3.218  -1.460 -35.028  0.00  0.00     0.080 A 
HETATM   36  C   UNK     0      -4.479  -1.979 -35.253  0.00  0.00     0.047 A 
HETATM   37  C   UNK     0      -5.605  -1.174 -35.131  0.00  0.00     0.091 A 
HETATM   38  O   UNK     0      -4.613  -3.288 -35.600  0.00  0.00     0.000 OA
HETATM   39  C   UNK     0      -5.452   0.166 -34.778  0.00  0.00     0.056 A 
HETATM   40  O   UNK     0      -6.852  -1.705 -35.364  0.00  0.00    -0.306 OA
HETATM   41  C   UNK     0      -6.988  -3.018 -35.734  0.00  0.00     0.121 A 
HETATM   42  O   UNK     0      -5.995  -3.692 -35.881  0.00  0.00     0.000 OA
HETATM   43  H   UNK     0      -5.533  -3.675 -35.768  0.00  0.00     0.000 HD
BRANCH  35  44
HETATM   44  O   UNK     0      -2.124  -2.258 -35.158  0.00  0.00    -0.360 OA
HETATM   45  H   UNK     0      -1.868  -2.621 -36.068  0.00  0.00     0.217 HD
ENDBRANCH  35  44
BRANCH  41  46
HETATM   46  C   UNK     0      -8.303  -3.649 -35.954  0.00  0.00     0.006 A 
HETATM   47  C   UNK     0      -9.389  -2.843 -36.261  0.00  0.00     0.054 A 
HETATM   48  C   UNK     0     -10.636  -3.405 -36.486  0.00  0.00     0.102 A 
HETATM   49  C   UNK     0     -10.797  -4.778 -36.403  0.00  0.00     0.132 A 
HETATM   50  C   UNK     0      -9.714  -5.588 -36.093  0.00  0.00     0.102 A 
HETATM   51  C   UNK     0      -8.465  -5.024 -35.871  0.00  0.00     0.054 A 
BRANCH  48  52
HETATM   52  O   UNK     0     -11.697  -2.612 -36.790  0.00  0.00    -0.358 OA
HETATM   53  H   UNK     0     -12.621  -2.850 -36.453  0.00  0.00     0.217 HD
ENDBRANCH  48  52
BRANCH  49  54
HETATM   54  O   UNK     0     -12.020  -5.331 -36.626  0.00  0.00    -0.356 OA
HETATM   55  H   UNK     0     -12.798  -5.101 -36.021  0.00  0.00     0.218 HD
ENDBRANCH  49  54
BRANCH  50  56
HETATM   56  O   UNK     0      -9.876  -6.936 -36.010  0.00  0.00    -0.358 OA
HETATM   57  H   UNK     0     -10.171  -7.462 -36.822  0.00  0.00     0.217 HD
ENDBRANCH  50  56
ENDBRANCH  41  46
ENDBRANCH  31  33
ENDBRANCH  30  31
ENDBRANCH  29  30
ENDBRANCH  21  29
BRANCH  17  58
HETATM   58  O   UNK     0      -3.569   3.781 -27.573  0.00  0.00    -0.283 OA
BRANCH  58  59
HETATM   59  C   UNK     0      -3.450   3.952 -26.230  0.00  0.00     0.295 C 
HETATM   60  O   UNK     0      -2.685   4.778 -25.785  0.00  0.00    -0.259 OA
BRANCH  59  61
HETATM   61  C   UNK     0      -4.253   3.120 -25.322  0.00  0.00     0.045 A 
HETATM   62  C   UNK     0      -5.254   3.702 -24.562  0.00  0.00     0.057 A 
HETATM   63  C   UNK     0      -6.020   2.923 -23.708  0.00  0.00     0.102 A 
HETATM   64  C   UNK     0      -5.780   1.562 -23.613  0.00  0.00     0.132 A 
HETATM   65  C   UNK     0      -4.778   0.979 -24.374  0.00  0.00     0.102 A 
HETATM   66  C   UNK     0      -4.015   1.758 -25.231  0.00  0.00     0.057 A 
BRANCH  63  67
HETATM   67  O   UNK     0      -7.005   3.496 -22.966  0.00  0.00    -0.358 OA
HETATM   68  H   UNK     0      -7.866   2.993 -22.795  0.00  0.00     0.217 HD
ENDBRANCH  63  67
BRANCH  64  69
HETATM   69  O   UNK     0      -6.527   0.797 -22.771  0.00  0.00    -0.356 OA
HETATM   70  H   UNK     0      -6.075   0.129 -22.159  0.00  0.00     0.218 HD
ENDBRANCH  64  69
BRANCH  65  71
HETATM   71  O   UNK     0      -4.546  -0.356 -24.282  0.00  0.00    -0.358 OA
HETATM   72  H   UNK     0      -4.605  -0.939 -25.106  0.00  0.00     0.217 HD
ENDBRANCH  65  71
ENDBRANCH  59  61
ENDBRANCH  58  59
ENDBRANCH  17  58
BRANCH  20  73
HETATM   73  O   UNK     0       0.010   1.066 -28.884  0.00  0.00    -0.390 OA
HETATM   74  H   UNK     0      -0.318   0.114 -28.781  0.00  0.00     0.210 HD
ENDBRANCH  20  73
BRANCH   5  75
HETATM   75  O   UNK     0       2.944  -2.172 -33.021  0.00  0.00    -0.358 OA
HETATM   76  H   UNK     0       2.471  -1.857 -33.858  0.00  0.00     0.217 HD
ENDBRANCH   5  75
BRANCH   3  77
HETATM   77  O   UNK     0       4.396  -2.754 -30.766  0.00  0.00    -0.357 OA
HETATM   78  H   UNK     0       4.336  -3.757 -30.882  0.00  0.00     0.217 HD
ENDBRANCH   3  77
BRANCH  12  79
HETATM   79  O   UNK     0       2.320  -0.043 -23.555  0.00  0.00    -0.304 OA
BRANCH  79  80
HETATM   80  C   UNK     0       1.968   0.287 -22.277  0.00  0.00     0.129 A 
HETATM   81  C   UNK     0       1.919  -0.584 -21.196  0.00  0.00     0.077 A 
HETATM   82  C   UNK     0       1.507  -0.114 -19.955  0.00  0.00     0.060 A 
HETATM   83  C   UNK     0       1.148   1.215 -19.785  0.00  0.00     0.102 A 
HETATM   84  C   UNK     0       1.208   2.084 -20.860  0.00  0.00     0.135 A 
HETATM   85  C   UNK     0       1.618   1.618 -22.094  0.00  0.00     0.137 A 
BRANCH  81  86
HETATM   86  C   UNK     0       2.295  -1.993 -21.333  0.00  0.00     0.179 C 
HETATM   87  O   UNK     0       3.460  -2.311 -21.393  0.00  0.00    -0.646 OA
BRANCH  86  88
HETATM   88  O   UNK     0       1.321  -2.943 -21.395  0.00  0.00    -0.773 OA
HETATM   89  H   UNK     0       1.354  -3.653 -22.114  0.00  0.00     0.167 HD
ENDBRANCH  86  88
ENDBRANCH  81  86
BRANCH  83  90
HETATM   90  O   UNK     0       0.740   1.668 -18.569  0.00  0.00    -0.358 OA
HETATM   91  H   UNK     0       1.216   2.448 -18.136  0.00  0.00     0.217 HD
ENDBRANCH  83  90
BRANCH  84  92
HETATM   92  O   UNK     0       0.863   3.392 -20.707  0.00  0.00    -0.356 OA
HETATM   93  H   UNK     0       1.399   4.113 -21.173  0.00  0.00     0.218 HD
ENDBRANCH  84  92
BRANCH  85  94
HETATM   94  O   UNK     0       1.676   2.475 -23.148  0.00  0.00    -0.356 OA
HETATM   95  H   UNK     0       1.354   2.178 -24.061  0.00  0.00     0.218 HD
ENDBRANCH  85  94
ENDBRANCH  79  80
ENDBRANCH  12  79
BRANCH  10  96
HETATM   96  O   UNK     0       4.223  -0.604 -25.190  0.00  0.00    -0.357 OA
HETATM   97  H   UNK     0       4.825   0.174 -24.949  0.00  0.00     0.217 HD
ENDBRANCH  10  96
TORSDOF 26
ENDMDL
MODEL 7
REMARK VINA RESULT:      -8.0      4.316     14.696
REMARK  26 active torsions:
REMARK  status: ('A' for Active; 'I' for Inactive)
REMARK    1  A    between atoms: C_1  and  C_7 
REMARK    2  A    between atoms: C_4  and  O_9 
REMARK    3  A    between atoms: C_5  and  O_11 
REMARK    4  A    between atoms: C_6  and  O_10 
REMARK    5  A    between atoms: C_12  and  C_18 
REMARK    6  A    between atoms: C_15  and  O_76 
REMARK    7  A    between atoms: C_18  and  O_74 
REMARK    8  A    between atoms: C_21  and  O_25 
REMARK    9  A    between atoms: C_23  and  O_26 
REMARK   10  A    between atoms: C_30  and  O_35 
REMARK   11  A    between atoms: C_32  and  O_36 
REMARK   12  A    between atoms: O_36  and  C_67 
REMARK   13  A    between atoms: C_39  and  O_60 
REMARK   14  A    between atoms: C_41  and  O_58 
REMARK   15  A    between atoms: C_42  and  C_45 
REMARK   16  A    between atoms: C_43  and  O_59 
REMARK   17  A    between atoms: C_45  and  O_53 
REMARK   18  A    between atoms: C_47  and  O_53 
REMARK   19  A    between atoms: C_50  and  O_55 
REMARK   20  A    between atoms: C_51  and  C_54 
REMARK   21  A    between atoms: C_54  and  O_74 
REMARK   22  A    between atoms: C_64  and  O_69 
REMARK   23  A    between atoms: C_65  and  C_72 
REMARK   24  A    between atoms: C_66  and  O_70 
REMARK   25  A    between atoms: C_68  and  O_71 
REMARK   26  A    between atoms: C_72  and  O_73 
ROOT
HETATM    1  C   UNK     0       1.121  -1.421 -31.232  0.00  0.00     0.026 A 
HETATM    2  C   UNK     0       0.299  -0.839 -30.251  0.00  0.00     0.006 A 
HETATM    3  C   UNK     0       2.374  -1.949 -30.988  0.00  0.00     0.111 A 
HETATM    4  C   UNK     0       0.913  -0.757 -28.967  0.00  0.00     0.054 A 
HETATM    5  C   UNK     0       2.903  -1.903 -29.725  0.00  0.00     0.100 A 
HETATM    6  C   UNK     0       2.173  -1.291 -28.735  0.00  0.00     0.058 A 
HETATM    7  O   UNK     0       0.693  -1.466 -32.517  0.00  0.00     0.000 OA
HETATM    8  C   UNK     0      -1.314  -1.075 -32.092  0.00  0.00     0.026 A 
HETATM    9  C   UNK     0      -1.127  -0.390 -30.889  0.00  0.00     0.006 A 
HETATM   10  C   UNK     0      -2.341  -0.828 -32.965  0.00  0.00     0.111 A 
HETATM   11  C   UNK     0      -2.185   0.522 -30.549  0.00  0.00     0.054 A 
HETATM   12  C   UNK     0      -3.288   0.112 -32.683  0.00  0.00     0.111 A 
HETATM   13  C   UNK     0      -3.225   0.764 -31.463  0.00  0.00     0.058 A 
HETATM   14  C   UNK     0      -2.364   1.319 -29.304  0.00  0.00     0.294 C 
HETATM   15  O   UNK     0      -0.442  -2.047 -32.450  0.00  0.00     0.000 OA
HETATM   16  O   UNK     0      -1.571   2.192 -29.039  0.00  0.00    -0.259 OA
HETATM   17  C   UNK     0      -3.803   0.559 -26.020  0.00  0.00     0.302 C 
HETATM   18  C   UNK     0      -2.855   0.899 -27.146  0.00  0.00     0.219 C 
HETATM   19  O   UNK     0      -3.001   0.210 -24.826  0.00  0.00    -0.348 OA
HETATM   20  C   UNK     0      -1.985  -0.183 -27.216  0.00  0.00     0.184 C 
HETATM   21  C   UNK     0      -1.588  -0.244 -24.860  0.00  0.00     0.181 C 
HETATM   22  C   UNK     0      -0.976   0.059 -26.236  0.00  0.00     0.194 C 
HETATM   23  O   UNK     0       0.132  -0.737 -26.580  0.00  0.00    -0.307 OA
HETATM   24  O   UNK     0      -3.434   1.070 -28.425  0.00  0.00    -0.304 OA
HETATM   25  C   UNK     0       0.413  -0.107 -27.782  0.00  0.00     0.294 C 
HETATM   26  O   UNK     0       0.193   1.079 -27.849  0.00  0.00    -0.259 OA
HETATM   27  H   UNK     0       1.282  -1.871 -33.232  0.00  0.00     0.000 HD
HETATM   28  H   UNK     0      -0.568  -2.545 -33.321  0.00  0.00     0.000 HD
ENDROOT
BRANCH  21  29
HETATM   29  C   UNK     0      -0.767   0.512 -23.786  0.00  0.00     0.213 C 
BRANCH  29  30
HETATM   30  O   UNK     0       0.539   0.015 -23.490  0.00  0.00    -0.315 OA
BRANCH  30  31
HETATM   31  C   UNK     0       0.700  -0.922 -22.510  0.00  0.00     0.293 C 
HETATM   32  O   UNK     0       0.026  -1.925 -22.542  0.00  0.00    -0.259 OA
BRANCH  31  33
HETATM   33  C   UNK     0       1.704  -0.766 -21.424  0.00  0.00     0.044 A 
HETATM   34  C   UNK     0       2.718  -1.706 -21.334  0.00  0.00     0.055 A 
HETATM   35  C   UNK     0       3.669  -1.618 -20.333  0.00  0.00     0.080 A 
HETATM   36  C   UNK     0       3.612  -0.586 -19.415  0.00  0.00     0.047 A 
HETATM   37  C   UNK     0       2.603   0.367 -19.489  0.00  0.00     0.091 A 
HETATM   38  O   UNK     0       4.551  -0.508 -18.435  0.00  0.00     0.000 OA
HETATM   39  C   UNK     0       1.646   0.273 -20.498  0.00  0.00     0.056 A 
HETATM   40  O   UNK     0       2.557   1.384 -18.564  0.00  0.00    -0.306 OA
HETATM   41  C   UNK     0       3.490   1.453 -17.562  0.00  0.00     0.121 A 
HETATM   42  O   UNK     0       4.333   0.590 -17.486  0.00  0.00     0.000 OA
HETATM   43  H   UNK     0       4.515   0.244 -17.758  0.00  0.00     0.000 HD
BRANCH  35  44
HETATM   44  O   UNK     0       4.658  -2.548 -20.246  0.00  0.00    -0.360 OA
HETATM   45  H   UNK     0       4.479  -3.437 -19.795  0.00  0.00     0.217 HD
ENDBRANCH  35  44
BRANCH  41  46
HETATM   46  C   UNK     0       3.513   2.546 -16.572  0.00  0.00     0.006 A 
HETATM   47  C   UNK     0       3.163   2.267 -15.259  0.00  0.00     0.054 A 
HETATM   48  C   UNK     0       3.187   3.269 -14.301  0.00  0.00     0.102 A 
HETATM   49  C   UNK     0       3.561   4.554 -14.658  0.00  0.00     0.132 A 
HETATM   50  C   UNK     0       3.907   4.837 -15.971  0.00  0.00     0.102 A 
HETATM   51  C   UNK     0       3.886   3.833 -16.929  0.00  0.00     0.054 A 
BRANCH  48  52
HETATM   52  O   UNK     0       2.847   2.990 -13.015  0.00  0.00    -0.358 OA
HETATM   53  H   UNK     0       2.116   3.520 -12.559  0.00  0.00     0.217 HD
ENDBRANCH  48  52
BRANCH  49  54
HETATM   54  O   UNK     0       3.586   5.537 -13.718  0.00  0.00    -0.356 OA
HETATM   55  H   UNK     0       4.102   6.390 -13.892  0.00  0.00     0.218 HD
ENDBRANCH  49  54
BRANCH  50  56
HETATM   56  O   UNK     0       4.271   6.102 -16.319  0.00  0.00    -0.358 OA
HETATM   57  H   UNK     0       5.138   6.261 -16.816  0.00  0.00     0.217 HD
ENDBRANCH  50  56
ENDBRANCH  41  46
ENDBRANCH  31  33
ENDBRANCH  30  31
ENDBRANCH  29  30
ENDBRANCH  21  29
BRANCH  17  58
HETATM   58  O   UNK     0      -4.638   1.668 -25.738  0.00  0.00    -0.283 OA
BRANCH  58  59
HETATM   59  C   UNK     0      -4.526   2.337 -24.560  0.00  0.00     0.295 C 
HETATM   60  O   UNK     0      -3.490   2.890 -24.267  0.00  0.00    -0.259 OA
BRANCH  59  61
HETATM   61  C   UNK     0      -5.674   2.379 -23.642  0.00  0.00     0.045 A 
HETATM   62  C   UNK     0      -6.248   1.196 -23.205  0.00  0.00     0.057 A 
HETATM   63  C   UNK     0      -7.326   1.226 -22.334  0.00  0.00     0.102 A 
HETATM   64  C   UNK     0      -7.831   2.442 -21.903  0.00  0.00     0.132 A 
HETATM   65  C   UNK     0      -7.256   3.626 -22.339  0.00  0.00     0.102 A 
HETATM   66  C   UNK     0      -6.175   3.595 -23.208  0.00  0.00     0.057 A 
BRANCH  63  67
HETATM   67  O   UNK     0      -7.885   0.064 -21.903  0.00  0.00    -0.358 OA
HETATM   68  H   UNK     0      -7.552  -0.821 -22.262  0.00  0.00     0.217 HD
ENDBRANCH  63  67
BRANCH  64  69
HETATM   69  O   UNK     0      -8.893   2.475 -21.052  0.00  0.00    -0.356 OA
HETATM   70  H   UNK     0      -9.128   1.656 -20.505  0.00  0.00     0.218 HD
ENDBRANCH  64  69
BRANCH  65  71
HETATM   71  O   UNK     0      -7.751   4.818 -21.914  0.00  0.00    -0.358 OA
HETATM   72  H   UNK     0      -7.694   5.071 -20.936  0.00  0.00     0.217 HD
ENDBRANCH  65  71
ENDBRANCH  59  61
ENDBRANCH  58  59
ENDBRANCH  17  58
BRANCH  20  73
HETATM   73  O   UNK     0      -1.409  -0.278 -28.510  0.00  0.00    -0.390 OA
HETATM   74  H   UNK     0      -0.424  -0.490 -28.612  0.00  0.00     0.210 HD
ENDBRANCH  20  73
BRANCH   5  75
HETATM   75  O   UNK     0       4.129  -2.430 -29.465  0.00  0.00    -0.358 OA
HETATM   76  H   UNK     0       4.655  -2.114 -28.661  0.00  0.00     0.217 HD
ENDBRANCH   5  75
BRANCH   3  77
HETATM   77  O   UNK     0       3.084  -2.512 -32.001  0.00  0.00    -0.357 OA
HETATM   78  H   UNK     0       2.651  -2.656 -32.904  0.00  0.00     0.217 HD
ENDBRANCH   3  77
BRANCH  12  79
HETATM   79  O   UNK     0      -4.192   0.286 -33.697  0.00  0.00    -0.304 OA
BRANCH  79  80
HETATM   80  C   UNK     0      -4.717   1.142 -34.624  0.00  0.00     0.129 A 
HETATM   81  C   UNK     0      -4.899   0.868 -35.973  0.00  0.00     0.077 A 
HETATM   82  C   UNK     0      -5.414   1.852 -36.808  0.00  0.00     0.060 A 
HETATM   83  C   UNK     0      -5.751   3.101 -36.308  0.00  0.00     0.102 A 
HETATM   84  C   UNK     0      -5.580   3.369 -34.961  0.00  0.00     0.135 A 
HETATM   85  C   UNK     0      -5.068   2.391 -34.130  0.00  0.00     0.137 A 
BRANCH  81  86
HETATM   86  C   UNK     0      -4.560  -0.439 -36.540  0.00  0.00     0.179 C 
HETATM   87  O   UNK     0      -5.433  -1.232 -36.807  0.00  0.00    -0.646 OA
BRANCH  86  88
HETATM   88  O   UNK     0      -3.255  -0.756 -36.760  0.00  0.00    -0.773 OA
HETATM   89  H   UNK     0      -2.995  -1.282 -37.585  0.00  0.00     0.167 HD
ENDBRANCH  86  88
ENDBRANCH  81  86
BRANCH  83  90
HETATM   90  O   UNK     0      -6.249   4.062 -37.132  0.00  0.00    -0.358 OA
HETATM   91  H   UNK     0      -6.537   4.953 -36.751  0.00  0.00     0.217 HD
ENDBRANCH  83  90
BRANCH  84  92
HETATM   92  O   UNK     0      -5.911   4.588 -34.455  0.00  0.00    -0.356 OA
HETATM   93  H   UNK     0      -6.073   5.367 -35.080  0.00  0.00     0.218 HD
ENDBRANCH  84  92
BRANCH  85  94
HETATM   94  O   UNK     0      -4.902   2.658 -32.806  0.00  0.00    -0.356 OA
HETATM   95  H   UNK     0      -4.412   1.998 -32.214  0.00  0.00     0.218 HD
ENDBRANCH  85  94
ENDBRANCH  79  80
ENDBRANCH  12  79
BRANCH  10  96
HETATM   96  O   UNK     0      -2.410  -1.514 -34.137  0.00  0.00    -0.357 OA
HETATM   97  H   UNK     0      -2.415  -2.526 -34.132  0.00  0.00     0.217 HD
ENDBRANCH  10  96
TORSDOF 26
ENDMDL
MODEL 8
REMARK VINA RESULT:      -7.9      2.493      6.247
REMARK  26 active torsions:
REMARK  status: ('A' for Active; 'I' for Inactive)
REMARK    1  A    between atoms: C_1  and  C_7 
REMARK    2  A    between atoms: C_4  and  O_9 
REMARK    3  A    between atoms: C_5  and  O_11 
REMARK    4  A    between atoms: C_6  and  O_10 
REMARK    5  A    between atoms: C_12  and  C_18 
REMARK    6  A    between atoms: C_15  and  O_76 
REMARK    7  A    between atoms: C_18  and  O_74 
REMARK    8  A    between atoms: C_21  and  O_25 
REMARK    9  A    between atoms: C_23  and  O_26 
REMARK   10  A    between atoms: C_30  and  O_35 
REMARK   11  A    between atoms: C_32  and  O_36 
REMARK   12  A    between atoms: O_36  and  C_67 
REMARK   13  A    between atoms: C_39  and  O_60 
REMARK   14  A    between atoms: C_41  and  O_58 
REMARK   15  A    between atoms: C_42  and  C_45 
REMARK   16  A    between atoms: C_43  and  O_59 
REMARK   17  A    between atoms: C_45  and  O_53 
REMARK   18  A    between atoms: C_47  and  O_53 
REMARK   19  A    between atoms: C_50  and  O_55 
REMARK   20  A    between atoms: C_51  and  C_54 
REMARK   21  A    between atoms: C_54  and  O_74 
REMARK   22  A    between atoms: C_64  and  O_69 
REMARK   23  A    between atoms: C_65  and  C_72 
REMARK   24  A    between atoms: C_66  and  O_70 
REMARK   25  A    between atoms: C_68  and  O_71 
REMARK   26  A    between atoms: C_72  and  O_73 
ROOT
HETATM    1  C   UNK     0       1.024  -0.288 -27.034  0.00  0.00     0.026 A 
HETATM    2  C   UNK     0       0.432   0.601 -27.948  0.00  0.00     0.006 A 
HETATM    3  C   UNK     0       2.314  -0.772 -27.138  0.00  0.00     0.111 A 
HETATM    4  C   UNK     0       1.261   0.906 -29.067  0.00  0.00     0.054 A 
HETATM    5  C   UNK     0       3.099  -0.407 -28.200  0.00  0.00     0.100 A 
HETATM    6  C   UNK     0       2.555   0.413 -29.160  0.00  0.00     0.058 A 
HETATM    7  O   UNK     0       0.301  -0.736 -25.979  0.00  0.00     0.000 OA
HETATM    8  C   UNK     0      -1.195   0.716 -26.107  0.00  0.00     0.026 A 
HETATM    9  C   UNK     0      -1.067   1.004 -27.469  0.00  0.00     0.006 A 
HETATM   10  C   UNK     0      -2.372   0.795 -25.412  0.00  0.00     0.111 A 
HETATM   11  C   UNK     0      -2.256   1.534 -28.080  0.00  0.00     0.054 A 
HETATM   12  C   UNK     0      -3.521   1.203 -26.024  0.00  0.00     0.111 A 
HETATM   13  C   UNK     0      -3.453   1.600 -27.350  0.00  0.00     0.058 A 
HETATM   14  C   UNK     0      -2.439   2.048 -29.465  0.00  0.00     0.294 C 
HETATM   15  O   UNK     0      -0.105   0.328 -25.403  0.00  0.00     0.000 OA
HETATM   16  O   UNK     0      -2.337   1.288 -30.400  0.00  0.00    -0.259 OA
HETATM   17  C   UNK     0      -1.815   5.298 -31.042  0.00  0.00     0.302 C 
HETATM   18  C   UNK     0      -1.761   3.839 -30.652  0.00  0.00     0.219 C 
HETATM   19  O   UNK     0      -0.618   5.606 -31.856  0.00  0.00    -0.348 OA
HETATM   20  C   UNK     0      -0.503   3.670 -30.084  0.00  0.00     0.184 C 
HETATM   21  C   UNK     0       0.640   4.818 -31.841  0.00  0.00     0.181 C 
HETATM   22  C   UNK     0       0.395   3.457 -31.173  0.00  0.00     0.194 C 
HETATM   23  O   UNK     0       1.544   2.840 -30.644  0.00  0.00    -0.307 OA
HETATM   24  O   UNK     0      -2.721   3.405 -29.709  0.00  0.00    -0.304 OA
HETATM   25  C   UNK     0       0.924   1.667 -30.243  0.00  0.00     0.294 C 
HETATM   26  O   UNK     0       0.008   1.267 -30.920  0.00  0.00    -0.259 OA
HETATM   27  H   UNK     0       0.714  -1.386 -25.323  0.00  0.00     0.000 HD
HETATM   28  H   UNK     0      -0.189   0.114 -24.417  0.00  0.00     0.000 HD
ENDROOT
BRANCH  21  29
HETATM   29  C   UNK     0       1.120   4.567 -33.293  0.00  0.00     0.213 C 
BRANCH  29  30
HETATM   30  O   UNK     0       1.040   3.229 -33.787  0.00  0.00    -0.315 OA
BRANCH  30  31
HETATM   31  C   UNK     0       0.025   2.880 -34.629  0.00  0.00     0.293 C 
HETATM   32  O   UNK     0      -0.540   3.745 -35.259  0.00  0.00    -0.259 OA
BRANCH  31  33
HETATM   33  C   UNK     0      -0.388   1.465 -34.827  0.00  0.00     0.044 A 
HETATM   34  C   UNK     0       0.594   0.488 -34.786  0.00  0.00     0.055 A 
HETATM   35  C   UNK     0       0.268  -0.843 -34.980  0.00  0.00     0.080 A 
HETATM   36  C   UNK     0      -1.046  -1.204 -35.214  0.00  0.00     0.047 A 
HETATM   37  C   UNK     0      -2.045  -0.240 -35.258  0.00  0.00     0.091 A 
HETATM   38  O   UNK     0      -1.356  -2.515 -35.404  0.00  0.00     0.000 OA
HETATM   39  C   UNK     0      -1.711   1.100 -35.065  0.00  0.00     0.056 A 
HETATM   40  O   UNK     0      -3.346  -0.616 -35.498  0.00  0.00    -0.306 OA
HETATM   41  C   UNK     0      -3.659  -1.933 -35.711  0.00  0.00     0.121 A 
HETATM   42  O   UNK     0      -2.771  -2.754 -35.715  0.00  0.00     0.000 OA
HETATM   43  H   UNK     0      -2.316  -2.787 -35.578  0.00  0.00     0.000 HD
BRANCH  35  44
HETATM   44  O   UNK     0       1.237  -1.797 -34.946  0.00  0.00    -0.360 OA
HETATM   45  H   UNK     0       2.046  -1.675 -34.349  0.00  0.00     0.217 HD
ENDBRANCH  35  44
BRANCH  41  46
HETATM   46  C   UNK     0      -5.042  -2.396 -35.929  0.00  0.00     0.006 A 
HETATM   47  C   UNK     0      -6.090  -1.538 -35.629  0.00  0.00     0.054 A 
HETATM   48  C   UNK     0      -7.401  -1.937 -35.834  0.00  0.00     0.102 A 
HETATM   49  C   UNK     0      -7.666  -3.199 -36.340  0.00  0.00     0.132 A 
HETATM   50  C   UNK     0      -6.621  -4.062 -36.638  0.00  0.00     0.102 A 
HETATM   51  C   UNK     0      -5.307  -3.660 -36.434  0.00  0.00     0.054 A 
BRANCH  48  52
HETATM   52  O   UNK     0      -8.424  -1.092 -35.542  0.00  0.00    -0.358 OA
HETATM   53  H   UNK     0      -9.382  -1.385 -35.691  0.00  0.00     0.217 HD
ENDBRANCH  48  52
BRANCH  49  54
HETATM   54  O   UNK     0      -8.952  -3.590 -36.544  0.00  0.00    -0.356 OA
HETATM   55  H   UNK     0      -9.714  -2.963 -36.319  0.00  0.00     0.218 HD
ENDBRANCH  49  54
BRANCH  50  56
HETATM   56  O   UNK     0      -6.884  -5.302 -37.132  0.00  0.00    -0.358 OA
HETATM   57  H   UNK     0      -6.561  -6.123 -36.637  0.00  0.00     0.217 HD
ENDBRANCH  50  56
ENDBRANCH  41  46
ENDBRANCH  31  33
ENDBRANCH  30  31
ENDBRANCH  29  30
ENDBRANCH  21  29
BRANCH  17  58
HETATM   58  O   UNK     0      -2.990   5.556 -31.790  0.00  0.00    -0.283 OA
BRANCH  58  59
HETATM   59  C   UNK     0      -2.956   5.582 -33.148  0.00  0.00     0.295 C 
HETATM   60  O   UNK     0      -2.231   6.360 -33.726  0.00  0.00    -0.259 OA
BRANCH  59  61
HETATM   61  C   UNK     0      -3.810   4.660 -33.910  0.00  0.00     0.045 A 
HETATM   62  C   UNK     0      -4.383   5.078 -35.101  0.00  0.00     0.057 A 
HETATM   63  C   UNK     0      -5.184   4.212 -35.828  0.00  0.00     0.102 A 
HETATM   64  C   UNK     0      -5.416   2.928 -35.361  0.00  0.00     0.132 A 
HETATM   65  C   UNK     0      -4.843   2.510 -34.169  0.00  0.00     0.102 A 
HETATM   66  C   UNK     0      -4.038   3.375 -33.444  0.00  0.00     0.057 A 
BRANCH  63  67
HETATM   67  O   UNK     0      -5.741   4.622 -36.999  0.00  0.00    -0.358 OA
HETATM   68  H   UNK     0      -5.643   5.585 -37.295  0.00  0.00     0.217 HD
ENDBRANCH  63  67
BRANCH  64  69
HETATM   69  O   UNK     0      -6.207   2.078 -36.070  0.00  0.00    -0.356 OA
HETATM   70  H   UNK     0      -7.183   2.302 -36.221  0.00  0.00     0.218 HD
ENDBRANCH  64  69
BRANCH  65  71
HETATM   71  O   UNK     0      -5.070   1.250 -33.713  0.00  0.00    -0.358 OA
HETATM   72  H   UNK     0      -4.307   0.589 -33.650  0.00  0.00     0.217 HD
ENDBRANCH  65  71
ENDBRANCH  59  61
ENDBRANCH  58  59
ENDBRANCH  17  58
BRANCH  20  73
HETATM   73  O   UNK     0      -0.497   2.553 -29.208  0.00  0.00    -0.390 OA
HETATM   74  H   UNK     0      -0.186   1.650 -29.541  0.00  0.00     0.210 HD
ENDBRANCH  20  73
BRANCH   5  75
HETATM   75  O   UNK     0       4.375  -0.862 -28.311  0.00  0.00    -0.358 OA
HETATM   76  H   UNK     0       5.151  -0.230 -28.167  0.00  0.00     0.217 HD
ENDBRANCH   5  75
BRANCH   3  77
HETATM   77  O   UNK     0       2.804  -1.612 -26.189  0.00  0.00    -0.357 OA
HETATM   78  H   UNK     0       2.273  -2.427 -25.911  0.00  0.00     0.217 HD
ENDBRANCH   3  77
BRANCH  12  79
HETATM   79  O   UNK     0      -4.617   1.146 -25.205  0.00  0.00    -0.304 OA
BRANCH  79  80
HETATM   80  C   UNK     0      -5.411   1.810 -24.314  0.00  0.00     0.129 A 
HETATM   81  C   UNK     0      -5.494   3.189 -24.169  0.00  0.00     0.077 A 
HETATM   82  C   UNK     0      -6.323   3.726 -23.192  0.00  0.00     0.060 A 
HETATM   83  C   UNK     0      -7.070   2.901 -22.364  0.00  0.00     0.102 A 
HETATM   84  C   UNK     0      -6.995   1.528 -22.517  0.00  0.00     0.135 A 
HETATM   85  C   UNK     0      -6.171   0.992 -23.488  0.00  0.00     0.137 A 
BRANCH  81  86
HETATM   86  C   UNK     0      -4.726   4.095 -25.026  0.00  0.00     0.179 C 
HETATM   87  O   UNK     0      -3.599   4.411 -24.723  0.00  0.00    -0.646 OA
BRANCH  86  88
HETATM   88  O   UNK     0      -5.292   4.581 -26.164  0.00  0.00    -0.773 OA
HETATM   89  H   UNK     0      -6.293   4.514 -26.299  0.00  0.00     0.167 HD
ENDBRANCH  86  88
ENDBRANCH  81  86
BRANCH  83  90
HETATM   90  O   UNK     0      -7.875   3.433 -21.406  0.00  0.00    -0.358 OA
HETATM   91  H   UNK     0      -7.621   4.304 -20.960  0.00  0.00     0.217 HD
ENDBRANCH  83  90
BRANCH  84  92
HETATM   92  O   UNK     0      -7.725   0.705 -21.715  0.00  0.00    -0.356 OA
HETATM   93  H   UNK     0      -8.169  -0.116 -22.105  0.00  0.00     0.218 HD
ENDBRANCH  84  92
BRANCH  85  94
HETATM   94  O   UNK     0      -6.100  -0.358 -23.636  0.00  0.00    -0.356 OA
HETATM   95  H   UNK     0      -5.358  -0.879 -23.186  0.00  0.00     0.218 HD
ENDBRANCH  85  94
ENDBRANCH  79  80
ENDBRANCH  12  79
BRANCH  10  96
HETATM   96  O   UNK     0      -2.405   0.445 -24.098  0.00  0.00    -0.357 OA
HETATM   97  H   UNK     0      -2.146  -0.492 -23.817  0.00  0.00     0.217 HD
ENDBRANCH  10  96
TORSDOF 26
ENDMDL
MODEL 9
REMARK VINA RESULT:      -7.9      1.848      2.904
REMARK  26 active torsions:
REMARK  status: ('A' for Active; 'I' for Inactive)
REMARK    1  A    between atoms: C_1  and  C_7 
REMARK    2  A    between atoms: C_4  and  O_9 
REMARK    3  A    between atoms: C_5  and  O_11 
REMARK    4  A    between atoms: C_6  and  O_10 
REMARK    5  A    between atoms: C_12  and  C_18 
REMARK    6  A    between atoms: C_15  and  O_76 
REMARK    7  A    between atoms: C_18  and  O_74 
REMARK    8  A    between atoms: C_21  and  O_25 
REMARK    9  A    between atoms: C_23  and  O_26 
REMARK   10  A    between atoms: C_30  and  O_35 
REMARK   11  A    between atoms: C_32  and  O_36 
REMARK   12  A    between atoms: O_36  and  C_67 
REMARK   13  A    between atoms: C_39  and  O_60 
REMARK   14  A    between atoms: C_41  and  O_58 
REMARK   15  A    between atoms: C_42  and  C_45 
REMARK   16  A    between atoms: C_43  and  O_59 
REMARK   17  A    between atoms: C_45  and  O_53 
REMARK   18  A    between atoms: C_47  and  O_53 
REMARK   19  A    between atoms: C_50  and  O_55 
REMARK   20  A    between atoms: C_51  and  C_54 
REMARK   21  A    between atoms: C_54  and  O_74 
REMARK   22  A    between atoms: C_64  and  O_69 
REMARK   23  A    between atoms: C_65  and  C_72 
REMARK   24  A    between atoms: C_66  and  O_70 
REMARK   25  A    between atoms: C_68  and  O_71 
REMARK   26  A    between atoms: C_72  and  O_73 
ROOT
HETATM    1  C   UNK     0      -3.389   3.192 -25.665  0.00  0.00     0.026 A 
HETATM    2  C   UNK     0      -2.869   2.523 -26.786  0.00  0.00     0.006 A 
HETATM    3  C   UNK     0      -4.230   4.287 -25.728  0.00  0.00     0.111 A 
HETATM    4  C   UNK     0      -3.219   3.131 -28.028  0.00  0.00     0.054 A 
HETATM    5  C   UNK     0      -4.590   4.804 -26.945  0.00  0.00     0.100 A 
HETATM    6  C   UNK     0      -4.065   4.230 -28.078  0.00  0.00     0.058 A 
HETATM    7  O   UNK     0      -3.045   2.774 -24.422  0.00  0.00     0.000 OA
HETATM    8  C   UNK     0      -2.311   0.911 -25.015  0.00  0.00     0.026 A 
HETATM    9  C   UNK     0      -1.974   1.246 -26.329  0.00  0.00     0.006 A 
HETATM   10  C   UNK     0      -1.647  -0.024 -24.266  0.00  0.00     0.111 A 
HETATM   11  C   UNK     0      -0.944   0.427 -26.909  0.00  0.00     0.054 A 
HETATM   12  C   UNK     0      -0.602  -0.728 -24.790  0.00  0.00     0.111 A 
HETATM   13  C   UNK     0      -0.273  -0.522 -26.120  0.00  0.00     0.058 A 
HETATM   14  C   UNK     0      -0.428   0.431 -28.305  0.00  0.00     0.294 C 
HETATM   15  O   UNK     0      -3.351   1.535 -24.413  0.00  0.00     0.000 OA
HETATM   16  O   UNK     0       0.159   1.404 -28.718  0.00  0.00    -0.259 OA
HETATM   17  C   UNK     0      -1.554  -1.167 -31.406  0.00  0.00     0.302 C 
HETATM   18  C   UNK     0      -1.196  -0.159 -30.339  0.00  0.00     0.219 C 
HETATM   19  O   UNK     0      -2.335  -0.476 -32.456  0.00  0.00    -0.348 OA
HETATM   20  C   UNK     0      -2.405   0.436 -29.993  0.00  0.00     0.184 C 
HETATM   21  C   UNK     0      -3.081   0.792 -32.258  0.00  0.00     0.181 C 
HETATM   22  C   UNK     0      -2.626   1.468 -30.955  0.00  0.00     0.194 C 
HETATM   23  O   UNK     0      -3.556   2.361 -30.394  0.00  0.00    -0.307 OA
HETATM   24  O   UNK     0      -0.616  -0.673 -29.157  0.00  0.00    -0.304 OA
HETATM   25  C   UNK     0      -2.755   2.789 -29.348  0.00  0.00     0.294 C 
HETATM   26  O   UNK     0      -1.566   2.852 -29.553  0.00  0.00    -0.259 OA
HETATM   27  H   UNK     0      -3.404   3.257 -23.609  0.00  0.00     0.000 HD
HETATM   28  H   UNK     0      -3.599   1.301 -23.461  0.00  0.00     0.000 HD
ENDROOT
BRANCH  21  29
HETATM   29  C   UNK     0      -2.794   1.760 -33.433  0.00  0.00     0.213 C 
BRANCH  29  30
HETATM   30  O   UNK     0      -2.465   1.180 -34.695  0.00  0.00    -0.315 OA
BRANCH  30  31
HETATM   31  C   UNK     0      -3.083   1.629 -35.827  0.00  0.00     0.293 C 
HETATM   32  O   UNK     0      -2.422   2.181 -36.676  0.00  0.00    -0.259 OA
BRANCH  31  33
HETATM   33  C   UNK     0      -4.537   1.430 -36.067  0.00  0.00     0.044 A 
HETATM   34  C   UNK     0      -5.306   2.541 -36.372  0.00  0.00     0.055 A 
HETATM   35  C   UNK     0      -6.667   2.415 -36.589  0.00  0.00     0.080 A 
HETATM   36  C   UNK     0      -7.266   1.172 -36.504  0.00  0.00     0.047 A 
HETATM   37  C   UNK     0      -6.512   0.045 -36.201  0.00  0.00     0.091 A 
HETATM   38  O   UNK     0      -8.605   1.058 -36.719  0.00  0.00     0.000 OA
HETATM   39  C   UNK     0      -5.142   0.178 -35.981  0.00  0.00     0.056 A 
HETATM   40  O   UNK     0      -7.126  -1.183 -36.115  0.00  0.00    -0.306 OA
HETATM   41  C   UNK     0      -8.478  -1.297 -36.310  0.00  0.00     0.121 A 
HETATM   42  O   UNK     0      -9.126  -0.300 -36.528  0.00  0.00     0.000 OA
HETATM   43  H   UNK     0      -9.051   0.152 -36.658  0.00  0.00     0.000 HD
BRANCH  35  44
HETATM   44  O   UNK     0      -7.418   3.512 -36.880  0.00  0.00    -0.360 OA
HETATM   45  H   UNK     0      -7.461   4.284 -36.226  0.00  0.00     0.217 HD
ENDBRANCH  35  44
BRANCH  41  46
HETATM   46  C   UNK     0      -9.178  -2.595 -36.273  0.00  0.00     0.006 A 
HETATM   47  C   UNK     0      -8.467  -3.729 -35.911  0.00  0.00     0.054 A 
HETATM   48  C   UNK     0      -9.099  -4.962 -35.854  0.00  0.00     0.102 A 
HETATM   49  C   UNK     0     -10.446  -5.061 -36.161  0.00  0.00     0.132 A 
HETATM   50  C   UNK     0     -11.159  -3.929 -36.527  0.00  0.00     0.102 A 
HETATM   51  C   UNK     0     -10.527  -2.694 -36.581  0.00  0.00     0.054 A 
BRANCH  48  52
HETATM   52  O   UNK     0      -8.399  -6.070 -35.495  0.00  0.00    -0.358 OA
HETATM   53  H   UNK     0      -8.438  -6.902 -36.070  0.00  0.00     0.217 HD
ENDBRANCH  48  52
BRANCH  49  54
HETATM   54  O   UNK     0     -11.066  -6.269 -36.102  0.00  0.00    -0.356 OA
HETATM   55  H   UNK     0     -12.028  -6.330 -35.794  0.00  0.00     0.218 HD
ENDBRANCH  49  54
BRANCH  50  56
HETATM   56  O   UNK     0     -12.482  -4.029 -36.830  0.00  0.00    -0.358 OA
HETATM   57  H   UNK     0     -12.917  -3.344 -37.434  0.00  0.00     0.217 HD
ENDBRANCH  50  56
ENDBRANCH  41  46
ENDBRANCH  31  33
ENDBRANCH  30  31
ENDBRANCH  29  30
ENDBRANCH  21  29
BRANCH  17  58
HETATM   58  O   UNK     0      -0.375  -1.721 -31.963  0.00  0.00    -0.283 OA
BRANCH  58  59
HETATM   59  C   UNK     0       0.687  -0.930 -32.266  0.00  0.00     0.295 C 
HETATM   60  O   UNK     0       1.620  -0.841 -31.500  0.00  0.00    -0.259 OA
BRANCH  59  61
HETATM   61  C   UNK     0       0.690  -0.177 -33.528  0.00  0.00     0.045 A 
HETATM   62  C   UNK     0       0.447  -0.837 -34.723  0.00  0.00     0.057 A 
HETATM   63  C   UNK     0       0.442  -0.133 -35.917  0.00  0.00     0.102 A 
HETATM   64  C   UNK     0       0.684   1.231 -35.916  0.00  0.00     0.132 A 
HETATM   65  C   UNK     0       0.926   1.892 -34.721  0.00  0.00     0.102 A 
HETATM   66  C   UNK     0       0.928   1.188 -33.526  0.00  0.00     0.057 A 
BRANCH  63  67
HETATM   67  O   UNK     0       0.199  -0.782 -37.087  0.00  0.00    -0.358 OA
HETATM   68  H   UNK     0      -0.629  -1.355 -37.185  0.00  0.00     0.217 HD
ENDBRANCH  63  67
BRANCH  64  69
HETATM   69  O   UNK     0       0.685   1.923 -37.088  0.00  0.00    -0.356 OA
HETATM   70  H   UNK     0       1.033   2.873 -37.114  0.00  0.00     0.218 HD
ENDBRANCH  64  69
BRANCH  65  71
HETATM   71  O   UNK     0       1.161   3.230 -34.721  0.00  0.00    -0.358 OA
HETATM   72  H   UNK     0       1.007   3.771 -35.561  0.00  0.00     0.217 HD
ENDBRANCH  65  71
ENDBRANCH  59  61
ENDBRANCH  58  59
ENDBRANCH  17  58
BRANCH  20  73
HETATM   73  O   UNK     0      -2.337   0.982 -28.685  0.00  0.00    -0.390 OA
HETATM   74  H   UNK     0      -2.265   1.984 -28.557  0.00  0.00     0.210 HD
ENDBRANCH  20  73
BRANCH   5  75
HETATM   75  O   UNK     0      -5.428   5.871 -27.026  0.00  0.00    -0.358 OA
HETATM   76  H   UNK     0      -6.284   5.802 -27.562  0.00  0.00     0.217 HD
ENDBRANCH   5  75
BRANCH   3  77
HETATM   77  O   UNK     0      -4.699   4.852 -24.585  0.00  0.00    -0.357 OA
HETATM   78  H   UNK     0      -5.586   4.554 -24.200  0.00  0.00     0.217 HD
ENDBRANCH   3  77
BRANCH  12  79
HETATM   79  O   UNK     0      -0.004  -1.560 -23.882  0.00  0.00    -0.304 OA
BRANCH  79  80
HETATM   80  C   UNK     0       1.072  -1.775 -23.067  0.00  0.00     0.129 A 
HETATM   81  C   UNK     0       1.509  -0.928 -22.057  0.00  0.00     0.077 A 
HETATM   82  C   UNK     0       2.644  -1.260 -21.328  0.00  0.00     0.060 A 
HETATM   83  C   UNK     0       3.341  -2.429 -21.596  0.00  0.00     0.102 A 
HETATM   84  C   UNK     0       2.898  -3.278 -22.595  0.00  0.00     0.135 A 
HETATM   85  C   UNK     0       1.769  -2.948 -23.321  0.00  0.00     0.137 A 
BRANCH  81  86
HETATM   86  C   UNK     0       0.798   0.313 -21.739  0.00  0.00     0.179 C 
HETATM   87  O   UNK     0       1.085   1.342 -22.305  0.00  0.00    -0.646 OA
BRANCH  86  88
HETATM   88  O   UNK     0      -0.186   0.299 -20.800  0.00  0.00    -0.773 OA
HETATM   89  H   UNK     0      -1.099  -0.072 -21.030  0.00  0.00     0.167 HD
ENDBRANCH  86  88
ENDBRANCH  81  86
BRANCH  83  90
HETATM   90  O   UNK     0       4.455  -2.746 -20.883  0.00  0.00    -0.358 OA
HETATM   91  H   UNK     0       4.375  -3.308 -20.046  0.00  0.00     0.217 HD
ENDBRANCH  83  90
BRANCH  84  92
HETATM   92  O   UNK     0       3.569  -4.430 -22.867  0.00  0.00    -0.356 OA
HETATM   93  H   UNK     0       3.981  -4.964 -22.112  0.00  0.00     0.218 HD
ENDBRANCH  84  92
BRANCH  85  94
HETATM   94  O   UNK     0       1.336  -3.785 -24.302  0.00  0.00    -0.356 OA
HETATM   95  H   UNK     0       1.716  -3.709 -25.237  0.00  0.00     0.218 HD
ENDBRANCH  85  94
ENDBRANCH  79  80
ENDBRANCH  12  79
BRANCH  10  96
HETATM   96  O   UNK     0      -2.018  -0.244 -22.977  0.00  0.00    -0.357 OA
HETATM   97  H   UNK     0      -2.499   0.480 -22.457  0.00  0.00     0.217 HD
ENDBRANCH  10  96
TORSDOF 26
ENDMDL
MODEL 10
REMARK VINA RESULT:      -7.8      5.067     13.712
REMARK  26 active torsions:
REMARK  status: ('A' for Active; 'I' for Inactive)
REMARK    1  A    between atoms: C_1  and  C_7 
REMARK    2  A    between atoms: C_4  and  O_9 
REMARK    3  A    between atoms: C_5  and  O_11 
REMARK    4  A    between atoms: C_6  and  O_10 
REMARK    5  A    between atoms: C_12  and  C_18 
REMARK    6  A    between atoms: C_15  and  O_76 
REMARK    7  A    between atoms: C_18  and  O_74 
REMARK    8  A    between atoms: C_21  and  O_25 
REMARK    9  A    between atoms: C_23  and  O_26 
REMARK   10  A    between atoms: C_30  and  O_35 
REMARK   11  A    between atoms: C_32  and  O_36 
REMARK   12  A    between atoms: O_36  and  C_67 
REMARK   13  A    between atoms: C_39  and  O_60 
REMARK   14  A    between atoms: C_41  and  O_58 
REMARK   15  A    between atoms: C_42  and  C_45 
REMARK   16  A    between atoms: C_43  and  O_59 
REMARK   17  A    between atoms: C_45  and  O_53 
REMARK   18  A    between atoms: C_47  and  O_53 
REMARK   19  A    between atoms: C_50  and  O_55 
REMARK   20  A    between atoms: C_51  and  C_54 
REMARK   21  A    between atoms: C_54  and  O_74 
REMARK   22  A    between atoms: C_64  and  O_69 
REMARK   23  A    between atoms: C_65  and  C_72 
REMARK   24  A    between atoms: C_66  and  O_70 
REMARK   25  A    between atoms: C_68  and  O_71 
REMARK   26  A    between atoms: C_72  and  O_73 
ROOT
HETATM    1  C   UNK     0      -3.362   3.487 -27.055  0.00  0.00     0.026 A 
HETATM    2  C   UNK     0      -2.144   2.846 -26.769  0.00  0.00     0.006 A 
HETATM    3  C   UNK     0      -3.884   4.537 -26.324  0.00  0.00     0.111 A 
HETATM    4  C   UNK     0      -1.514   3.321 -25.581  0.00  0.00     0.054 A 
HETATM    5  C   UNK     0      -3.216   5.002 -25.222  0.00  0.00     0.100 A 
HETATM    6  C   UNK     0      -2.049   4.376 -24.855  0.00  0.00     0.058 A 
HETATM    7  O   UNK     0      -4.110   3.058 -28.101  0.00  0.00     0.000 OA
HETATM    8  C   UNK     0      -2.590   1.957 -29.018  0.00  0.00     0.026 A 
HETATM    9  C   UNK     0      -1.821   1.704 -27.879  0.00  0.00     0.006 A 
HETATM   10  C   UNK     0      -2.675   1.110 -30.091  0.00  0.00     0.111 A 
HETATM   11  C   UNK     0      -0.995   0.530 -27.964  0.00  0.00     0.054 A 
HETATM   12  C   UNK     0      -1.965  -0.054 -30.122  0.00  0.00     0.111 A 
HETATM   13  C   UNK     0      -1.104  -0.327 -29.071  0.00  0.00     0.058 A 
HETATM   14  C   UNK     0       0.019   0.033 -26.994  0.00  0.00     0.294 C 
HETATM   15  O   UNK     0      -3.311   3.101 -29.095  0.00  0.00     0.000 OA
HETATM   16  O   UNK     0      -0.337  -0.337 -25.900  0.00  0.00    -0.259 OA
HETATM   17  C   UNK     0       3.554   0.822 -26.430  0.00  0.00     0.302 C 
HETATM   18  C   UNK     0       2.058   0.675 -26.281  0.00  0.00     0.219 C 
HETATM   19  O   UNK     0       4.039   1.735 -25.371  0.00  0.00    -0.348 OA
HETATM   20  C   UNK     0       1.575   1.978 -26.247  0.00  0.00     0.184 C 
HETATM   21  C   UNK     0       3.195   2.726 -24.657  0.00  0.00     0.181 C 
HETATM   22  C   UNK     0       1.710   2.413 -24.894  0.00  0.00     0.194 C 
HETATM   23  O   UNK     0       0.839   3.505 -24.723  0.00  0.00    -0.307 OA
HETATM   24  O   UNK     0       1.387  -0.006 -27.323  0.00  0.00    -0.304 OA
HETATM   25  C   UNK     0      -0.338   2.804 -24.929  0.00  0.00     0.294 C 
HETATM   26  O   UNK     0      -0.369   1.654 -24.558  0.00  0.00    -0.259 OA
HETATM   27  H   UNK     0      -4.993   3.504 -28.307  0.00  0.00     0.000 HD
HETATM   28  H   UNK     0      -3.873   3.290 -29.915  0.00  0.00     0.000 HD
ENDROOT
BRANCH  21  29
HETATM   29  C   UNK     0       3.469   2.651 -23.134  0.00  0.00     0.213 C 
BRANCH  29  30
HETATM   30  O   UNK     0       3.449   3.878 -22.404  0.00  0.00    -0.315 OA
BRANCH  30  31
HETATM   31  C   UNK     0       2.393   4.161 -21.587  0.00  0.00     0.293 C 
HETATM   32  O   UNK     0       1.834   5.228 -21.698  0.00  0.00    -0.259 OA
BRANCH  31  33
HETATM   33  C   UNK     0       1.880   3.184 -20.589  0.00  0.00     0.044 A 
HETATM   34  C   UNK     0       1.204   2.069 -21.056  0.00  0.00     0.055 A 
HETATM   35  C   UNK     0       0.692   1.136 -20.170  0.00  0.00     0.080 A 
HETATM   36  C   UNK     0       0.857   1.315 -18.809  0.00  0.00     0.047 A 
HETATM   37  C   UNK     0       1.534   2.426 -18.321  0.00  0.00     0.091 A 
HETATM   38  O   UNK     0       0.351   0.394 -17.946  0.00  0.00     0.000 OA
HETATM   39  C   UNK     0       2.045   3.363 -19.217  0.00  0.00     0.056 A 
HETATM   40  O   UNK     0       1.684   2.591 -16.964  0.00  0.00    -0.306 OA
HETATM   41  C   UNK     0       1.156   1.676 -16.092  0.00  0.00     0.121 A 
HETATM   42  O   UNK     0       0.531   0.739 -16.532  0.00  0.00     0.000 OA
HETATM   43  H   UNK     0       0.466   0.518 -16.949  0.00  0.00     0.000 HD
BRANCH  35  44
HETATM   44  O   UNK     0       0.022   0.047 -20.634  0.00  0.00    -0.360 OA
HETATM   45  H   UNK     0      -0.988   0.008 -20.568  0.00  0.00     0.217 HD
ENDBRANCH  35  44
BRANCH  41  46
HETATM   46  C   UNK     0       1.326   1.781 -14.630  0.00  0.00     0.006 A 
HETATM   47  C   UNK     0       2.607   1.903 -14.112  0.00  0.00     0.054 A 
HETATM   48  C   UNK     0       2.800   2.018 -12.745  0.00  0.00     0.102 A 
HETATM   49  C   UNK     0       1.709   2.009 -11.892  0.00  0.00     0.132 A 
HETATM   50  C   UNK     0       0.427   1.883 -12.406  0.00  0.00     0.102 A 
HETATM   51  C   UNK     0       0.233   1.772 -13.776  0.00  0.00     0.054 A 
BRANCH  48  52
HETATM   52  O   UNK     0       4.057   2.140 -12.242  0.00  0.00    -0.358 OA
HETATM   53  H   UNK     0       4.476   1.372 -11.734  0.00  0.00     0.217 HD
ENDBRANCH  48  52
BRANCH  49  54
HETATM   54  O   UNK     0       1.898   2.123 -10.550  0.00  0.00    -0.356 OA
HETATM   55  H   UNK     0       2.784   2.455 -10.190  0.00  0.00     0.218 HD
ENDBRANCH  49  54
BRANCH  50  56
HETATM   56  O   UNK     0      -0.643   1.872 -11.565  0.00  0.00    -0.358 OA
HETATM   57  H   UNK     0      -1.551   1.585 -11.904  0.00  0.00     0.217 HD
ENDBRANCH  50  56
ENDBRANCH  41  46
ENDBRANCH  31  33
ENDBRANCH  30  31
ENDBRANCH  29  30
ENDBRANCH  21  29
BRANCH  17  58
HETATM   58  O   UNK     0       4.180  -0.443 -26.305  0.00  0.00    -0.283 OA
BRANCH  58  59
HETATM   59  C   UNK     0       3.491  -1.513 -25.828  0.00  0.00     0.295 C 
HETATM   60  O   UNK     0       3.130  -2.391 -26.578  0.00  0.00    -0.259 OA
BRANCH  59  61
HETATM   61  C   UNK     0       3.184  -1.592 -24.392  0.00  0.00     0.045 A 
HETATM   62  C   UNK     0       4.089  -1.098 -23.467  0.00  0.00     0.057 A 
HETATM   63  C   UNK     0       3.803  -1.163 -22.112  0.00  0.00     0.102 A 
HETATM   64  C   UNK     0       2.613  -1.727 -21.683  0.00  0.00     0.132 A 
HETATM   65  C   UNK     0       1.706  -2.221 -22.610  0.00  0.00     0.102 A 
HETATM   66  C   UNK     0       1.991  -2.153 -23.965  0.00  0.00     0.057 A 
BRANCH  63  67
HETATM   67  O   UNK     0       4.691  -0.673 -21.206  0.00  0.00    -0.358 OA
HETATM   68  H   UNK     0       4.398  -0.500 -20.253  0.00  0.00     0.217 HD
ENDBRANCH  63  67
BRANCH  64  69
HETATM   69  O   UNK     0       2.333  -1.797 -20.353  0.00  0.00    -0.356 OA
HETATM   70  H   UNK     0       1.537  -2.334 -20.031  0.00  0.00     0.218 HD
ENDBRANCH  64  69
BRANCH  65  71
HETATM   71  O   UNK     0       0.538  -2.772 -22.188  0.00  0.00    -0.358 OA
HETATM   72  H   UNK     0       0.097  -3.502 -22.732  0.00  0.00     0.217 HD
ENDBRANCH  65  71
ENDBRANCH  59  61
ENDBRANCH  58  59
ENDBRANCH  17  58
BRANCH  20  73
HETATM   73  O   UNK     0       0.214   2.017 -26.649  0.00  0.00    -0.390 OA
HETATM   74  H   UNK     0      -0.521   1.897 -25.963  0.00  0.00     0.210 HD
ENDBRANCH  20  73
BRANCH   5  75
HETATM   75  O   UNK     0      -3.708   6.044 -24.499  0.00  0.00    -0.358 OA
HETATM   76  H   UNK     0      -3.083   6.609 -23.939  0.00  0.00     0.217 HD
ENDBRANCH   5  75
BRANCH   3  77
HETATM   77  O   UNK     0      -5.061   5.106 -26.695  0.00  0.00    -0.357 OA
HETATM   78  H   UNK     0      -5.117   6.106 -26.837  0.00  0.00     0.217 HD
ENDBRANCH   3  77
BRANCH  12  79
HETATM   79  O   UNK     0      -2.230  -0.817 -31.228  0.00  0.00    -0.304 OA
BRANCH  79  80
HETATM   80  C   UNK     0      -2.083  -0.957 -32.579  0.00  0.00     0.129 A 
HETATM   81  C   UNK     0      -0.881  -0.940 -33.273  0.00  0.00     0.077 A 
HETATM   82  C   UNK     0      -0.887  -1.059 -34.658  0.00  0.00     0.060 A 
HETATM   83  C   UNK     0      -2.080  -1.198 -35.351  0.00  0.00     0.102 A 
HETATM   84  C   UNK     0      -3.277  -1.225 -34.658  0.00  0.00     0.135 A 
HETATM   85  C   UNK     0      -3.272  -1.107 -33.281  0.00  0.00     0.137 A 
BRANCH  81  86
HETATM   86  C   UNK     0       0.401  -0.801 -32.578  0.00  0.00     0.179 C 
HETATM   87  O   UNK     0       0.841   0.296 -32.325  0.00  0.00    -0.646 OA
BRANCH  86  88
HETATM   88  O   UNK     0       1.093  -1.917 -32.220  0.00  0.00    -0.773 OA
HETATM   89  H   UNK     0       0.631  -2.817 -32.211  0.00  0.00     0.167 HD
ENDBRANCH  86  88
ENDBRANCH  81  86
BRANCH  83  90
HETATM   90  O   UNK     0      -2.080  -1.308 -36.707  0.00  0.00    -0.358 OA
HETATM   91  H   UNK     0      -1.386  -0.814 -37.253  0.00  0.00     0.217 HD
ENDBRANCH  83  90
BRANCH  84  92
HETATM   92  O   UNK     0      -4.455  -1.365 -35.325  0.00  0.00    -0.356 OA
HETATM   93  H   UNK     0      -5.288  -1.646 -34.824  0.00  0.00     0.218 HD
ENDBRANCH  84  92
BRANCH  85  94
HETATM   94  O   UNK     0      -4.451  -1.135 -32.603  0.00  0.00    -0.356 OA
HETATM   95  H   UNK     0      -5.215  -0.537 -32.891  0.00  0.00     0.218 HD
ENDBRANCH  85  94
ENDBRANCH  79  80
ENDBRANCH  12  79
BRANCH  10  96
HETATM   96  O   UNK     0      -3.492   1.421 -31.133  0.00  0.00    -0.357 OA
HETATM   97  H   UNK     0      -3.477   0.858 -31.973  0.00  0.00     0.217 HD
ENDBRANCH  10  96
TORSDOF 26
ENDMDL
