REMARK VINA RESULT:      -9.2      0.000      0.000
REMARK  26 active torsions:
REMARK  status: ('A' for Active; 'I' for Inactive)
REMARK    1  A    between atoms: C_1  and  C_7 
REMARK    2  A    between atoms: C_4  and  O_9 
REMARK    3  A    between atoms: C_5  and  O_11 
REMARK    4  A    between atoms: C_6  and  O_10 
REMARK    5  A    between atoms: C_12  and  C_18 
REMARK    6  A    between atoms: C_15  and  O_76 
REMARK    7  A    between atoms: C_18  and  O_74 
REMARK    8  A    between atoms: C_21  and  O_25 
REMARK    9  A    between atoms: C_23  and  O_26 
REMARK   10  A    between atoms: C_30  and  O_35 
REMARK   11  A    between atoms: C_32  and  O_36 
REMARK   12  A    between atoms: O_36  and  C_67 
REMARK   13  A    between atoms: C_39  and  O_60 
REMARK   14  A    between atoms: C_41  and  O_58 
REMARK   15  A    between atoms: C_42  and  C_45 
REMARK   16  A    between atoms: C_43  and  O_59 
REMARK   17  A    between atoms: C_45  and  O_53 
REMARK   18  A    between atoms: C_47  and  O_53 
REMARK   19  A    between atoms: C_50  and  O_55 
REMARK   20  A    between atoms: C_51  and  C_54 
REMARK   21  A    between atoms: C_54  and  O_74 
REMARK   22  A    between atoms: C_64  and  O_69 
REMARK   23  A    between atoms: C_65  and  C_72 
REMARK   24  A    between atoms: C_66  and  O_70 
REMARK   25  A    between atoms: C_68  and  O_71 
REMARK   26  A    between atoms: C_72  and  O_73 
ROOT
HETATM    1  C   UNK     0      -4.483   3.334 -24.899  0.00  0.00     0.026 A 
HETATM    2  C   UNK     0      -3.685   3.053 -26.022  0.00  0.00     0.006 A 
HETATM    3  C   UNK     0      -5.367   4.392 -24.813  0.00  0.00     0.111 A 
HETATM    4  C   UNK     0      -3.801   4.022 -27.061  0.00  0.00     0.054 A 
HETATM    5  C   UNK     0      -5.491   5.267 -25.860  0.00  0.00     0.100 A 
HETATM    6  C   UNK     0      -4.693   5.081 -26.962  0.00  0.00     0.058 A 
HETATM    7  O   UNK     0      -4.388   2.544 -23.801  0.00  0.00     0.000 OA
HETATM    8  C   UNK     0      -3.410   0.964 -24.755  0.00  0.00     0.026 A 
HETATM    9  C   UNK     0      -2.822   1.697 -25.789  0.00  0.00     0.006 A 
HETATM   10  C   UNK     0      -2.859  -0.160 -24.199  0.00  0.00     0.111 A 
HETATM   11  C   UNK     0      -1.634   1.103 -26.340  0.00  0.00     0.054 A 
HETATM   12  C   UNK     0      -1.678  -0.662 -24.661  0.00  0.00     0.111 A 
HETATM   13  C   UNK     0      -1.083  -0.046 -25.750  0.00  0.00     0.058 A 
HETATM   14  C   UNK     0      -0.829   1.548 -27.511  0.00  0.00     0.294 C 
HETATM   15  O   UNK     0      -4.599   1.366 -24.244  0.00  0.00     0.000 OA
HETATM   16  O   UNK     0      -0.239   2.602 -27.459  0.00  0.00    -0.259 OA
HETATM   17  C   UNK     0      -1.138   1.013 -31.124  0.00  0.00     0.302 C 
HETATM   18  C   UNK     0      -1.094   1.632 -29.746  0.00  0.00     0.219 C 
HETATM   19  O   UNK     0      -1.720   2.001 -32.059  0.00  0.00    -0.348 OA
HETATM   20  C   UNK     0      -2.388   2.087 -29.520  0.00  0.00     0.184 C 
HETATM   21  C   UNK     0      -2.581   3.141 -31.657  0.00  0.00     0.181 C 
HETATM   22  C   UNK     0      -2.469   3.370 -30.142  0.00  0.00     0.194 C 
HETATM   23  O   UNK     0      -3.561   4.041 -29.561  0.00  0.00    -0.307 OA
HETATM   24  O   UNK     0      -0.748   0.770 -28.680  0.00  0.00    -0.304 OA
HETATM   25  C   UNK     0      -3.038   4.116 -28.280  0.00  0.00     0.294 C 
HETATM   26  O   UNK     0      -1.841   4.240 -28.177  0.00  0.00    -0.259 OA
HETATM   27  H   UNK     0      -4.948   2.745 -22.984  0.00  0.00     0.000 HD
HETATM   28  H   UNK     0      -5.030   0.843 -23.493  0.00  0.00     0.000 HD
ENDROOT
BRANCH  21  29
HETATM   29  C   UNK     0      -2.116   4.431 -32.378  0.00  0.00     0.213 C 
BRANCH  29  30
HETATM   30  O   UNK     0      -2.804   4.797 -33.574  0.00  0.00    -0.315 OA
BRANCH  30  31
HETATM   31  C   UNK     0      -3.977   4.177 -33.896  0.00  0.00     0.293 C 
HETATM   32  O   UNK     0      -5.019   4.662 -33.521  0.00  0.00    -0.259 OA
BRANCH  31  33
HETATM   33  C   UNK     0      -4.017   2.944 -34.726  0.00  0.00     0.044 A 
HETATM   34  C   UNK     0      -2.925   2.663 -35.531  0.00  0.00     0.055 A 
HETATM   35  C   UNK     0      -2.917   1.537 -36.337  0.00  0.00     0.080 A 
HETATM   36  C   UNK     0      -4.004   0.683 -36.337  0.00  0.00     0.047 A 
HETATM   37  C   UNK     0      -5.108   0.946 -35.536  0.00  0.00     0.091 A 
HETATM   38  O   UNK     0      -3.987  -0.421 -37.132  0.00  0.00     0.000 OA
HETATM   39  C   UNK     0      -5.112   2.082 -34.729  0.00  0.00     0.056 A 
HETATM   40  O   UNK     0      -6.183   0.088 -35.553  0.00  0.00    -0.306 OA
HETATM   41  C   UNK     0      -6.178  -1.014 -36.369  0.00  0.00     0.121 A 
HETATM   42  O   UNK     0      -5.229  -1.202 -37.093  0.00  0.00     0.000 OA
HETATM   43  H   UNK     0      -4.779  -1.051 -37.139  0.00  0.00     0.000 HD
BRANCH  35  44
HETATM   44  O   UNK     0      -1.845   1.272 -37.131  0.00  0.00    -0.360 OA
HETATM   45  H   UNK     0      -0.975   1.771 -36.990  0.00  0.00     0.217 HD
ENDBRANCH  35  44
BRANCH  41  46
HETATM   46  C   UNK     0      -7.285  -1.989 -36.394  0.00  0.00     0.006 A 
HETATM   47  C   UNK     0      -7.019  -3.311 -36.069  0.00  0.00     0.054 A 
HETATM   48  C   UNK     0      -8.039  -4.249 -36.070  0.00  0.00     0.102 A 
HETATM   49  C   UNK     0      -9.329  -3.865 -36.398  0.00  0.00     0.132 A 
HETATM   50  C   UNK     0      -9.597  -2.544 -36.727  0.00  0.00     0.102 A 
HETATM   51  C   UNK     0      -8.576  -1.604 -36.722  0.00  0.00     0.054 A 
BRANCH  48  52
HETATM   52  O   UNK     0      -7.775  -5.543 -35.749  0.00  0.00    -0.358 OA
HETATM   53  H   UNK     0      -8.255  -5.980 -34.973  0.00  0.00     0.217 HD
ENDBRANCH  48  52
BRANCH  49  54
HETATM   54  O   UNK     0     -10.330  -4.785 -36.397  0.00  0.00    -0.356 OA
HETATM   55  H   UNK     0     -10.318  -5.546 -35.731  0.00  0.00     0.218 HD
ENDBRANCH  49  54
BRANCH  50  56
HETATM   56  O   UNK     0     -10.865  -2.170 -37.051  0.00  0.00    -0.358 OA
HETATM   57  H   UNK     0     -11.136  -1.197 -36.995  0.00  0.00     0.217 HD
ENDBRANCH  50  56
ENDBRANCH  41  46
ENDBRANCH  31  33
ENDBRANCH  30  31
ENDBRANCH  29  30
ENDBRANCH  21  29
BRANCH  17  58
HETATM   58  O   UNK     0       0.170   0.663 -31.539  0.00  0.00    -0.283 OA
BRANCH  58  59
HETATM   59  C   UNK     0       0.428  -0.569 -32.051  0.00  0.00     0.295 C 
HETATM   60  O   UNK     0       1.425  -1.171 -31.721  0.00  0.00    -0.259 OA
BRANCH  59  61
HETATM   61  C   UNK     0      -0.510  -1.162 -33.015  0.00  0.00     0.045 A 
HETATM   62  C   UNK     0      -1.597  -1.891 -32.557  0.00  0.00     0.057 A 
HETATM   63  C   UNK     0      -2.490  -2.447 -33.459  0.00  0.00     0.102 A 
HETATM   64  C   UNK     0      -2.294  -2.278 -34.820  0.00  0.00     0.132 A 
HETATM   65  C   UNK     0      -1.207  -1.549 -35.278  0.00  0.00     0.102 A 
HETATM   66  C   UNK     0      -0.315  -0.989 -34.376  0.00  0.00     0.057 A 
BRANCH  63  67
HETATM   67  O   UNK     0      -3.558  -3.158 -33.007  0.00  0.00    -0.358 OA
HETATM   68  H   UNK     0      -3.437  -4.118 -32.709  0.00  0.00     0.217 HD
ENDBRANCH  63  67
BRANCH  64  69
HETATM   69  O   UNK     0      -3.166  -2.829 -35.707  0.00  0.00    -0.356 OA
HETATM   70  H   UNK     0      -2.915  -2.901 -36.685  0.00  0.00     0.218 HD
ENDBRANCH  64  69
BRANCH  65  71
HETATM   71  O   UNK     0      -1.016  -1.382 -36.613  0.00  0.00    -0.358 OA
HETATM   72  H   UNK     0      -1.229  -0.494 -37.048  0.00  0.00     0.217 HD
ENDBRANCH  65  71
ENDBRANCH  59  61
ENDBRANCH  58  59
ENDBRANCH  17  58
BRANCH  20  73
HETATM   73  O   UNK     0      -2.645   2.192 -28.128  0.00  0.00    -0.390 OA
HETATM   74  H   UNK     0      -2.831   3.096 -27.714  0.00  0.00     0.210 HD
ENDBRANCH  20  73
BRANCH   5  75
HETATM   75  O   UNK     0      -6.367   6.306 -25.797  0.00  0.00    -0.358 OA
HETATM   76  H   UNK     0      -6.650   6.779 -26.645  0.00  0.00     0.217 HD
ENDBRANCH   5  75
BRANCH   3  77
HETATM   77  O   UNK     0      -6.113   4.567 -23.690  0.00  0.00    -0.357 OA
HETATM   78  H   UNK     0      -7.115   4.676 -23.760  0.00  0.00     0.217 HD
ENDBRANCH   3  77
BRANCH  12  79
HETATM   79  O   UNK     0      -1.232  -1.739 -23.942  0.00  0.00    -0.304 OA
BRANCH  79  80
HETATM   80  C   UNK     0      -0.154  -2.477 -23.543  0.00  0.00     0.129 A 
HETATM   81  C   UNK     0      -0.185  -3.800 -23.120  0.00  0.00     0.077 A 
HETATM   82  C   UNK     0       0.990  -4.416 -22.708  0.00  0.00     0.060 A 
HETATM   83  C   UNK     0       2.193  -3.725 -22.719  0.00  0.00     0.102 A 
HETATM   84  C   UNK     0       2.225  -2.411 -23.151  0.00  0.00     0.135 A 
HETATM   85  C   UNK     0       1.057  -1.798 -23.561  0.00  0.00     0.137 A 
BRANCH  81  86
HETATM   86  C   UNK     0      -1.434  -4.565 -23.098  0.00  0.00     0.179 C 
HETATM   87  O   UNK     0      -1.411  -5.765 -22.944  0.00  0.00    -0.646 OA
BRANCH  86  88
HETATM   88  O   UNK     0      -2.620  -3.917 -23.256  0.00  0.00    -0.773 OA
HETATM   89  H   UNK     0      -3.214  -3.749 -22.454  0.00  0.00     0.167 HD
ENDBRANCH  86  88
ENDBRANCH  81  86
BRANCH  83  90
HETATM   90  O   UNK     0       3.340  -4.331 -22.309  0.00  0.00    -0.358 OA
HETATM   91  H   UNK     0       4.204  -3.808 -22.280  0.00  0.00     0.217 HD
ENDBRANCH  83  90
BRANCH  84  92
HETATM   92  O   UNK     0       3.399  -1.722 -23.172  0.00  0.00    -0.356 OA
HETATM   93  H   UNK     0       4.272  -2.216 -23.307  0.00  0.00     0.218 HD
ENDBRANCH  84  92
BRANCH  85  94
HETATM   94  O   UNK     0       1.092  -0.506 -23.986  0.00  0.00    -0.356 OA
HETATM   95  H   UNK     0       0.417   0.161 -23.635  0.00  0.00     0.218 HD
ENDBRANCH  85  94
ENDBRANCH  79  80
ENDBRANCH  12  79
BRANCH  10  96
HETATM   96  O   UNK     0      -3.484  -0.776 -23.161  0.00  0.00    -0.357 OA
HETATM   97  H   UNK     0      -3.893  -0.226 -22.417  0.00  0.00     0.217 HD
ENDBRANCH  10  96
TORSDOF 26
