REMARK VINA RESULT:      -7.9      2.493      6.247
REMARK  26 active torsions:
REMARK  status: ('A' for Active; 'I' for Inactive)
REMARK    1  A    between atoms: C_1  and  C_7 
REMARK    2  A    between atoms: C_4  and  O_9 
REMARK    3  A    between atoms: C_5  and  O_11 
REMARK    4  A    between atoms: C_6  and  O_10 
REMARK    5  A    between atoms: C_12  and  C_18 
REMARK    6  A    between atoms: C_15  and  O_76 
REMARK    7  A    between atoms: C_18  and  O_74 
REMARK    8  A    between atoms: C_21  and  O_25 
REMARK    9  A    between atoms: C_23  and  O_26 
REMARK   10  A    between atoms: C_30  and  O_35 
REMARK   11  A    between atoms: C_32  and  O_36 
REMARK   12  A    between atoms: O_36  and  C_67 
REMARK   13  A    between atoms: C_39  and  O_60 
REMARK   14  A    between atoms: C_41  and  O_58 
REMARK   15  A    between atoms: C_42  and  C_45 
REMARK   16  A    between atoms: C_43  and  O_59 
REMARK   17  A    between atoms: C_45  and  O_53 
REMARK   18  A    between atoms: C_47  and  O_53 
REMARK   19  A    between atoms: C_50  and  O_55 
REMARK   20  A    between atoms: C_51  and  C_54 
REMARK   21  A    between atoms: C_54  and  O_74 
REMARK   22  A    between atoms: C_64  and  O_69 
REMARK   23  A    between atoms: C_65  and  C_72 
REMARK   24  A    between atoms: C_66  and  O_70 
REMARK   25  A    between atoms: C_68  and  O_71 
REMARK   26  A    between atoms: C_72  and  O_73 
ROOT
HETATM    1  C   UNK     0       1.024  -0.288 -27.034  0.00  0.00     0.026 A 
HETATM    2  C   UNK     0       0.432   0.601 -27.948  0.00  0.00     0.006 A 
HETATM    3  C   UNK     0       2.314  -0.772 -27.138  0.00  0.00     0.111 A 
HETATM    4  C   UNK     0       1.261   0.906 -29.067  0.00  0.00     0.054 A 
HETATM    5  C   UNK     0       3.099  -0.407 -28.200  0.00  0.00     0.100 A 
HETATM    6  C   UNK     0       2.555   0.413 -29.160  0.00  0.00     0.058 A 
HETATM    7  O   UNK     0       0.301  -0.736 -25.979  0.00  0.00     0.000 OA
HETATM    8  C   UNK     0      -1.195   0.716 -26.107  0.00  0.00     0.026 A 
HETATM    9  C   UNK     0      -1.067   1.004 -27.469  0.00  0.00     0.006 A 
HETATM   10  C   UNK     0      -2.372   0.795 -25.412  0.00  0.00     0.111 A 
HETATM   11  C   UNK     0      -2.256   1.534 -28.080  0.00  0.00     0.054 A 
HETATM   12  C   UNK     0      -3.521   1.203 -26.024  0.00  0.00     0.111 A 
HETATM   13  C   UNK     0      -3.453   1.600 -27.350  0.00  0.00     0.058 A 
HETATM   14  C   UNK     0      -2.439   2.048 -29.465  0.00  0.00     0.294 C 
HETATM   15  O   UNK     0      -0.105   0.328 -25.403  0.00  0.00     0.000 OA
HETATM   16  O   UNK     0      -2.337   1.288 -30.400  0.00  0.00    -0.259 OA
HETATM   17  C   UNK     0      -1.815   5.298 -31.042  0.00  0.00     0.302 C 
HETATM   18  C   UNK     0      -1.761   3.839 -30.652  0.00  0.00     0.219 C 
HETATM   19  O   UNK     0      -0.618   5.606 -31.856  0.00  0.00    -0.348 OA
HETATM   20  C   UNK     0      -0.503   3.670 -30.084  0.00  0.00     0.184 C 
HETATM   21  C   UNK     0       0.640   4.818 -31.841  0.00  0.00     0.181 C 
HETATM   22  C   UNK     0       0.395   3.457 -31.173  0.00  0.00     0.194 C 
HETATM   23  O   UNK     0       1.544   2.840 -30.644  0.00  0.00    -0.307 OA
HETATM   24  O   UNK     0      -2.721   3.405 -29.709  0.00  0.00    -0.304 OA
HETATM   25  C   UNK     0       0.924   1.667 -30.243  0.00  0.00     0.294 C 
HETATM   26  O   UNK     0       0.008   1.267 -30.920  0.00  0.00    -0.259 OA
HETATM   27  H   UNK     0       0.714  -1.386 -25.323  0.00  0.00     0.000 HD
HETATM   28  H   UNK     0      -0.189   0.114 -24.417  0.00  0.00     0.000 HD
ENDROOT
BRANCH  21  29
HETATM   29  C   UNK     0       1.120   4.567 -33.293  0.00  0.00     0.213 C 
BRANCH  29  30
HETATM   30  O   UNK     0       1.040   3.229 -33.787  0.00  0.00    -0.315 OA
BRANCH  30  31
HETATM   31  C   UNK     0       0.025   2.880 -34.629  0.00  0.00     0.293 C 
HETATM   32  O   UNK     0      -0.540   3.745 -35.259  0.00  0.00    -0.259 OA
BRANCH  31  33
HETATM   33  C   UNK     0      -0.388   1.465 -34.827  0.00  0.00     0.044 A 
HETATM   34  C   UNK     0       0.594   0.488 -34.786  0.00  0.00     0.055 A 
HETATM   35  C   UNK     0       0.268  -0.843 -34.980  0.00  0.00     0.080 A 
HETATM   36  C   UNK     0      -1.046  -1.204 -35.214  0.00  0.00     0.047 A 
HETATM   37  C   UNK     0      -2.045  -0.240 -35.258  0.00  0.00     0.091 A 
HETATM   38  O   UNK     0      -1.356  -2.515 -35.404  0.00  0.00     0.000 OA
HETATM   39  C   UNK     0      -1.711   1.100 -35.065  0.00  0.00     0.056 A 
HETATM   40  O   UNK     0      -3.346  -0.616 -35.498  0.00  0.00    -0.306 OA
HETATM   41  C   UNK     0      -3.659  -1.933 -35.711  0.00  0.00     0.121 A 
HETATM   42  O   UNK     0      -2.771  -2.754 -35.715  0.00  0.00     0.000 OA
HETATM   43  H   UNK     0      -2.316  -2.787 -35.578  0.00  0.00     0.000 HD
BRANCH  35  44
HETATM   44  O   UNK     0       1.237  -1.797 -34.946  0.00  0.00    -0.360 OA
HETATM   45  H   UNK     0       2.046  -1.675 -34.349  0.00  0.00     0.217 HD
ENDBRANCH  35  44
BRANCH  41  46
HETATM   46  C   UNK     0      -5.042  -2.396 -35.929  0.00  0.00     0.006 A 
HETATM   47  C   UNK     0      -6.090  -1.538 -35.629  0.00  0.00     0.054 A 
HETATM   48  C   UNK     0      -7.401  -1.937 -35.834  0.00  0.00     0.102 A 
HETATM   49  C   UNK     0      -7.666  -3.199 -36.340  0.00  0.00     0.132 A 
HETATM   50  C   UNK     0      -6.621  -4.062 -36.638  0.00  0.00     0.102 A 
HETATM   51  C   UNK     0      -5.307  -3.660 -36.434  0.00  0.00     0.054 A 
BRANCH  48  52
HETATM   52  O   UNK     0      -8.424  -1.092 -35.542  0.00  0.00    -0.358 OA
HETATM   53  H   UNK     0      -9.382  -1.385 -35.691  0.00  0.00     0.217 HD
ENDBRANCH  48  52
BRANCH  49  54
HETATM   54  O   UNK     0      -8.952  -3.590 -36.544  0.00  0.00    -0.356 OA
HETATM   55  H   UNK     0      -9.714  -2.963 -36.319  0.00  0.00     0.218 HD
ENDBRANCH  49  54
BRANCH  50  56
HETATM   56  O   UNK     0      -6.884  -5.302 -37.132  0.00  0.00    -0.358 OA
HETATM   57  H   UNK     0      -6.561  -6.123 -36.637  0.00  0.00     0.217 HD
ENDBRANCH  50  56
ENDBRANCH  41  46
ENDBRANCH  31  33
ENDBRANCH  30  31
ENDBRANCH  29  30
ENDBRANCH  21  29
BRANCH  17  58
HETATM   58  O   UNK     0      -2.990   5.556 -31.790  0.00  0.00    -0.283 OA
BRANCH  58  59
HETATM   59  C   UNK     0      -2.956   5.582 -33.148  0.00  0.00     0.295 C 
HETATM   60  O   UNK     0      -2.231   6.360 -33.726  0.00  0.00    -0.259 OA
BRANCH  59  61
HETATM   61  C   UNK     0      -3.810   4.660 -33.910  0.00  0.00     0.045 A 
HETATM   62  C   UNK     0      -4.383   5.078 -35.101  0.00  0.00     0.057 A 
HETATM   63  C   UNK     0      -5.184   4.212 -35.828  0.00  0.00     0.102 A 
HETATM   64  C   UNK     0      -5.416   2.928 -35.361  0.00  0.00     0.132 A 
HETATM   65  C   UNK     0      -4.843   2.510 -34.169  0.00  0.00     0.102 A 
HETATM   66  C   UNK     0      -4.038   3.375 -33.444  0.00  0.00     0.057 A 
BRANCH  63  67
HETATM   67  O   UNK     0      -5.741   4.622 -36.999  0.00  0.00    -0.358 OA
HETATM   68  H   UNK     0      -5.643   5.585 -37.295  0.00  0.00     0.217 HD
ENDBRANCH  63  67
BRANCH  64  69
HETATM   69  O   UNK     0      -6.207   2.078 -36.070  0.00  0.00    -0.356 OA
HETATM   70  H   UNK     0      -7.183   2.302 -36.221  0.00  0.00     0.218 HD
ENDBRANCH  64  69
BRANCH  65  71
HETATM   71  O   UNK     0      -5.070   1.250 -33.713  0.00  0.00    -0.358 OA
HETATM   72  H   UNK     0      -4.307   0.589 -33.650  0.00  0.00     0.217 HD
ENDBRANCH  65  71
ENDBRANCH  59  61
ENDBRANCH  58  59
ENDBRANCH  17  58
BRANCH  20  73
HETATM   73  O   UNK     0      -0.497   2.553 -29.208  0.00  0.00    -0.390 OA
HETATM   74  H   UNK     0      -0.186   1.650 -29.541  0.00  0.00     0.210 HD
ENDBRANCH  20  73
BRANCH   5  75
HETATM   75  O   UNK     0       4.375  -0.862 -28.311  0.00  0.00    -0.358 OA
HETATM   76  H   UNK     0       5.151  -0.230 -28.167  0.00  0.00     0.217 HD
ENDBRANCH   5  75
BRANCH   3  77
HETATM   77  O   UNK     0       2.804  -1.612 -26.189  0.00  0.00    -0.357 OA
HETATM   78  H   UNK     0       2.273  -2.427 -25.911  0.00  0.00     0.217 HD
ENDBRANCH   3  77
BRANCH  12  79
HETATM   79  O   UNK     0      -4.617   1.146 -25.205  0.00  0.00    -0.304 OA
BRANCH  79  80
HETATM   80  C   UNK     0      -5.411   1.810 -24.314  0.00  0.00     0.129 A 
HETATM   81  C   UNK     0      -5.494   3.189 -24.169  0.00  0.00     0.077 A 
HETATM   82  C   UNK     0      -6.323   3.726 -23.192  0.00  0.00     0.060 A 
HETATM   83  C   UNK     0      -7.070   2.901 -22.364  0.00  0.00     0.102 A 
HETATM   84  C   UNK     0      -6.995   1.528 -22.517  0.00  0.00     0.135 A 
HETATM   85  C   UNK     0      -6.171   0.992 -23.488  0.00  0.00     0.137 A 
BRANCH  81  86
HETATM   86  C   UNK     0      -4.726   4.095 -25.026  0.00  0.00     0.179 C 
HETATM   87  O   UNK     0      -3.599   4.411 -24.723  0.00  0.00    -0.646 OA
BRANCH  86  88
HETATM   88  O   UNK     0      -5.292   4.581 -26.164  0.00  0.00    -0.773 OA
HETATM   89  H   UNK     0      -6.293   4.514 -26.299  0.00  0.00     0.167 HD
ENDBRANCH  86  88
ENDBRANCH  81  86
BRANCH  83  90
HETATM   90  O   UNK     0      -7.875   3.433 -21.406  0.00  0.00    -0.358 OA
HETATM   91  H   UNK     0      -7.621   4.304 -20.960  0.00  0.00     0.217 HD
ENDBRANCH  83  90
BRANCH  84  92
HETATM   92  O   UNK     0      -7.725   0.705 -21.715  0.00  0.00    -0.356 OA
HETATM   93  H   UNK     0      -8.169  -0.116 -22.105  0.00  0.00     0.218 HD
ENDBRANCH  84  92
BRANCH  85  94
HETATM   94  O   UNK     0      -6.100  -0.358 -23.636  0.00  0.00    -0.356 OA
HETATM   95  H   UNK     0      -5.358  -0.879 -23.186  0.00  0.00     0.218 HD
ENDBRANCH  85  94
ENDBRANCH  79  80
ENDBRANCH  12  79
BRANCH  10  96
HETATM   96  O   UNK     0      -2.405   0.445 -24.098  0.00  0.00    -0.357 OA
HETATM   97  H   UNK     0      -2.146  -0.492 -23.817  0.00  0.00     0.217 HD
ENDBRANCH  10  96
TORSDOF 26
