REMARK VINA RESULT:      -8.2      4.466     14.487
REMARK  26 active torsions:
REMARK  status: ('A' for Active; 'I' for Inactive)
REMARK    1  A    between atoms: C_1  and  C_7 
REMARK    2  A    between atoms: C_4  and  O_9 
REMARK    3  A    between atoms: C_5  and  O_11 
REMARK    4  A    between atoms: C_6  and  O_10 
REMARK    5  A    between atoms: C_12  and  C_18 
REMARK    6  A    between atoms: C_15  and  O_76 
REMARK    7  A    between atoms: C_18  and  O_74 
REMARK    8  A    between atoms: C_21  and  O_25 
REMARK    9  A    between atoms: C_23  and  O_26 
REMARK   10  A    between atoms: C_30  and  O_35 
REMARK   11  A    between atoms: C_32  and  O_36 
REMARK   12  A    between atoms: O_36  and  C_67 
REMARK   13  A    between atoms: C_39  and  O_60 
REMARK   14  A    between atoms: C_41  and  O_58 
REMARK   15  A    between atoms: C_42  and  C_45 
REMARK   16  A    between atoms: C_43  and  O_59 
REMARK   17  A    between atoms: C_45  and  O_53 
REMARK   18  A    between atoms: C_47  and  O_53 
REMARK   19  A    between atoms: C_50  and  O_55 
REMARK   20  A    between atoms: C_51  and  C_54 
REMARK   21  A    between atoms: C_54  and  O_74 
REMARK   22  A    between atoms: C_64  and  O_69 
REMARK   23  A    between atoms: C_65  and  C_72 
REMARK   24  A    between atoms: C_66  and  O_70 
REMARK   25  A    between atoms: C_68  and  O_71 
REMARK   26  A    between atoms: C_72  and  O_73 
ROOT
HETATM    1  C   UNK     0       1.269  -1.465 -31.358  0.00  0.00     0.026 A 
HETATM    2  C   UNK     0       0.473  -0.838 -30.384  0.00  0.00     0.006 A 
HETATM    3  C   UNK     0       2.504  -2.034 -31.110  0.00  0.00     0.111 A 
HETATM    4  C   UNK     0       1.094  -0.758 -29.103  0.00  0.00     0.054 A 
HETATM    5  C   UNK     0       3.039  -1.986 -29.850  0.00  0.00     0.100 A 
HETATM    6  C   UNK     0       2.336  -1.333 -28.867  0.00  0.00     0.058 A 
HETATM    7  O   UNK     0       0.835  -1.515 -32.641  0.00  0.00     0.000 OA
HETATM    8  C   UNK     0      -1.155  -1.045 -32.215  0.00  0.00     0.026 A 
HETATM    9  C   UNK     0      -0.938  -0.348 -31.023  0.00  0.00     0.006 A 
HETATM   10  C   UNK     0      -2.175  -0.776 -33.088  0.00  0.00     0.111 A 
HETATM   11  C   UNK     0      -1.962   0.606 -30.695  0.00  0.00     0.054 A 
HETATM   12  C   UNK     0      -3.087   0.203 -32.819  0.00  0.00     0.111 A 
HETATM   13  C   UNK     0      -2.996   0.871 -31.609  0.00  0.00     0.058 A 
HETATM   14  C   UNK     0      -2.107   1.429 -29.463  0.00  0.00     0.294 C 
HETATM   15  O   UNK     0      -0.319  -2.053 -32.560  0.00  0.00     0.000 OA
HETATM   16  O   UNK     0      -1.282   2.277 -29.214  0.00  0.00    -0.259 OA
HETATM   17  C   UNK     0      -3.560   0.773 -26.162  0.00  0.00     0.302 C 
HETATM   18  C   UNK     0      -2.605   1.061 -27.296  0.00  0.00     0.219 C 
HETATM   19  O   UNK     0      -2.766   0.415 -24.965  0.00  0.00    -0.348 OA
HETATM   20  C   UNK     0      -1.774  -0.053 -27.352  0.00  0.00     0.184 C 
HETATM   21  C   UNK     0      -1.370  -0.091 -24.996  0.00  0.00     0.181 C 
HETATM   22  C   UNK     0      -0.753   0.168 -26.379  0.00  0.00     0.194 C 
HETATM   23  O   UNK     0       0.325  -0.672 -26.714  0.00  0.00    -0.307 OA
HETATM   24  O   UNK     0      -3.181   1.232 -28.576  0.00  0.00    -0.304 OA
HETATM   25  C   UNK     0       0.623  -0.072 -27.927  0.00  0.00     0.294 C 
HETATM   26  O   UNK     0       0.446   1.120 -28.012  0.00  0.00    -0.259 OA
HETATM   27  H   UNK     0       1.407  -1.952 -33.351  0.00  0.00     0.000 HD
HETATM   28  H   UNK     0      -0.467  -2.561 -33.423  0.00  0.00     0.000 HD
ENDROOT
BRANCH  21  29
HETATM   29  C   UNK     0      -0.518   0.652 -23.937  0.00  0.00     0.213 C 
BRANCH  29  30
HETATM   30  O   UNK     0       0.880   0.366 -23.903  0.00  0.00    -0.315 OA
BRANCH  30  31
HETATM   31  C   UNK     0       1.416  -0.257 -22.813  0.00  0.00     0.293 C 
HETATM   32  O   UNK     0       1.505  -1.463 -22.811  0.00  0.00    -0.259 OA
BRANCH  31  33
HETATM   33  C   UNK     0       1.930   0.501 -21.641  0.00  0.00     0.044 A 
HETATM   34  C   UNK     0       3.046   1.302 -21.822  0.00  0.00     0.055 A 
HETATM   35  C   UNK     0       3.576   2.017 -20.761  0.00  0.00     0.080 A 
HETATM   36  C   UNK     0       2.988   1.936 -19.513  0.00  0.00     0.047 A 
HETATM   37  C   UNK     0       1.867   1.139 -19.312  0.00  0.00     0.091 A 
HETATM   38  O   UNK     0       3.516   2.642 -18.477  0.00  0.00     0.000 OA
HETATM   39  C   UNK     0       1.340   0.419 -20.383  0.00  0.00     0.056 A 
HETATM   40  O   UNK     0       1.299   1.065 -18.062  0.00  0.00    -0.306 OA
HETATM   41  C   UNK     0       1.841   1.759 -17.011  0.00  0.00     0.121 A 
HETATM   42  O   UNK     0       2.843   2.410 -17.194  0.00  0.00     0.000 OA
HETATM   43  H   UNK     0       3.092   2.586 -17.559  0.00  0.00     0.000 HD
BRANCH  35  44
HETATM   44  O   UNK     0       4.677   2.795 -20.943  0.00  0.00    -0.360 OA
HETATM   45  H   UNK     0       5.571   2.366 -21.149  0.00  0.00     0.217 HD
ENDBRANCH  35  44
BRANCH  41  46
HETATM   46  C   UNK     0       1.246   1.750 -15.662  0.00  0.00     0.006 A 
HETATM   47  C   UNK     0      -0.119   1.537 -15.534  0.00  0.00     0.054 A 
HETATM   48  C   UNK     0      -0.707   1.510 -14.279  0.00  0.00     0.102 A 
HETATM   49  C   UNK     0       0.071   1.697 -13.149  0.00  0.00     0.132 A 
HETATM   50  C   UNK     0       1.436   1.913 -13.273  0.00  0.00     0.102 A 
HETATM   51  C   UNK     0       2.025   1.937 -14.530  0.00  0.00     0.054 A 
BRANCH  48  52
HETATM   52  O   UNK     0      -2.044   1.298 -14.158  0.00  0.00    -0.358 OA
HETATM   53  H   UNK     0      -2.687   2.079 -14.203  0.00  0.00     0.217 HD
ENDBRANCH  48  52
BRANCH  49  54
HETATM   54  O   UNK     0      -0.506   1.668 -11.918  0.00  0.00    -0.356 OA
HETATM   55  H   UNK     0      -1.410   2.098 -11.772  0.00  0.00     0.218 HD
ENDBRANCH  49  54
BRANCH  50  56
HETATM   56  O   UNK     0       2.197   2.099 -12.161  0.00  0.00    -0.358 OA
HETATM   57  H   UNK     0       1.791   1.976 -11.243  0.00  0.00     0.217 HD
ENDBRANCH  50  56
ENDBRANCH  41  46
ENDBRANCH  31  33
ENDBRANCH  30  31
ENDBRANCH  29  30
ENDBRANCH  21  29
BRANCH  17  58
HETATM   58  O   UNK     0      -4.353   1.916 -25.894  0.00  0.00    -0.283 OA
BRANCH  58  59
HETATM   59  C   UNK     0      -4.448   2.413 -24.633  0.00  0.00     0.295 C 
HETATM   60  O   UNK     0      -3.453   2.745 -24.030  0.00  0.00    -0.259 OA
BRANCH  59  61
HETATM   61  C   UNK     0      -5.771   2.540 -24.005  0.00  0.00     0.045 A 
HETATM   62  C   UNK     0      -6.207   1.569 -23.117  0.00  0.00     0.057 A 
HETATM   63  C   UNK     0      -7.450   1.685 -22.516  0.00  0.00     0.102 A 
HETATM   64  C   UNK     0      -8.260   2.771 -22.807  0.00  0.00     0.132 A 
HETATM   65  C   UNK     0      -7.824   3.743 -23.695  0.00  0.00     0.102 A 
HETATM   66  C   UNK     0      -6.579   3.629 -24.294  0.00  0.00     0.057 A 
BRANCH  63  67
HETATM   67  O   UNK     0      -7.874   0.734 -21.641  0.00  0.00    -0.358 OA
HETATM   68  H   UNK     0      -8.290   1.007 -20.760  0.00  0.00     0.217 HD
ENDBRANCH  63  67
BRANCH  64  69
HETATM   69  O   UNK     0      -9.484   2.884 -22.222  0.00  0.00    -0.356 OA
HETATM   70  H   UNK     0     -10.227   3.383 -22.695  0.00  0.00     0.218 HD
ENDBRANCH  64  69
BRANCH  65  71
HETATM   71  O   UNK     0      -8.619   4.808 -23.979  0.00  0.00    -0.358 OA
HETATM   72  H   UNK     0      -9.488   4.939 -23.478  0.00  0.00     0.217 HD
ENDBRANCH  65  71
ENDBRANCH  59  61
ENDBRANCH  58  59
ENDBRANCH  17  58
BRANCH  20  73
HETATM   73  O   UNK     0      -1.207  -0.188 -28.646  0.00  0.00    -0.390 OA
HETATM   74  H   UNK     0      -0.811  -1.074 -28.935  0.00  0.00     0.210 HD
ENDBRANCH  20  73
BRANCH   5  75
HETATM   75  O   UNK     0       4.247  -2.553 -29.585  0.00  0.00    -0.358 OA
HETATM   76  H   UNK     0       4.819  -2.195 -28.832  0.00  0.00     0.217 HD
ENDBRANCH   5  75
BRANCH   3  77
HETATM   77  O   UNK     0       3.189  -2.638 -32.117  0.00  0.00    -0.357 OA
HETATM   78  H   UNK     0       3.226  -3.647 -32.168  0.00  0.00     0.217 HD
ENDBRANCH   3  77
BRANCH  12  79
HETATM   79  O   UNK     0      -3.988   0.393 -33.832  0.00  0.00    -0.304 OA
BRANCH  79  80
HETATM   80  C   UNK     0      -4.654   1.295 -34.613  0.00  0.00     0.129 A 
HETATM   81  C   UNK     0      -4.341   2.642 -34.747  0.00  0.00     0.077 A 
HETATM   82  C   UNK     0      -5.131   3.452 -35.553  0.00  0.00     0.060 A 
HETATM   83  C   UNK     0      -6.223   2.928 -36.229  0.00  0.00     0.102 A 
HETATM   84  C   UNK     0      -6.527   1.584 -36.104  0.00  0.00     0.135 A 
HETATM   85  C   UNK     0      -5.743   0.778 -35.302  0.00  0.00     0.137 A 
BRANCH  81  86
HETATM   86  C   UNK     0      -3.193   3.232 -34.055  0.00  0.00     0.179 C 
HETATM   87  O   UNK     0      -2.068   2.992 -34.427  0.00  0.00    -0.646 OA
BRANCH  86  88
HETATM   88  O   UNK     0      -3.403   4.050 -32.987  0.00  0.00    -0.773 OA
HETATM   89  H   UNK     0      -2.642   4.607 -32.621  0.00  0.00     0.167 HD
ENDBRANCH  86  88
ENDBRANCH  81  86
BRANCH  83  90
HETATM   90  O   UNK     0      -6.996   3.727 -37.013  0.00  0.00    -0.358 OA
HETATM   91  H   UNK     0      -7.710   3.319 -37.602  0.00  0.00     0.217 HD
ENDBRANCH  83  90
BRANCH  84  92
HETATM   92  O   UNK     0      -7.594   1.056 -36.764  0.00  0.00    -0.356 OA
HETATM   93  H   UNK     0      -8.531   1.359 -36.534  0.00  0.00     0.218 HD
ENDBRANCH  84  92
BRANCH  85  94
HETATM   94  O   UNK     0      -6.044  -0.543 -35.183  0.00  0.00    -0.356 OA
HETATM   95  H   UNK     0      -6.117  -1.123 -36.010  0.00  0.00     0.218 HD
ENDBRANCH  85  94
ENDBRANCH  79  80
ENDBRANCH  12  79
BRANCH  10  96
HETATM   96  O   UNK     0      -2.274  -1.477 -34.249  0.00  0.00    -0.357 OA
HETATM   97  H   UNK     0      -2.704  -1.054 -35.062  0.00  0.00     0.217 HD
ENDBRANCH  10  96
TORSDOF 26
