REMARK VINA RESULT:      -7.8      5.067     13.712
REMARK  26 active torsions:
REMARK  status: ('A' for Active; 'I' for Inactive)
REMARK    1  A    between atoms: C_1  and  C_7 
REMARK    2  A    between atoms: C_4  and  O_9 
REMARK    3  A    between atoms: C_5  and  O_11 
REMARK    4  A    between atoms: C_6  and  O_10 
REMARK    5  A    between atoms: C_12  and  C_18 
REMARK    6  A    between atoms: C_15  and  O_76 
REMARK    7  A    between atoms: C_18  and  O_74 
REMARK    8  A    between atoms: C_21  and  O_25 
REMARK    9  A    between atoms: C_23  and  O_26 
REMARK   10  A    between atoms: C_30  and  O_35 
REMARK   11  A    between atoms: C_32  and  O_36 
REMARK   12  A    between atoms: O_36  and  C_67 
REMARK   13  A    between atoms: C_39  and  O_60 
REMARK   14  A    between atoms: C_41  and  O_58 
REMARK   15  A    between atoms: C_42  and  C_45 
REMARK   16  A    between atoms: C_43  and  O_59 
REMARK   17  A    between atoms: C_45  and  O_53 
REMARK   18  A    between atoms: C_47  and  O_53 
REMARK   19  A    between atoms: C_50  and  O_55 
REMARK   20  A    between atoms: C_51  and  C_54 
REMARK   21  A    between atoms: C_54  and  O_74 
REMARK   22  A    between atoms: C_64  and  O_69 
REMARK   23  A    between atoms: C_65  and  C_72 
REMARK   24  A    between atoms: C_66  and  O_70 
REMARK   25  A    between atoms: C_68  and  O_71 
REMARK   26  A    between atoms: C_72  and  O_73 
ROOT
HETATM    1  C   UNK     0      -3.362   3.487 -27.055  0.00  0.00     0.026 A 
HETATM    2  C   UNK     0      -2.144   2.846 -26.769  0.00  0.00     0.006 A 
HETATM    3  C   UNK     0      -3.884   4.537 -26.324  0.00  0.00     0.111 A 
HETATM    4  C   UNK     0      -1.514   3.321 -25.581  0.00  0.00     0.054 A 
HETATM    5  C   UNK     0      -3.216   5.002 -25.222  0.00  0.00     0.100 A 
HETATM    6  C   UNK     0      -2.049   4.376 -24.855  0.00  0.00     0.058 A 
HETATM    7  O   UNK     0      -4.110   3.058 -28.101  0.00  0.00     0.000 OA
HETATM    8  C   UNK     0      -2.590   1.957 -29.018  0.00  0.00     0.026 A 
HETATM    9  C   UNK     0      -1.821   1.704 -27.879  0.00  0.00     0.006 A 
HETATM   10  C   UNK     0      -2.675   1.110 -30.091  0.00  0.00     0.111 A 
HETATM   11  C   UNK     0      -0.995   0.530 -27.964  0.00  0.00     0.054 A 
HETATM   12  C   UNK     0      -1.965  -0.054 -30.122  0.00  0.00     0.111 A 
HETATM   13  C   UNK     0      -1.104  -0.327 -29.071  0.00  0.00     0.058 A 
HETATM   14  C   UNK     0       0.019   0.033 -26.994  0.00  0.00     0.294 C 
HETATM   15  O   UNK     0      -3.311   3.101 -29.095  0.00  0.00     0.000 OA
HETATM   16  O   UNK     0      -0.337  -0.337 -25.900  0.00  0.00    -0.259 OA
HETATM   17  C   UNK     0       3.554   0.822 -26.430  0.00  0.00     0.302 C 
HETATM   18  C   UNK     0       2.058   0.675 -26.281  0.00  0.00     0.219 C 
HETATM   19  O   UNK     0       4.039   1.735 -25.371  0.00  0.00    -0.348 OA
HETATM   20  C   UNK     0       1.575   1.978 -26.247  0.00  0.00     0.184 C 
HETATM   21  C   UNK     0       3.195   2.726 -24.657  0.00  0.00     0.181 C 
HETATM   22  C   UNK     0       1.710   2.413 -24.894  0.00  0.00     0.194 C 
HETATM   23  O   UNK     0       0.839   3.505 -24.723  0.00  0.00    -0.307 OA
HETATM   24  O   UNK     0       1.387  -0.006 -27.323  0.00  0.00    -0.304 OA
HETATM   25  C   UNK     0      -0.338   2.804 -24.929  0.00  0.00     0.294 C 
HETATM   26  O   UNK     0      -0.369   1.654 -24.558  0.00  0.00    -0.259 OA
HETATM   27  H   UNK     0      -4.993   3.504 -28.307  0.00  0.00     0.000 HD
HETATM   28  H   UNK     0      -3.873   3.290 -29.915  0.00  0.00     0.000 HD
ENDROOT
BRANCH  21  29
HETATM   29  C   UNK     0       3.469   2.651 -23.134  0.00  0.00     0.213 C 
BRANCH  29  30
HETATM   30  O   UNK     0       3.449   3.878 -22.404  0.00  0.00    -0.315 OA
BRANCH  30  31
HETATM   31  C   UNK     0       2.393   4.161 -21.587  0.00  0.00     0.293 C 
HETATM   32  O   UNK     0       1.834   5.228 -21.698  0.00  0.00    -0.259 OA
BRANCH  31  33
HETATM   33  C   UNK     0       1.880   3.184 -20.589  0.00  0.00     0.044 A 
HETATM   34  C   UNK     0       1.204   2.069 -21.056  0.00  0.00     0.055 A 
HETATM   35  C   UNK     0       0.692   1.136 -20.170  0.00  0.00     0.080 A 
HETATM   36  C   UNK     0       0.857   1.315 -18.809  0.00  0.00     0.047 A 
HETATM   37  C   UNK     0       1.534   2.426 -18.321  0.00  0.00     0.091 A 
HETATM   38  O   UNK     0       0.351   0.394 -17.946  0.00  0.00     0.000 OA
HETATM   39  C   UNK     0       2.045   3.363 -19.217  0.00  0.00     0.056 A 
HETATM   40  O   UNK     0       1.684   2.591 -16.964  0.00  0.00    -0.306 OA
HETATM   41  C   UNK     0       1.156   1.676 -16.092  0.00  0.00     0.121 A 
HETATM   42  O   UNK     0       0.531   0.739 -16.532  0.00  0.00     0.000 OA
HETATM   43  H   UNK     0       0.466   0.518 -16.949  0.00  0.00     0.000 HD
BRANCH  35  44
HETATM   44  O   UNK     0       0.022   0.047 -20.634  0.00  0.00    -0.360 OA
HETATM   45  H   UNK     0      -0.988   0.008 -20.568  0.00  0.00     0.217 HD
ENDBRANCH  35  44
BRANCH  41  46
HETATM   46  C   UNK     0       1.326   1.781 -14.630  0.00  0.00     0.006 A 
HETATM   47  C   UNK     0       2.607   1.903 -14.112  0.00  0.00     0.054 A 
HETATM   48  C   UNK     0       2.800   2.018 -12.745  0.00  0.00     0.102 A 
HETATM   49  C   UNK     0       1.709   2.009 -11.892  0.00  0.00     0.132 A 
HETATM   50  C   UNK     0       0.427   1.883 -12.406  0.00  0.00     0.102 A 
HETATM   51  C   UNK     0       0.233   1.772 -13.776  0.00  0.00     0.054 A 
BRANCH  48  52
HETATM   52  O   UNK     0       4.057   2.140 -12.242  0.00  0.00    -0.358 OA
HETATM   53  H   UNK     0       4.476   1.372 -11.734  0.00  0.00     0.217 HD
ENDBRANCH  48  52
BRANCH  49  54
HETATM   54  O   UNK     0       1.898   2.123 -10.550  0.00  0.00    -0.356 OA
HETATM   55  H   UNK     0       2.784   2.455 -10.190  0.00  0.00     0.218 HD
ENDBRANCH  49  54
BRANCH  50  56
HETATM   56  O   UNK     0      -0.643   1.872 -11.565  0.00  0.00    -0.358 OA
HETATM   57  H   UNK     0      -1.551   1.585 -11.904  0.00  0.00     0.217 HD
ENDBRANCH  50  56
ENDBRANCH  41  46
ENDBRANCH  31  33
ENDBRANCH  30  31
ENDBRANCH  29  30
ENDBRANCH  21  29
BRANCH  17  58
HETATM   58  O   UNK     0       4.180  -0.443 -26.305  0.00  0.00    -0.283 OA
BRANCH  58  59
HETATM   59  C   UNK     0       3.491  -1.513 -25.828  0.00  0.00     0.295 C 
HETATM   60  O   UNK     0       3.130  -2.391 -26.578  0.00  0.00    -0.259 OA
BRANCH  59  61
HETATM   61  C   UNK     0       3.184  -1.592 -24.392  0.00  0.00     0.045 A 
HETATM   62  C   UNK     0       4.089  -1.098 -23.467  0.00  0.00     0.057 A 
HETATM   63  C   UNK     0       3.803  -1.163 -22.112  0.00  0.00     0.102 A 
HETATM   64  C   UNK     0       2.613  -1.727 -21.683  0.00  0.00     0.132 A 
HETATM   65  C   UNK     0       1.706  -2.221 -22.610  0.00  0.00     0.102 A 
HETATM   66  C   UNK     0       1.991  -2.153 -23.965  0.00  0.00     0.057 A 
BRANCH  63  67
HETATM   67  O   UNK     0       4.691  -0.673 -21.206  0.00  0.00    -0.358 OA
HETATM   68  H   UNK     0       4.398  -0.500 -20.253  0.00  0.00     0.217 HD
ENDBRANCH  63  67
BRANCH  64  69
HETATM   69  O   UNK     0       2.333  -1.797 -20.353  0.00  0.00    -0.356 OA
HETATM   70  H   UNK     0       1.537  -2.334 -20.031  0.00  0.00     0.218 HD
ENDBRANCH  64  69
BRANCH  65  71
HETATM   71  O   UNK     0       0.538  -2.772 -22.188  0.00  0.00    -0.358 OA
HETATM   72  H   UNK     0       0.097  -3.502 -22.732  0.00  0.00     0.217 HD
ENDBRANCH  65  71
ENDBRANCH  59  61
ENDBRANCH  58  59
ENDBRANCH  17  58
BRANCH  20  73
HETATM   73  O   UNK     0       0.214   2.017 -26.649  0.00  0.00    -0.390 OA
HETATM   74  H   UNK     0      -0.521   1.897 -25.963  0.00  0.00     0.210 HD
ENDBRANCH  20  73
BRANCH   5  75
HETATM   75  O   UNK     0      -3.708   6.044 -24.499  0.00  0.00    -0.358 OA
HETATM   76  H   UNK     0      -3.083   6.609 -23.939  0.00  0.00     0.217 HD
ENDBRANCH   5  75
BRANCH   3  77
HETATM   77  O   UNK     0      -5.061   5.106 -26.695  0.00  0.00    -0.357 OA
HETATM   78  H   UNK     0      -5.117   6.106 -26.837  0.00  0.00     0.217 HD
ENDBRANCH   3  77
BRANCH  12  79
HETATM   79  O   UNK     0      -2.230  -0.817 -31.228  0.00  0.00    -0.304 OA
BRANCH  79  80
HETATM   80  C   UNK     0      -2.083  -0.957 -32.579  0.00  0.00     0.129 A 
HETATM   81  C   UNK     0      -0.881  -0.940 -33.273  0.00  0.00     0.077 A 
HETATM   82  C   UNK     0      -0.887  -1.059 -34.658  0.00  0.00     0.060 A 
HETATM   83  C   UNK     0      -2.080  -1.198 -35.351  0.00  0.00     0.102 A 
HETATM   84  C   UNK     0      -3.277  -1.225 -34.658  0.00  0.00     0.135 A 
HETATM   85  C   UNK     0      -3.272  -1.107 -33.281  0.00  0.00     0.137 A 
BRANCH  81  86
HETATM   86  C   UNK     0       0.401  -0.801 -32.578  0.00  0.00     0.179 C 
HETATM   87  O   UNK     0       0.841   0.296 -32.325  0.00  0.00    -0.646 OA
BRANCH  86  88
HETATM   88  O   UNK     0       1.093  -1.917 -32.220  0.00  0.00    -0.773 OA
HETATM   89  H   UNK     0       0.631  -2.817 -32.211  0.00  0.00     0.167 HD
ENDBRANCH  86  88
ENDBRANCH  81  86
BRANCH  83  90
HETATM   90  O   UNK     0      -2.080  -1.308 -36.707  0.00  0.00    -0.358 OA
HETATM   91  H   UNK     0      -1.386  -0.814 -37.253  0.00  0.00     0.217 HD
ENDBRANCH  83  90
BRANCH  84  92
HETATM   92  O   UNK     0      -4.455  -1.365 -35.325  0.00  0.00    -0.356 OA
HETATM   93  H   UNK     0      -5.288  -1.646 -34.824  0.00  0.00     0.218 HD
ENDBRANCH  84  92
BRANCH  85  94
HETATM   94  O   UNK     0      -4.451  -1.135 -32.603  0.00  0.00    -0.356 OA
HETATM   95  H   UNK     0      -5.215  -0.537 -32.891  0.00  0.00     0.218 HD
ENDBRANCH  85  94
ENDBRANCH  79  80
ENDBRANCH  12  79
BRANCH  10  96
HETATM   96  O   UNK     0      -3.492   1.421 -31.133  0.00  0.00    -0.357 OA
HETATM   97  H   UNK     0      -3.477   0.858 -31.973  0.00  0.00     0.217 HD
ENDBRANCH  10  96
TORSDOF 26
