REMARK VINA RESULT:      -9.1      4.783     14.660
REMARK  26 active torsions:
REMARK  status: ('A' for Active; 'I' for Inactive)
REMARK    1  A    between atoms: C_1  and  C_7 
REMARK    2  A    between atoms: C_4  and  O_9 
REMARK    3  A    between atoms: C_5  and  O_11 
REMARK    4  A    between atoms: C_6  and  O_10 
REMARK    5  A    between atoms: C_12  and  C_18 
REMARK    6  A    between atoms: C_15  and  O_76 
REMARK    7  A    between atoms: C_18  and  O_74 
REMARK    8  A    between atoms: C_21  and  O_25 
REMARK    9  A    between atoms: C_23  and  O_26 
REMARK   10  A    between atoms: C_30  and  O_35 
REMARK   11  A    between atoms: C_32  and  O_36 
REMARK   12  A    between atoms: O_36  and  C_67 
REMARK   13  A    between atoms: C_39  and  O_60 
REMARK   14  A    between atoms: C_41  and  O_58 
REMARK   15  A    between atoms: C_42  and  C_45 
REMARK   16  A    between atoms: C_43  and  O_59 
REMARK   17  A    between atoms: C_45  and  O_53 
REMARK   18  A    between atoms: C_47  and  O_53 
REMARK   19  A    between atoms: C_50  and  O_55 
REMARK   20  A    between atoms: C_51  and  C_54 
REMARK   21  A    between atoms: C_54  and  O_74 
REMARK   22  A    between atoms: C_64  and  O_69 
REMARK   23  A    between atoms: C_65  and  C_72 
REMARK   24  A    between atoms: C_66  and  O_70 
REMARK   25  A    between atoms: C_68  and  O_71 
REMARK   26  A    between atoms: C_72  and  O_73 
ROOT
HETATM    1  C   UNK     0       1.117  -1.507 -31.086  0.00  0.00     0.026 A 
HETATM    2  C   UNK     0       0.274  -0.927 -30.122  0.00  0.00     0.006 A 
HETATM    3  C   UNK     0       2.424  -1.890 -30.854  0.00  0.00     0.111 A 
HETATM    4  C   UNK     0       0.919  -0.681 -28.874  0.00  0.00     0.054 A 
HETATM    5  C   UNK     0       2.987  -1.689 -29.621  0.00  0.00     0.100 A 
HETATM    6  C   UNK     0       2.233  -1.071 -28.653  0.00  0.00     0.058 A 
HETATM    7  O   UNK     0       0.653  -1.699 -32.346  0.00  0.00     0.000 OA
HETATM    8  C   UNK     0      -1.367  -1.468 -31.871  0.00  0.00     0.026 A 
HETATM    9  C   UNK     0      -1.209  -0.671 -30.734  0.00  0.00     0.006 A 
HETATM   10  C   UNK     0      -2.441  -1.394 -32.718  0.00  0.00     0.111 A 
HETATM   11  C   UNK     0      -2.341   0.160 -30.425  0.00  0.00     0.054 A 
HETATM   12  C   UNK     0      -3.467  -0.529 -32.473  0.00  0.00     0.111 A 
HETATM   13  C   UNK     0      -3.429   0.225 -31.312  0.00  0.00     0.058 A 
HETATM   14  C   UNK     0      -2.557   1.035 -29.241  0.00  0.00     0.294 C 
HETATM   15  O   UNK     0      -0.415  -2.378 -32.187  0.00  0.00     0.000 OA
HETATM   16  O   UNK     0      -1.845   1.999 -29.078  0.00  0.00    -0.259 OA
HETATM   17  C   UNK     0      -3.805   0.414 -25.851  0.00  0.00     0.302 C 
HETATM   18  C   UNK     0      -2.933   0.750 -27.038  0.00  0.00     0.219 C 
HETATM   19  O   UNK     0      -2.934   0.244 -24.667  0.00  0.00    -0.348 OA
HETATM   20  C   UNK     0      -1.962  -0.246 -27.058  0.00  0.00     0.184 C 
HETATM   21  C   UNK     0      -1.484  -0.074 -24.722  0.00  0.00     0.181 C 
HETATM   22  C   UNK     0      -0.950   0.172 -26.141  0.00  0.00     0.194 C 
HETATM   23  O   UNK     0       0.219  -0.539 -26.466  0.00  0.00    -0.307 OA
HETATM   24  O   UNK     0      -3.567   0.758 -28.301  0.00  0.00    -0.304 OA
HETATM   25  C   UNK     0       0.397   0.013 -27.725  0.00  0.00     0.294 C 
HETATM   26  O   UNK     0       0.058   1.163 -27.876  0.00  0.00    -0.259 OA
HETATM   27  H   UNK     0       1.256  -2.103 -33.050  0.00  0.00     0.000 HD
HETATM   28  H   UNK     0      -0.520  -2.956 -33.010  0.00  0.00     0.000 HD
ENDROOT
BRANCH  21  29
HETATM   29  C   UNK     0      -0.707   0.843 -23.745  0.00  0.00     0.213 C 
BRANCH  29  30
HETATM   30  O   UNK     0       0.676   0.555 -23.535  0.00  0.00    -0.315 OA
BRANCH  30  31
HETATM   31  C   UNK     0       1.101   0.142 -22.306  0.00  0.00     0.293 C 
HETATM   32  O   UNK     0       1.210  -1.043 -22.089  0.00  0.00    -0.259 OA
BRANCH  31  33
HETATM   33  C   UNK     0       1.471   1.103 -21.233  0.00  0.00     0.044 A 
HETATM   34  C   UNK     0       2.014   2.322 -21.608  0.00  0.00     0.055 A 
HETATM   35  C   UNK     0       2.392   3.247 -20.650  0.00  0.00     0.080 A 
HETATM   36  C   UNK     0       2.224   2.957 -19.309  0.00  0.00     0.047 A 
HETATM   37  C   UNK     0       1.680   1.742 -18.912  0.00  0.00     0.091 A 
HETATM   38  O   UNK     0       2.598   3.873 -18.375  0.00  0.00     0.000 OA
HETATM   39  C   UNK     0       1.304   0.813 -19.881  0.00  0.00     0.056 A 
HETATM   40  O   UNK     0       1.526   1.468 -17.573  0.00  0.00    -0.306 OA
HETATM   41  C   UNK     0       1.921   2.380 -16.629  0.00  0.00     0.121 A 
HETATM   42  O   UNK     0       2.435   3.413 -16.990  0.00  0.00     0.000 OA
HETATM   43  H   UNK     0       2.480   3.668 -17.390  0.00  0.00     0.000 HD
BRANCH  35  44
HETATM   44  O   UNK     0       2.932   4.438 -21.025  0.00  0.00    -0.360 OA
HETATM   45  H   UNK     0       2.328   5.204 -21.297  0.00  0.00     0.217 HD
ENDBRANCH  35  44
BRANCH  41  46
HETATM   46  C   UNK     0       1.738   2.156 -15.183  0.00  0.00     0.006 A 
HETATM   47  C   UNK     0       0.482   1.801 -14.714  0.00  0.00     0.054 A 
HETATM   48  C   UNK     0       0.280   1.570 -13.362  0.00  0.00     0.102 A 
HETATM   49  C   UNK     0       1.337   1.696 -12.476  0.00  0.00     0.132 A 
HETATM   50  C   UNK     0       2.594   2.054 -12.941  0.00  0.00     0.102 A 
HETATM   51  C   UNK     0       2.797   2.282 -14.295  0.00  0.00     0.054 A 
BRANCH  48  52
HETATM   52  O   UNK     0      -0.952   1.220 -12.908  0.00  0.00    -0.358 OA
HETATM   53  H   UNK     0      -1.771   1.721 -13.228  0.00  0.00     0.217 HD
ENDBRANCH  48  52
BRANCH  49  54
HETATM   54  O   UNK     0       1.139   1.468 -11.150  0.00  0.00    -0.356 OA
HETATM   55  H   UNK     0       0.922   2.238 -10.531  0.00  0.00     0.218 HD
ENDBRANCH  49  54
BRANCH  50  56
HETATM   56  O   UNK     0       3.630   2.179 -12.067  0.00  0.00    -0.358 OA
HETATM   57  H   UNK     0       3.690   1.569 -11.263  0.00  0.00     0.217 HD
ENDBRANCH  50  56
ENDBRANCH  41  46
ENDBRANCH  31  33
ENDBRANCH  30  31
ENDBRANCH  29  30
ENDBRANCH  21  29
BRANCH  17  58
HETATM   58  O   UNK     0      -4.735   1.458 -25.623  0.00  0.00    -0.283 OA
BRANCH  58  59
HETATM   59  C   UNK     0      -4.661   2.219 -24.500  0.00  0.00     0.295 C 
HETATM   60  O   UNK     0      -3.638   2.804 -24.224  0.00  0.00    -0.259 OA
BRANCH  59  61
HETATM   61  C   UNK     0      -5.833   2.323 -23.619  0.00  0.00     0.045 A 
HETATM   62  C   UNK     0      -6.392   3.565 -23.361  0.00  0.00     0.057 A 
HETATM   63  C   UNK     0      -7.501   3.670 -22.537  0.00  0.00     0.102 A 
HETATM   64  C   UNK     0      -8.049   2.532 -21.967  0.00  0.00     0.132 A 
HETATM   65  C   UNK     0      -7.491   1.290 -22.225  0.00  0.00     0.102 A 
HETATM   66  C   UNK     0      -6.383   1.184 -23.053  0.00  0.00     0.057 A 
BRANCH  63  67
HETATM   67  O   UNK     0      -8.051   4.889 -22.289  0.00  0.00    -0.358 OA
HETATM   68  H   UNK     0      -7.786   5.687 -22.852  0.00  0.00     0.217 HD
ENDBRANCH  63  67
BRANCH  64  69
HETATM   69  O   UNK     0      -9.135   2.634 -21.152  0.00  0.00    -0.356 OA
HETATM   70  H   UNK     0      -9.215   2.037 -20.339  0.00  0.00     0.218 HD
ENDBRANCH  64  69
BRANCH  65  71
HETATM   71  O   UNK     0      -8.030   0.174 -21.667  0.00  0.00    -0.358 OA
HETATM   72  H   UNK     0      -8.507   0.233 -20.777  0.00  0.00     0.217 HD
ENDBRANCH  65  71
ENDBRANCH  59  61
ENDBRANCH  58  59
ENDBRANCH  17  58
BRANCH  20  73
HETATM   73  O   UNK     0      -1.422  -0.391 -28.362  0.00  0.00    -0.390 OA
HETATM   74  H   UNK     0      -1.084   0.420 -28.864  0.00  0.00     0.210 HD
ENDBRANCH  20  73
BRANCH   5  75
HETATM   75  O   UNK     0       4.267  -2.073 -29.370  0.00  0.00    -0.358 OA
HETATM   76  H   UNK     0       4.806  -2.536 -30.090  0.00  0.00     0.217 HD
ENDBRANCH   5  75
BRANCH   3  77
HETATM   77  O   UNK     0       3.152  -2.464 -31.847  0.00  0.00    -0.357 OA
HETATM   78  H   UNK     0       2.746  -3.197 -32.413  0.00  0.00     0.217 HD
ENDBRANCH   3  77
BRANCH  12  79
HETATM   79  O   UNK     0      -4.417  -0.527 -33.460  0.00  0.00    -0.304 OA
BRANCH  79  80
HETATM   80  C   UNK     0      -5.080   0.205 -34.404  0.00  0.00     0.129 A 
HETATM   81  C   UNK     0      -5.851  -0.309 -35.438  0.00  0.00     0.077 A 
HETATM   82  C   UNK     0      -6.441   0.559 -36.349  0.00  0.00     0.060 A 
HETATM   83  C   UNK     0      -6.272   1.930 -36.233  0.00  0.00     0.102 A 
HETATM   84  C   UNK     0      -5.513   2.442 -35.196  0.00  0.00     0.135 A 
HETATM   85  C   UNK     0      -4.926   1.580 -34.289  0.00  0.00     0.137 A 
BRANCH  81  86
HETATM   86  C   UNK     0      -6.059  -1.750 -35.593  0.00  0.00     0.179 C 
HETATM   87  O   UNK     0      -7.065  -2.169 -36.118  0.00  0.00    -0.646 OA
BRANCH  86  88
HETATM   88  O   UNK     0      -5.112  -2.616 -35.138  0.00  0.00    -0.773 OA
HETATM   89  H   UNK     0      -4.523  -3.111 -35.795  0.00  0.00     0.167 HD
ENDBRANCH  86  88
ENDBRANCH  81  86
BRANCH  83  90
HETATM   90  O   UNK     0      -6.848   2.774 -37.131  0.00  0.00    -0.358 OA
HETATM   91  H   UNK     0      -7.428   2.403 -37.872  0.00  0.00     0.217 HD
ENDBRANCH  83  90
BRANCH  84  92
HETATM   92  O   UNK     0      -5.342   3.786 -35.066  0.00  0.00    -0.356 OA
HETATM   93  H   UNK     0      -5.281   4.369 -35.891  0.00  0.00     0.218 HD
ENDBRANCH  84  92
BRANCH  85  94
HETATM   94  O   UNK     0      -4.181   2.087 -33.270  0.00  0.00    -0.356 OA
HETATM   95  H   UNK     0      -4.301   3.051 -32.985  0.00  0.00     0.218 HD
ENDBRANCH  85  94
ENDBRANCH  79  80
ENDBRANCH  12  79
BRANCH  10  96
HETATM   96  O   UNK     0      -2.481  -2.177 -33.829  0.00  0.00    -0.357 OA
HETATM   97  H   UNK     0      -1.627  -2.578 -34.197  0.00  0.00     0.217 HD
ENDBRANCH  10  96
TORSDOF 26
