REMARK VINA RESULT:      -7.9      1.848      2.904
REMARK  26 active torsions:
REMARK  status: ('A' for Active; 'I' for Inactive)
REMARK    1  A    between atoms: C_1  and  C_7 
REMARK    2  A    between atoms: C_4  and  O_9 
REMARK    3  A    between atoms: C_5  and  O_11 
REMARK    4  A    between atoms: C_6  and  O_10 
REMARK    5  A    between atoms: C_12  and  C_18 
REMARK    6  A    between atoms: C_15  and  O_76 
REMARK    7  A    between atoms: C_18  and  O_74 
REMARK    8  A    between atoms: C_21  and  O_25 
REMARK    9  A    between atoms: C_23  and  O_26 
REMARK   10  A    between atoms: C_30  and  O_35 
REMARK   11  A    between atoms: C_32  and  O_36 
REMARK   12  A    between atoms: O_36  and  C_67 
REMARK   13  A    between atoms: C_39  and  O_60 
REMARK   14  A    between atoms: C_41  and  O_58 
REMARK   15  A    between atoms: C_42  and  C_45 
REMARK   16  A    between atoms: C_43  and  O_59 
REMARK   17  A    between atoms: C_45  and  O_53 
REMARK   18  A    between atoms: C_47  and  O_53 
REMARK   19  A    between atoms: C_50  and  O_55 
REMARK   20  A    between atoms: C_51  and  C_54 
REMARK   21  A    between atoms: C_54  and  O_74 
REMARK   22  A    between atoms: C_64  and  O_69 
REMARK   23  A    between atoms: C_65  and  C_72 
REMARK   24  A    between atoms: C_66  and  O_70 
REMARK   25  A    between atoms: C_68  and  O_71 
REMARK   26  A    between atoms: C_72  and  O_73 
ROOT
HETATM    1  C   UNK     0      -3.389   3.192 -25.665  0.00  0.00     0.026 A 
HETATM    2  C   UNK     0      -2.869   2.523 -26.786  0.00  0.00     0.006 A 
HETATM    3  C   UNK     0      -4.230   4.287 -25.728  0.00  0.00     0.111 A 
HETATM    4  C   UNK     0      -3.219   3.131 -28.028  0.00  0.00     0.054 A 
HETATM    5  C   UNK     0      -4.590   4.804 -26.945  0.00  0.00     0.100 A 
HETATM    6  C   UNK     0      -4.065   4.230 -28.078  0.00  0.00     0.058 A 
HETATM    7  O   UNK     0      -3.045   2.774 -24.422  0.00  0.00     0.000 OA
HETATM    8  C   UNK     0      -2.311   0.911 -25.015  0.00  0.00     0.026 A 
HETATM    9  C   UNK     0      -1.974   1.246 -26.329  0.00  0.00     0.006 A 
HETATM   10  C   UNK     0      -1.647  -0.024 -24.266  0.00  0.00     0.111 A 
HETATM   11  C   UNK     0      -0.944   0.427 -26.909  0.00  0.00     0.054 A 
HETATM   12  C   UNK     0      -0.602  -0.728 -24.790  0.00  0.00     0.111 A 
HETATM   13  C   UNK     0      -0.273  -0.522 -26.120  0.00  0.00     0.058 A 
HETATM   14  C   UNK     0      -0.428   0.431 -28.305  0.00  0.00     0.294 C 
HETATM   15  O   UNK     0      -3.351   1.535 -24.413  0.00  0.00     0.000 OA
HETATM   16  O   UNK     0       0.159   1.404 -28.718  0.00  0.00    -0.259 OA
HETATM   17  C   UNK     0      -1.554  -1.167 -31.406  0.00  0.00     0.302 C 
HETATM   18  C   UNK     0      -1.196  -0.159 -30.339  0.00  0.00     0.219 C 
HETATM   19  O   UNK     0      -2.335  -0.476 -32.456  0.00  0.00    -0.348 OA
HETATM   20  C   UNK     0      -2.405   0.436 -29.993  0.00  0.00     0.184 C 
HETATM   21  C   UNK     0      -3.081   0.792 -32.258  0.00  0.00     0.181 C 
HETATM   22  C   UNK     0      -2.626   1.468 -30.955  0.00  0.00     0.194 C 
HETATM   23  O   UNK     0      -3.556   2.361 -30.394  0.00  0.00    -0.307 OA
HETATM   24  O   UNK     0      -0.616  -0.673 -29.157  0.00  0.00    -0.304 OA
HETATM   25  C   UNK     0      -2.755   2.789 -29.348  0.00  0.00     0.294 C 
HETATM   26  O   UNK     0      -1.566   2.852 -29.553  0.00  0.00    -0.259 OA
HETATM   27  H   UNK     0      -3.404   3.257 -23.609  0.00  0.00     0.000 HD
HETATM   28  H   UNK     0      -3.599   1.301 -23.461  0.00  0.00     0.000 HD
ENDROOT
BRANCH  21  29
HETATM   29  C   UNK     0      -2.794   1.760 -33.433  0.00  0.00     0.213 C 
BRANCH  29  30
HETATM   30  O   UNK     0      -2.465   1.180 -34.695  0.00  0.00    -0.315 OA
BRANCH  30  31
HETATM   31  C   UNK     0      -3.083   1.629 -35.827  0.00  0.00     0.293 C 
HETATM   32  O   UNK     0      -2.422   2.181 -36.676  0.00  0.00    -0.259 OA
BRANCH  31  33
HETATM   33  C   UNK     0      -4.537   1.430 -36.067  0.00  0.00     0.044 A 
HETATM   34  C   UNK     0      -5.306   2.541 -36.372  0.00  0.00     0.055 A 
HETATM   35  C   UNK     0      -6.667   2.415 -36.589  0.00  0.00     0.080 A 
HETATM   36  C   UNK     0      -7.266   1.172 -36.504  0.00  0.00     0.047 A 
HETATM   37  C   UNK     0      -6.512   0.045 -36.201  0.00  0.00     0.091 A 
HETATM   38  O   UNK     0      -8.605   1.058 -36.719  0.00  0.00     0.000 OA
HETATM   39  C   UNK     0      -5.142   0.178 -35.981  0.00  0.00     0.056 A 
HETATM   40  O   UNK     0      -7.126  -1.183 -36.115  0.00  0.00    -0.306 OA
HETATM   41  C   UNK     0      -8.478  -1.297 -36.310  0.00  0.00     0.121 A 
HETATM   42  O   UNK     0      -9.126  -0.300 -36.528  0.00  0.00     0.000 OA
HETATM   43  H   UNK     0      -9.051   0.152 -36.658  0.00  0.00     0.000 HD
BRANCH  35  44
HETATM   44  O   UNK     0      -7.418   3.512 -36.880  0.00  0.00    -0.360 OA
HETATM   45  H   UNK     0      -7.461   4.284 -36.226  0.00  0.00     0.217 HD
ENDBRANCH  35  44
BRANCH  41  46
HETATM   46  C   UNK     0      -9.178  -2.595 -36.273  0.00  0.00     0.006 A 
HETATM   47  C   UNK     0      -8.467  -3.729 -35.911  0.00  0.00     0.054 A 
HETATM   48  C   UNK     0      -9.099  -4.962 -35.854  0.00  0.00     0.102 A 
HETATM   49  C   UNK     0     -10.446  -5.061 -36.161  0.00  0.00     0.132 A 
HETATM   50  C   UNK     0     -11.159  -3.929 -36.527  0.00  0.00     0.102 A 
HETATM   51  C   UNK     0     -10.527  -2.694 -36.581  0.00  0.00     0.054 A 
BRANCH  48  52
HETATM   52  O   UNK     0      -8.399  -6.070 -35.495  0.00  0.00    -0.358 OA
HETATM   53  H   UNK     0      -8.438  -6.902 -36.070  0.00  0.00     0.217 HD
ENDBRANCH  48  52
BRANCH  49  54
HETATM   54  O   UNK     0     -11.066  -6.269 -36.102  0.00  0.00    -0.356 OA
HETATM   55  H   UNK     0     -12.028  -6.330 -35.794  0.00  0.00     0.218 HD
ENDBRANCH  49  54
BRANCH  50  56
HETATM   56  O   UNK     0     -12.482  -4.029 -36.830  0.00  0.00    -0.358 OA
HETATM   57  H   UNK     0     -12.917  -3.344 -37.434  0.00  0.00     0.217 HD
ENDBRANCH  50  56
ENDBRANCH  41  46
ENDBRANCH  31  33
ENDBRANCH  30  31
ENDBRANCH  29  30
ENDBRANCH  21  29
BRANCH  17  58
HETATM   58  O   UNK     0      -0.375  -1.721 -31.963  0.00  0.00    -0.283 OA
BRANCH  58  59
HETATM   59  C   UNK     0       0.687  -0.930 -32.266  0.00  0.00     0.295 C 
HETATM   60  O   UNK     0       1.620  -0.841 -31.500  0.00  0.00    -0.259 OA
BRANCH  59  61
HETATM   61  C   UNK     0       0.690  -0.177 -33.528  0.00  0.00     0.045 A 
HETATM   62  C   UNK     0       0.447  -0.837 -34.723  0.00  0.00     0.057 A 
HETATM   63  C   UNK     0       0.442  -0.133 -35.917  0.00  0.00     0.102 A 
HETATM   64  C   UNK     0       0.684   1.231 -35.916  0.00  0.00     0.132 A 
HETATM   65  C   UNK     0       0.926   1.892 -34.721  0.00  0.00     0.102 A 
HETATM   66  C   UNK     0       0.928   1.188 -33.526  0.00  0.00     0.057 A 
BRANCH  63  67
HETATM   67  O   UNK     0       0.199  -0.782 -37.087  0.00  0.00    -0.358 OA
HETATM   68  H   UNK     0      -0.629  -1.355 -37.185  0.00  0.00     0.217 HD
ENDBRANCH  63  67
BRANCH  64  69
HETATM   69  O   UNK     0       0.685   1.923 -37.088  0.00  0.00    -0.356 OA
HETATM   70  H   UNK     0       1.033   2.873 -37.114  0.00  0.00     0.218 HD
ENDBRANCH  64  69
BRANCH  65  71
HETATM   71  O   UNK     0       1.161   3.230 -34.721  0.00  0.00    -0.358 OA
HETATM   72  H   UNK     0       1.007   3.771 -35.561  0.00  0.00     0.217 HD
ENDBRANCH  65  71
ENDBRANCH  59  61
ENDBRANCH  58  59
ENDBRANCH  17  58
BRANCH  20  73
HETATM   73  O   UNK     0      -2.337   0.982 -28.685  0.00  0.00    -0.390 OA
HETATM   74  H   UNK     0      -2.265   1.984 -28.557  0.00  0.00     0.210 HD
ENDBRANCH  20  73
BRANCH   5  75
HETATM   75  O   UNK     0      -5.428   5.871 -27.026  0.00  0.00    -0.358 OA
HETATM   76  H   UNK     0      -6.284   5.802 -27.562  0.00  0.00     0.217 HD
ENDBRANCH   5  75
BRANCH   3  77
HETATM   77  O   UNK     0      -4.699   4.852 -24.585  0.00  0.00    -0.357 OA
HETATM   78  H   UNK     0      -5.586   4.554 -24.200  0.00  0.00     0.217 HD
ENDBRANCH   3  77
BRANCH  12  79
HETATM   79  O   UNK     0      -0.004  -1.560 -23.882  0.00  0.00    -0.304 OA
BRANCH  79  80
HETATM   80  C   UNK     0       1.072  -1.775 -23.067  0.00  0.00     0.129 A 
HETATM   81  C   UNK     0       1.509  -0.928 -22.057  0.00  0.00     0.077 A 
HETATM   82  C   UNK     0       2.644  -1.260 -21.328  0.00  0.00     0.060 A 
HETATM   83  C   UNK     0       3.341  -2.429 -21.596  0.00  0.00     0.102 A 
HETATM   84  C   UNK     0       2.898  -3.278 -22.595  0.00  0.00     0.135 A 
HETATM   85  C   UNK     0       1.769  -2.948 -23.321  0.00  0.00     0.137 A 
BRANCH  81  86
HETATM   86  C   UNK     0       0.798   0.313 -21.739  0.00  0.00     0.179 C 
HETATM   87  O   UNK     0       1.085   1.342 -22.305  0.00  0.00    -0.646 OA
BRANCH  86  88
HETATM   88  O   UNK     0      -0.186   0.299 -20.800  0.00  0.00    -0.773 OA
HETATM   89  H   UNK     0      -1.099  -0.072 -21.030  0.00  0.00     0.167 HD
ENDBRANCH  86  88
ENDBRANCH  81  86
BRANCH  83  90
HETATM   90  O   UNK     0       4.455  -2.746 -20.883  0.00  0.00    -0.358 OA
HETATM   91  H   UNK     0       4.375  -3.308 -20.046  0.00  0.00     0.217 HD
ENDBRANCH  83  90
BRANCH  84  92
HETATM   92  O   UNK     0       3.569  -4.430 -22.867  0.00  0.00    -0.356 OA
HETATM   93  H   UNK     0       3.981  -4.964 -22.112  0.00  0.00     0.218 HD
ENDBRANCH  84  92
BRANCH  85  94
HETATM   94  O   UNK     0       1.336  -3.785 -24.302  0.00  0.00    -0.356 OA
HETATM   95  H   UNK     0       1.716  -3.709 -25.237  0.00  0.00     0.218 HD
ENDBRANCH  85  94
ENDBRANCH  79  80
ENDBRANCH  12  79
BRANCH  10  96
HETATM   96  O   UNK     0      -2.018  -0.244 -22.977  0.00  0.00    -0.357 OA
HETATM   97  H   UNK     0      -2.499   0.480 -22.457  0.00  0.00     0.217 HD
ENDBRANCH  10  96
TORSDOF 26
