REMARK VINA RESULT:      -8.4      2.514      6.731
REMARK  26 active torsions:
REMARK  status: ('A' for Active; 'I' for Inactive)
REMARK    1  A    between atoms: C_1  and  C_7 
REMARK    2  A    between atoms: C_4  and  O_9 
REMARK    3  A    between atoms: C_5  and  O_11 
REMARK    4  A    between atoms: C_6  and  O_10 
REMARK    5  A    between atoms: C_12  and  C_18 
REMARK    6  A    between atoms: C_15  and  O_76 
REMARK    7  A    between atoms: C_18  and  O_74 
REMARK    8  A    between atoms: C_21  and  O_25 
REMARK    9  A    between atoms: C_23  and  O_26 
REMARK   10  A    between atoms: C_30  and  O_35 
REMARK   11  A    between atoms: C_32  and  O_36 
REMARK   12  A    between atoms: O_36  and  C_67 
REMARK   13  A    between atoms: C_39  and  O_60 
REMARK   14  A    between atoms: C_41  and  O_58 
REMARK   15  A    between atoms: C_42  and  C_45 
REMARK   16  A    between atoms: C_43  and  O_59 
REMARK   17  A    between atoms: C_45  and  O_53 
REMARK   18  A    between atoms: C_47  and  O_53 
REMARK   19  A    between atoms: C_50  and  O_55 
REMARK   20  A    between atoms: C_51  and  C_54 
REMARK   21  A    between atoms: C_54  and  O_74 
REMARK   22  A    between atoms: C_64  and  O_69 
REMARK   23  A    between atoms: C_65  and  C_72 
REMARK   24  A    between atoms: C_66  and  O_70 
REMARK   25  A    between atoms: C_68  and  O_71 
REMARK   26  A    between atoms: C_72  and  O_73 
ROOT
HETATM    1  C   UNK     0       2.508  -1.568 -28.881  0.00  0.00     0.026 A 
HETATM    2  C   UNK     0       1.372  -0.754 -28.729  0.00  0.00     0.006 A 
HETATM    3  C   UNK     0       2.993  -2.014 -30.095  0.00  0.00     0.111 A 
HETATM    4  C   UNK     0       0.691  -0.488 -29.954  0.00  0.00     0.054 A 
HETATM    5  C   UNK     0       2.341  -1.686 -31.255  0.00  0.00     0.100 A 
HETATM    6  C   UNK     0       1.189  -0.944 -31.167  0.00  0.00     0.058 A 
HETATM    7  O   UNK     0       3.185  -1.976 -27.780  0.00  0.00     0.000 OA
HETATM    8  C   UNK     0       2.338  -0.585 -26.474  0.00  0.00     0.026 A 
HETATM    9  C   UNK     0       1.142  -0.374 -27.166  0.00  0.00     0.006 A 
HETATM   10  C   UNK     0       2.462  -0.504 -25.112  0.00  0.00     0.111 A 
HETATM   11  C   UNK     0       0.051   0.080 -26.347  0.00  0.00     0.054 A 
HETATM   12  C   UNK     0       1.395  -0.171 -24.330  0.00  0.00     0.111 A 
HETATM   13  C   UNK     0       0.199   0.149 -24.952  0.00  0.00     0.058 A 
HETATM   14  C   UNK     0      -1.313   0.505 -26.767  0.00  0.00     0.294 C 
HETATM   15  O   UNK     0       3.462  -0.894 -27.163  0.00  0.00     0.000 OA
HETATM   16  O   UNK     0      -2.062  -0.305 -27.261  0.00  0.00    -0.259 OA
HETATM   17  C   UNK     0      -2.692   3.675 -27.986  0.00  0.00     0.302 C 
HETATM   18  C   UNK     0      -2.218   2.244 -27.876  0.00  0.00     0.219 C 
HETATM   19  O   UNK     0      -2.941   3.974 -29.414  0.00  0.00    -0.348 OA
HETATM   20  C   UNK     0      -1.161   2.151 -28.774  0.00  0.00     0.184 C 
HETATM   21  C   UNK     0      -2.342   3.230 -30.551  0.00  0.00     0.181 C 
HETATM   22  C   UNK     0      -1.750   1.903 -30.051  0.00  0.00     0.194 C 
HETATM   23  O   UNK     0      -0.744   1.357 -30.870  0.00  0.00    -0.307 OA
HETATM   24  O   UNK     0      -1.744   1.835 -26.609  0.00  0.00    -0.304 OA
HETATM   25  C   UNK     0      -0.565   0.190 -30.144  0.00  0.00     0.294 C 
HETATM   26  O   UNK     0      -1.538  -0.280 -29.604  0.00  0.00    -0.259 OA
HETATM   27  H   UNK     0       3.996  -2.573 -27.878  0.00  0.00     0.000 HD
HETATM   28  H   UNK     0       4.331  -1.052 -26.669  0.00  0.00     0.000 HD
ENDROOT
BRANCH  21  29
HETATM   29  C   UNK     0      -3.432   2.910 -31.603  0.00  0.00     0.213 C 
BRANCH  29  30
HETATM   30  O   UNK     0      -2.994   2.471 -32.889  0.00  0.00    -0.315 OA
BRANCH  30  31
HETATM   31  C   UNK     0      -3.914   2.167 -33.849  0.00  0.00     0.293 C 
HETATM   32  O   UNK     0      -4.539   3.063 -34.369  0.00  0.00    -0.259 OA
BRANCH  31  33
HETATM   33  C   UNK     0      -4.150   0.771 -34.306  0.00  0.00     0.044 A 
HETATM   34  C   UNK     0      -3.049  -0.054 -34.476  0.00  0.00     0.055 A 
HETATM   35  C   UNK     0      -3.210  -1.357 -34.914  0.00  0.00     0.080 A 
HETATM   36  C   UNK     0      -4.475  -1.843 -35.183  0.00  0.00     0.047 A 
HETATM   37  C   UNK     0      -5.592  -1.032 -35.018  0.00  0.00     0.091 A 
HETATM   38  O   UNK     0      -4.623  -3.125 -35.614  0.00  0.00     0.000 OA
HETATM   39  C   UNK     0      -5.424   0.280 -34.579  0.00  0.00     0.056 A 
HETATM   40  O   UNK     0      -6.843  -1.530 -35.296  0.00  0.00    -0.306 OA
HETATM   41  C   UNK     0      -6.993  -2.814 -35.750  0.00  0.00     0.121 A 
HETATM   42  O   UNK     0      -6.008  -3.491 -35.932  0.00  0.00     0.000 OA
HETATM   43  H   UNK     0      -5.546  -3.488 -35.814  0.00  0.00     0.000 HD
BRANCH  35  44
HETATM   44  O   UNK     0      -2.124  -2.159 -35.086  0.00  0.00    -0.360 OA
HETATM   45  H   UNK     0      -1.439  -1.937 -35.798  0.00  0.00     0.217 HD
ENDBRANCH  35  44
BRANCH  41  46
HETATM   46  C   UNK     0      -8.314  -3.412 -36.021  0.00  0.00     0.006 A 
HETATM   47  C   UNK     0      -8.445  -4.792 -35.981  0.00  0.00     0.054 A 
HETATM   48  C   UNK     0      -9.676  -5.385 -36.218  0.00  0.00     0.102 A 
HETATM   49  C   UNK     0     -10.779  -4.595 -36.496  0.00  0.00     0.132 A 
HETATM   50  C   UNK     0     -10.651  -3.214 -36.540  0.00  0.00     0.102 A 
HETATM   51  C   UNK     0      -9.419  -2.621 -36.300  0.00  0.00     0.054 A 
BRANCH  48  52
HETATM   52  O   UNK     0      -9.800  -6.737 -36.175  0.00  0.00    -0.358 OA
HETATM   53  H   UNK     0     -10.660  -7.157 -35.847  0.00  0.00     0.217 HD
ENDBRANCH  48  52
BRANCH  49  54
HETATM   54  O   UNK     0     -11.986  -5.176 -36.726  0.00  0.00    -0.356 OA
HETATM   55  H   UNK     0     -12.291  -5.954 -36.155  0.00  0.00     0.218 HD
ENDBRANCH  49  54
BRANCH  50  56
HETATM   56  O   UNK     0     -11.736  -2.440 -36.816  0.00  0.00    -0.358 OA
HETATM   57  H   UNK     0     -11.761  -1.476 -36.512  0.00  0.00     0.217 HD
ENDBRANCH  50  56
ENDBRANCH  41  46
ENDBRANCH  31  33
ENDBRANCH  30  31
ENDBRANCH  29  30
ENDBRANCH  21  29
BRANCH  17  58
HETATM   58  O   UNK     0      -3.883   3.850 -27.239  0.00  0.00    -0.283 OA
BRANCH  58  59
HETATM   59  C   UNK     0      -3.834   4.060 -25.897  0.00  0.00     0.295 C 
HETATM   60  O   UNK     0      -3.127   4.929 -25.440  0.00  0.00    -0.259 OA
BRANCH  59  61
HETATM   61  C   UNK     0      -4.644   3.218 -25.005  0.00  0.00     0.045 A 
HETATM   62  C   UNK     0      -4.280   1.899 -24.786  0.00  0.00     0.057 A 
HETATM   63  C   UNK     0      -5.035   1.101 -23.940  0.00  0.00     0.102 A 
HETATM   64  C   UNK     0      -6.157   1.622 -23.317  0.00  0.00     0.132 A 
HETATM   65  C   UNK     0      -6.521   2.942 -23.536  0.00  0.00     0.102 A 
HETATM   66  C   UNK     0      -5.764   3.742 -24.379  0.00  0.00     0.057 A 
BRANCH  63  67
HETATM   67  O   UNK     0      -4.673  -0.192 -23.723  0.00  0.00    -0.358 OA
HETATM   68  H   UNK     0      -4.311  -0.471 -22.820  0.00  0.00     0.217 HD
ENDBRANCH  63  67
BRANCH  64  69
HETATM   69  O   UNK     0      -6.903   0.838 -22.491  0.00  0.00    -0.356 OA
HETATM   70  H   UNK     0      -6.840  -0.170 -22.557  0.00  0.00     0.218 HD
ENDBRANCH  64  69
BRANCH  65  71
HETATM   71  O   UNK     0      -7.621   3.453 -22.923  0.00  0.00    -0.358 OA
HETATM   72  H   UNK     0      -8.352   2.834 -22.596  0.00  0.00     0.217 HD
ENDBRANCH  65  71
ENDBRANCH  59  61
ENDBRANCH  58  59
ENDBRANCH  17  58
BRANCH  20  73
HETATM   73  O   UNK     0      -0.292   1.089 -28.413  0.00  0.00    -0.390 OA
HETATM   74  H   UNK     0      -0.625   0.342 -27.817  0.00  0.00     0.210 HD
ENDBRANCH  20  73
BRANCH   5  75
HETATM   75  O   UNK     0       2.812  -2.106 -32.460  0.00  0.00    -0.358 OA
HETATM   76  H   UNK     0       2.637  -1.555 -33.290  0.00  0.00     0.217 HD
ENDBRANCH   5  75
BRANCH   3  77
HETATM   77  O   UNK     0       4.115  -2.781 -30.140  0.00  0.00    -0.357 OA
HETATM   78  H   UNK     0       4.125  -3.630 -30.689  0.00  0.00     0.217 HD
ENDBRANCH   3  77
BRANCH  12  79
HETATM   79  O   UNK     0       1.674  -0.216 -22.990  0.00  0.00    -0.304 OA
BRANCH  79  80
HETATM   80  C   UNK     0       1.518   0.382 -21.771  0.00  0.00     0.129 A 
HETATM   81  C   UNK     0       1.090   1.685 -21.553  0.00  0.00     0.077 A 
HETATM   82  C   UNK     0       1.012   2.172 -20.255  0.00  0.00     0.060 A 
HETATM   83  C   UNK     0       1.352   1.369 -19.176  0.00  0.00     0.102 A 
HETATM   84  C   UNK     0       1.768   0.068 -19.393  0.00  0.00     0.135 A 
HETATM   85  C   UNK     0       1.846  -0.418 -20.685  0.00  0.00     0.137 A 
BRANCH  81  86
HETATM   86  C   UNK     0       0.716   2.562 -22.665  0.00  0.00     0.179 C 
HETATM   87  O   UNK     0       1.570   3.128 -23.309  0.00  0.00    -0.646 OA
BRANCH  86  88
HETATM   88  O   UNK     0      -0.599   2.738 -22.966  0.00  0.00    -0.773 OA
HETATM   89  H   UNK     0      -0.892   3.549 -23.495  0.00  0.00     0.167 HD
ENDBRANCH  86  88
ENDBRANCH  81  86
BRANCH  83  90
HETATM   90  O   UNK     0       1.279   1.853 -17.907  0.00  0.00    -0.358 OA
HETATM   91  H   UNK     0       0.411   2.244 -17.565  0.00  0.00     0.217 HD
ENDBRANCH  83  90
BRANCH  84  92
HETATM   92  O   UNK     0       2.101  -0.733 -18.344  0.00  0.00    -0.356 OA
HETATM   93  H   UNK     0       2.924  -0.527 -17.793  0.00  0.00     0.218 HD
ENDBRANCH  84  92
BRANCH  85  94
HETATM   94  O   UNK     0       2.254  -1.698 -20.895  0.00  0.00    -0.356 OA
HETATM   95  H   UNK     0       2.875  -2.147 -20.233  0.00  0.00     0.218 HD
ENDBRANCH  85  94
ENDBRANCH  79  80
ENDBRANCH  12  79
BRANCH  10  96
HETATM   96  O   UNK     0       3.658  -0.777 -24.526  0.00  0.00    -0.357 OA
HETATM   97  H   UNK     0       4.192  -1.586 -24.816  0.00  0.00     0.217 HD
ENDBRANCH  10  96
TORSDOF 26
