REMARK VINA RESULT:      -8.1      2.374      6.682
REMARK  26 active torsions:
REMARK  status: ('A' for Active; 'I' for Inactive)
REMARK    1  A    between atoms: C_1  and  C_7 
REMARK    2  A    between atoms: C_4  and  O_9 
REMARK    3  A    between atoms: C_5  and  O_11 
REMARK    4  A    between atoms: C_6  and  O_10 
REMARK    5  A    between atoms: C_12  and  C_18 
REMARK    6  A    between atoms: C_15  and  O_76 
REMARK    7  A    between atoms: C_18  and  O_74 
REMARK    8  A    between atoms: C_21  and  O_25 
REMARK    9  A    between atoms: C_23  and  O_26 
REMARK   10  A    between atoms: C_30  and  O_35 
REMARK   11  A    between atoms: C_32  and  O_36 
REMARK   12  A    between atoms: O_36  and  C_67 
REMARK   13  A    between atoms: C_39  and  O_60 
REMARK   14  A    between atoms: C_41  and  O_58 
REMARK   15  A    between atoms: C_42  and  C_45 
REMARK   16  A    between atoms: C_43  and  O_59 
REMARK   17  A    between atoms: C_45  and  O_53 
REMARK   18  A    between atoms: C_47  and  O_53 
REMARK   19  A    between atoms: C_50  and  O_55 
REMARK   20  A    between atoms: C_51  and  C_54 
REMARK   21  A    between atoms: C_54  and  O_74 
REMARK   22  A    between atoms: C_64  and  O_69 
REMARK   23  A    between atoms: C_65  and  C_72 
REMARK   24  A    between atoms: C_66  and  O_70 
REMARK   25  A    between atoms: C_68  and  O_71 
REMARK   26  A    between atoms: C_72  and  O_73 
ROOT
HETATM    1  C   UNK     0       2.838  -1.541 -29.446  0.00  0.00     0.026 A 
HETATM    2  C   UNK     0       1.694  -0.748 -29.249  0.00  0.00     0.006 A 
HETATM    3  C   UNK     0       3.261  -2.011 -30.675  0.00  0.00     0.111 A 
HETATM    4  C   UNK     0       0.937  -0.532 -30.438  0.00  0.00     0.054 A 
HETATM    5  C   UNK     0       2.535  -1.730 -31.802  0.00  0.00     0.100 A 
HETATM    6  C   UNK     0       1.373  -1.010 -31.666  0.00  0.00     0.058 A 
HETATM    7  O   UNK     0       3.588  -1.904 -28.377  0.00  0.00     0.000 OA
HETATM    8  C   UNK     0       2.787  -0.495 -27.061  0.00  0.00     0.026 A 
HETATM    9  C   UNK     0       1.548  -0.329 -27.686  0.00  0.00     0.006 A 
HETATM   10  C   UNK     0       2.989  -0.374 -25.711  0.00  0.00     0.111 A 
HETATM   11  C   UNK     0       0.496   0.123 -26.816  0.00  0.00     0.054 A 
HETATM   12  C   UNK     0       1.962  -0.042 -24.877  0.00  0.00     0.111 A 
HETATM   13  C   UNK     0       0.725   0.235 -25.435  0.00  0.00     0.058 A 
HETATM   14  C   UNK     0      -0.899   0.507 -27.165  0.00  0.00     0.294 C 
HETATM   15  O   UNK     0       3.875  -0.799 -27.806  0.00  0.00     0.000 OA
HETATM   16  O   UNK     0      -1.657  -0.333 -27.592  0.00  0.00    -0.259 OA
HETATM   17  C   UNK     0      -2.421   3.611 -28.385  0.00  0.00     0.302 C 
HETATM   18  C   UNK     0      -1.908   2.195 -28.265  0.00  0.00     0.219 C 
HETATM   19  O   UNK     0      -2.760   3.865 -29.803  0.00  0.00    -0.348 OA
HETATM   20  C   UNK     0      -0.904   2.099 -29.222  0.00  0.00     0.184 C 
HETATM   21  C   UNK     0      -2.211   3.102 -30.953  0.00  0.00     0.181 C 
HETATM   22  C   UNK     0      -1.561   1.803 -30.454  0.00  0.00     0.194 C 
HETATM   23  O   UNK     0      -0.592   1.256 -31.316  0.00  0.00    -0.307 OA
HETATM   24  O   UNK     0      -1.351   1.831 -27.017  0.00  0.00    -0.304 OA
HETATM   25  C   UNK     0      -0.344   0.114 -30.572  0.00  0.00     0.294 C 
HETATM   26  O   UNK     0      -1.272  -0.361 -29.962  0.00  0.00    -0.259 OA
HETATM   27  H   UNK     0       4.405  -2.485 -28.508  0.00  0.00     0.000 HD
HETATM   28  H   UNK     0       4.775  -0.924 -27.361  0.00  0.00     0.000 HD
ENDROOT
BRANCH  21  29
HETATM   29  C   UNK     0      -3.354   2.729 -31.930  0.00  0.00     0.213 C 
BRANCH  29  30
HETATM   30  O   UNK     0      -3.001   2.497 -33.293  0.00  0.00    -0.315 OA
BRANCH  30  31
HETATM   31  C   UNK     0      -3.962   2.115 -34.185  0.00  0.00     0.293 C 
HETATM   32  O   UNK     0      -4.637   2.964 -34.720  0.00  0.00    -0.259 OA
BRANCH  31  33
HETATM   33  C   UNK     0      -4.182   0.689 -34.549  0.00  0.00     0.044 A 
HETATM   34  C   UNK     0      -3.072  -0.130 -34.675  0.00  0.00     0.055 A 
HETATM   35  C   UNK     0      -3.218  -1.460 -35.028  0.00  0.00     0.080 A 
HETATM   36  C   UNK     0      -4.479  -1.979 -35.253  0.00  0.00     0.047 A 
HETATM   37  C   UNK     0      -5.605  -1.174 -35.131  0.00  0.00     0.091 A 
HETATM   38  O   UNK     0      -4.613  -3.288 -35.600  0.00  0.00     0.000 OA
HETATM   39  C   UNK     0      -5.452   0.166 -34.778  0.00  0.00     0.056 A 
HETATM   40  O   UNK     0      -6.852  -1.705 -35.364  0.00  0.00    -0.306 OA
HETATM   41  C   UNK     0      -6.988  -3.018 -35.734  0.00  0.00     0.121 A 
HETATM   42  O   UNK     0      -5.995  -3.692 -35.881  0.00  0.00     0.000 OA
HETATM   43  H   UNK     0      -5.533  -3.675 -35.768  0.00  0.00     0.000 HD
BRANCH  35  44
HETATM   44  O   UNK     0      -2.124  -2.258 -35.158  0.00  0.00    -0.360 OA
HETATM   45  H   UNK     0      -1.868  -2.621 -36.068  0.00  0.00     0.217 HD
ENDBRANCH  35  44
BRANCH  41  46
HETATM   46  C   UNK     0      -8.303  -3.649 -35.954  0.00  0.00     0.006 A 
HETATM   47  C   UNK     0      -9.389  -2.843 -36.261  0.00  0.00     0.054 A 
HETATM   48  C   UNK     0     -10.636  -3.405 -36.486  0.00  0.00     0.102 A 
HETATM   49  C   UNK     0     -10.797  -4.778 -36.403  0.00  0.00     0.132 A 
HETATM   50  C   UNK     0      -9.714  -5.588 -36.093  0.00  0.00     0.102 A 
HETATM   51  C   UNK     0      -8.465  -5.024 -35.871  0.00  0.00     0.054 A 
BRANCH  48  52
HETATM   52  O   UNK     0     -11.697  -2.612 -36.790  0.00  0.00    -0.358 OA
HETATM   53  H   UNK     0     -12.621  -2.850 -36.453  0.00  0.00     0.217 HD
ENDBRANCH  48  52
BRANCH  49  54
HETATM   54  O   UNK     0     -12.020  -5.331 -36.626  0.00  0.00    -0.356 OA
HETATM   55  H   UNK     0     -12.798  -5.101 -36.021  0.00  0.00     0.218 HD
ENDBRANCH  49  54
BRANCH  50  56
HETATM   56  O   UNK     0      -9.876  -6.936 -36.010  0.00  0.00    -0.358 OA
HETATM   57  H   UNK     0     -10.171  -7.462 -36.822  0.00  0.00     0.217 HD
ENDBRANCH  50  56
ENDBRANCH  41  46
ENDBRANCH  31  33
ENDBRANCH  30  31
ENDBRANCH  29  30
ENDBRANCH  21  29
BRANCH  17  58
HETATM   58  O   UNK     0      -3.569   3.781 -27.573  0.00  0.00    -0.283 OA
BRANCH  58  59
HETATM   59  C   UNK     0      -3.450   3.952 -26.230  0.00  0.00     0.295 C 
HETATM   60  O   UNK     0      -2.685   4.778 -25.785  0.00  0.00    -0.259 OA
BRANCH  59  61
HETATM   61  C   UNK     0      -4.253   3.120 -25.322  0.00  0.00     0.045 A 
HETATM   62  C   UNK     0      -5.254   3.702 -24.562  0.00  0.00     0.057 A 
HETATM   63  C   UNK     0      -6.020   2.923 -23.708  0.00  0.00     0.102 A 
HETATM   64  C   UNK     0      -5.780   1.562 -23.613  0.00  0.00     0.132 A 
HETATM   65  C   UNK     0      -4.778   0.979 -24.374  0.00  0.00     0.102 A 
HETATM   66  C   UNK     0      -4.015   1.758 -25.231  0.00  0.00     0.057 A 
BRANCH  63  67
HETATM   67  O   UNK     0      -7.005   3.496 -22.966  0.00  0.00    -0.358 OA
HETATM   68  H   UNK     0      -7.866   2.993 -22.795  0.00  0.00     0.217 HD
ENDBRANCH  63  67
BRANCH  64  69
HETATM   69  O   UNK     0      -6.527   0.797 -22.771  0.00  0.00    -0.356 OA
HETATM   70  H   UNK     0      -6.075   0.129 -22.159  0.00  0.00     0.218 HD
ENDBRANCH  64  69
BRANCH  65  71
HETATM   71  O   UNK     0      -4.546  -0.356 -24.282  0.00  0.00    -0.358 OA
HETATM   72  H   UNK     0      -4.605  -0.939 -25.106  0.00  0.00     0.217 HD
ENDBRANCH  65  71
ENDBRANCH  59  61
ENDBRANCH  58  59
ENDBRANCH  17  58
BRANCH  20  73
HETATM   73  O   UNK     0       0.010   1.066 -28.884  0.00  0.00    -0.390 OA
HETATM   74  H   UNK     0      -0.318   0.114 -28.781  0.00  0.00     0.210 HD
ENDBRANCH  20  73
BRANCH   5  75
HETATM   75  O   UNK     0       2.944  -2.172 -33.021  0.00  0.00    -0.358 OA
HETATM   76  H   UNK     0       2.471  -1.857 -33.858  0.00  0.00     0.217 HD
ENDBRANCH   5  75
BRANCH   3  77
HETATM   77  O   UNK     0       4.396  -2.754 -30.766  0.00  0.00    -0.357 OA
HETATM   78  H   UNK     0       4.336  -3.757 -30.882  0.00  0.00     0.217 HD
ENDBRANCH   3  77
BRANCH  12  79
HETATM   79  O   UNK     0       2.320  -0.043 -23.555  0.00  0.00    -0.304 OA
BRANCH  79  80
HETATM   80  C   UNK     0       1.968   0.287 -22.277  0.00  0.00     0.129 A 
HETATM   81  C   UNK     0       1.919  -0.584 -21.196  0.00  0.00     0.077 A 
HETATM   82  C   UNK     0       1.507  -0.114 -19.955  0.00  0.00     0.060 A 
HETATM   83  C   UNK     0       1.148   1.215 -19.785  0.00  0.00     0.102 A 
HETATM   84  C   UNK     0       1.208   2.084 -20.860  0.00  0.00     0.135 A 
HETATM   85  C   UNK     0       1.618   1.618 -22.094  0.00  0.00     0.137 A 
BRANCH  81  86
HETATM   86  C   UNK     0       2.295  -1.993 -21.333  0.00  0.00     0.179 C 
HETATM   87  O   UNK     0       3.460  -2.311 -21.393  0.00  0.00    -0.646 OA
BRANCH  86  88
HETATM   88  O   UNK     0       1.321  -2.943 -21.395  0.00  0.00    -0.773 OA
HETATM   89  H   UNK     0       1.354  -3.653 -22.114  0.00  0.00     0.167 HD
ENDBRANCH  86  88
ENDBRANCH  81  86
BRANCH  83  90
HETATM   90  O   UNK     0       0.740   1.668 -18.569  0.00  0.00    -0.358 OA
HETATM   91  H   UNK     0       1.216   2.448 -18.136  0.00  0.00     0.217 HD
ENDBRANCH  83  90
BRANCH  84  92
HETATM   92  O   UNK     0       0.863   3.392 -20.707  0.00  0.00    -0.356 OA
HETATM   93  H   UNK     0       1.399   4.113 -21.173  0.00  0.00     0.218 HD
ENDBRANCH  84  92
BRANCH  85  94
HETATM   94  O   UNK     0       1.676   2.475 -23.148  0.00  0.00    -0.356 OA
HETATM   95  H   UNK     0       1.354   2.178 -24.061  0.00  0.00     0.218 HD
ENDBRANCH  85  94
ENDBRANCH  79  80
ENDBRANCH  12  79
BRANCH  10  96
HETATM   96  O   UNK     0       4.223  -0.604 -25.190  0.00  0.00    -0.357 OA
HETATM   97  H   UNK     0       4.825   0.174 -24.949  0.00  0.00     0.217 HD
ENDBRANCH  10  96
TORSDOF 26
