REMARK VINA RESULT:      -8.0      4.316     14.696
REMARK  26 active torsions:
REMARK  status: ('A' for Active; 'I' for Inactive)
REMARK    1  A    between atoms: C_1  and  C_7 
REMARK    2  A    between atoms: C_4  and  O_9 
REMARK    3  A    between atoms: C_5  and  O_11 
REMARK    4  A    between atoms: C_6  and  O_10 
REMARK    5  A    between atoms: C_12  and  C_18 
REMARK    6  A    between atoms: C_15  and  O_76 
REMARK    7  A    between atoms: C_18  and  O_74 
REMARK    8  A    between atoms: C_21  and  O_25 
REMARK    9  A    between atoms: C_23  and  O_26 
REMARK   10  A    between atoms: C_30  and  O_35 
REMARK   11  A    between atoms: C_32  and  O_36 
REMARK   12  A    between atoms: O_36  and  C_67 
REMARK   13  A    between atoms: C_39  and  O_60 
REMARK   14  A    between atoms: C_41  and  O_58 
REMARK   15  A    between atoms: C_42  and  C_45 
REMARK   16  A    between atoms: C_43  and  O_59 
REMARK   17  A    between atoms: C_45  and  O_53 
REMARK   18  A    between atoms: C_47  and  O_53 
REMARK   19  A    between atoms: C_50  and  O_55 
REMARK   20  A    between atoms: C_51  and  C_54 
REMARK   21  A    between atoms: C_54  and  O_74 
REMARK   22  A    between atoms: C_64  and  O_69 
REMARK   23  A    between atoms: C_65  and  C_72 
REMARK   24  A    between atoms: C_66  and  O_70 
REMARK   25  A    between atoms: C_68  and  O_71 
REMARK   26  A    between atoms: C_72  and  O_73 
ROOT
HETATM    1  C   UNK     0       1.121  -1.421 -31.232  0.00  0.00     0.026 A 
HETATM    2  C   UNK     0       0.299  -0.839 -30.251  0.00  0.00     0.006 A 
HETATM    3  C   UNK     0       2.374  -1.949 -30.988  0.00  0.00     0.111 A 
HETATM    4  C   UNK     0       0.913  -0.757 -28.967  0.00  0.00     0.054 A 
HETATM    5  C   UNK     0       2.903  -1.903 -29.725  0.00  0.00     0.100 A 
HETATM    6  C   UNK     0       2.173  -1.291 -28.735  0.00  0.00     0.058 A 
HETATM    7  O   UNK     0       0.693  -1.466 -32.517  0.00  0.00     0.000 OA
HETATM    8  C   UNK     0      -1.314  -1.075 -32.092  0.00  0.00     0.026 A 
HETATM    9  C   UNK     0      -1.127  -0.390 -30.889  0.00  0.00     0.006 A 
HETATM   10  C   UNK     0      -2.341  -0.828 -32.965  0.00  0.00     0.111 A 
HETATM   11  C   UNK     0      -2.185   0.522 -30.549  0.00  0.00     0.054 A 
HETATM   12  C   UNK     0      -3.288   0.112 -32.683  0.00  0.00     0.111 A 
HETATM   13  C   UNK     0      -3.225   0.764 -31.463  0.00  0.00     0.058 A 
HETATM   14  C   UNK     0      -2.364   1.319 -29.304  0.00  0.00     0.294 C 
HETATM   15  O   UNK     0      -0.442  -2.047 -32.450  0.00  0.00     0.000 OA
HETATM   16  O   UNK     0      -1.571   2.192 -29.039  0.00  0.00    -0.259 OA
HETATM   17  C   UNK     0      -3.803   0.559 -26.020  0.00  0.00     0.302 C 
HETATM   18  C   UNK     0      -2.855   0.899 -27.146  0.00  0.00     0.219 C 
HETATM   19  O   UNK     0      -3.001   0.210 -24.826  0.00  0.00    -0.348 OA
HETATM   20  C   UNK     0      -1.985  -0.183 -27.216  0.00  0.00     0.184 C 
HETATM   21  C   UNK     0      -1.588  -0.244 -24.860  0.00  0.00     0.181 C 
HETATM   22  C   UNK     0      -0.976   0.059 -26.236  0.00  0.00     0.194 C 
HETATM   23  O   UNK     0       0.132  -0.737 -26.580  0.00  0.00    -0.307 OA
HETATM   24  O   UNK     0      -3.434   1.070 -28.425  0.00  0.00    -0.304 OA
HETATM   25  C   UNK     0       0.413  -0.107 -27.782  0.00  0.00     0.294 C 
HETATM   26  O   UNK     0       0.193   1.079 -27.849  0.00  0.00    -0.259 OA
HETATM   27  H   UNK     0       1.282  -1.871 -33.232  0.00  0.00     0.000 HD
HETATM   28  H   UNK     0      -0.568  -2.545 -33.321  0.00  0.00     0.000 HD
ENDROOT
BRANCH  21  29
HETATM   29  C   UNK     0      -0.767   0.512 -23.786  0.00  0.00     0.213 C 
BRANCH  29  30
HETATM   30  O   UNK     0       0.539   0.015 -23.490  0.00  0.00    -0.315 OA
BRANCH  30  31
HETATM   31  C   UNK     0       0.700  -0.922 -22.510  0.00  0.00     0.293 C 
HETATM   32  O   UNK     0       0.026  -1.925 -22.542  0.00  0.00    -0.259 OA
BRANCH  31  33
HETATM   33  C   UNK     0       1.704  -0.766 -21.424  0.00  0.00     0.044 A 
HETATM   34  C   UNK     0       2.718  -1.706 -21.334  0.00  0.00     0.055 A 
HETATM   35  C   UNK     0       3.669  -1.618 -20.333  0.00  0.00     0.080 A 
HETATM   36  C   UNK     0       3.612  -0.586 -19.415  0.00  0.00     0.047 A 
HETATM   37  C   UNK     0       2.603   0.367 -19.489  0.00  0.00     0.091 A 
HETATM   38  O   UNK     0       4.551  -0.508 -18.435  0.00  0.00     0.000 OA
HETATM   39  C   UNK     0       1.646   0.273 -20.498  0.00  0.00     0.056 A 
HETATM   40  O   UNK     0       2.557   1.384 -18.564  0.00  0.00    -0.306 OA
HETATM   41  C   UNK     0       3.490   1.453 -17.562  0.00  0.00     0.121 A 
HETATM   42  O   UNK     0       4.333   0.590 -17.486  0.00  0.00     0.000 OA
HETATM   43  H   UNK     0       4.515   0.244 -17.758  0.00  0.00     0.000 HD
BRANCH  35  44
HETATM   44  O   UNK     0       4.658  -2.548 -20.246  0.00  0.00    -0.360 OA
HETATM   45  H   UNK     0       4.479  -3.437 -19.795  0.00  0.00     0.217 HD
ENDBRANCH  35  44
BRANCH  41  46
HETATM   46  C   UNK     0       3.513   2.546 -16.572  0.00  0.00     0.006 A 
HETATM   47  C   UNK     0       3.163   2.267 -15.259  0.00  0.00     0.054 A 
HETATM   48  C   UNK     0       3.187   3.269 -14.301  0.00  0.00     0.102 A 
HETATM   49  C   UNK     0       3.561   4.554 -14.658  0.00  0.00     0.132 A 
HETATM   50  C   UNK     0       3.907   4.837 -15.971  0.00  0.00     0.102 A 
HETATM   51  C   UNK     0       3.886   3.833 -16.929  0.00  0.00     0.054 A 
BRANCH  48  52
HETATM   52  O   UNK     0       2.847   2.990 -13.015  0.00  0.00    -0.358 OA
HETATM   53  H   UNK     0       2.116   3.520 -12.559  0.00  0.00     0.217 HD
ENDBRANCH  48  52
BRANCH  49  54
HETATM   54  O   UNK     0       3.586   5.537 -13.718  0.00  0.00    -0.356 OA
HETATM   55  H   UNK     0       4.102   6.390 -13.892  0.00  0.00     0.218 HD
ENDBRANCH  49  54
BRANCH  50  56
HETATM   56  O   UNK     0       4.271   6.102 -16.319  0.00  0.00    -0.358 OA
HETATM   57  H   UNK     0       5.138   6.261 -16.816  0.00  0.00     0.217 HD
ENDBRANCH  50  56
ENDBRANCH  41  46
ENDBRANCH  31  33
ENDBRANCH  30  31
ENDBRANCH  29  30
ENDBRANCH  21  29
BRANCH  17  58
HETATM   58  O   UNK     0      -4.638   1.668 -25.738  0.00  0.00    -0.283 OA
BRANCH  58  59
HETATM   59  C   UNK     0      -4.526   2.337 -24.560  0.00  0.00     0.295 C 
HETATM   60  O   UNK     0      -3.490   2.890 -24.267  0.00  0.00    -0.259 OA
BRANCH  59  61
HETATM   61  C   UNK     0      -5.674   2.379 -23.642  0.00  0.00     0.045 A 
HETATM   62  C   UNK     0      -6.248   1.196 -23.205  0.00  0.00     0.057 A 
HETATM   63  C   UNK     0      -7.326   1.226 -22.334  0.00  0.00     0.102 A 
HETATM   64  C   UNK     0      -7.831   2.442 -21.903  0.00  0.00     0.132 A 
HETATM   65  C   UNK     0      -7.256   3.626 -22.339  0.00  0.00     0.102 A 
HETATM   66  C   UNK     0      -6.175   3.595 -23.208  0.00  0.00     0.057 A 
BRANCH  63  67
HETATM   67  O   UNK     0      -7.885   0.064 -21.903  0.00  0.00    -0.358 OA
HETATM   68  H   UNK     0      -7.552  -0.821 -22.262  0.00  0.00     0.217 HD
ENDBRANCH  63  67
BRANCH  64  69
HETATM   69  O   UNK     0      -8.893   2.475 -21.052  0.00  0.00    -0.356 OA
HETATM   70  H   UNK     0      -9.128   1.656 -20.505  0.00  0.00     0.218 HD
ENDBRANCH  64  69
BRANCH  65  71
HETATM   71  O   UNK     0      -7.751   4.818 -21.914  0.00  0.00    -0.358 OA
HETATM   72  H   UNK     0      -7.694   5.071 -20.936  0.00  0.00     0.217 HD
ENDBRANCH  65  71
ENDBRANCH  59  61
ENDBRANCH  58  59
ENDBRANCH  17  58
BRANCH  20  73
HETATM   73  O   UNK     0      -1.409  -0.278 -28.510  0.00  0.00    -0.390 OA
HETATM   74  H   UNK     0      -0.424  -0.490 -28.612  0.00  0.00     0.210 HD
ENDBRANCH  20  73
BRANCH   5  75
HETATM   75  O   UNK     0       4.129  -2.430 -29.465  0.00  0.00    -0.358 OA
HETATM   76  H   UNK     0       4.655  -2.114 -28.661  0.00  0.00     0.217 HD
ENDBRANCH   5  75
BRANCH   3  77
HETATM   77  O   UNK     0       3.084  -2.512 -32.001  0.00  0.00    -0.357 OA
HETATM   78  H   UNK     0       2.651  -2.656 -32.904  0.00  0.00     0.217 HD
ENDBRANCH   3  77
BRANCH  12  79
HETATM   79  O   UNK     0      -4.192   0.286 -33.697  0.00  0.00    -0.304 OA
BRANCH  79  80
HETATM   80  C   UNK     0      -4.717   1.142 -34.624  0.00  0.00     0.129 A 
HETATM   81  C   UNK     0      -4.899   0.868 -35.973  0.00  0.00     0.077 A 
HETATM   82  C   UNK     0      -5.414   1.852 -36.808  0.00  0.00     0.060 A 
HETATM   83  C   UNK     0      -5.751   3.101 -36.308  0.00  0.00     0.102 A 
HETATM   84  C   UNK     0      -5.580   3.369 -34.961  0.00  0.00     0.135 A 
HETATM   85  C   UNK     0      -5.068   2.391 -34.130  0.00  0.00     0.137 A 
BRANCH  81  86
HETATM   86  C   UNK     0      -4.560  -0.439 -36.540  0.00  0.00     0.179 C 
HETATM   87  O   UNK     0      -5.433  -1.232 -36.807  0.00  0.00    -0.646 OA
BRANCH  86  88
HETATM   88  O   UNK     0      -3.255  -0.756 -36.760  0.00  0.00    -0.773 OA
HETATM   89  H   UNK     0      -2.995  -1.282 -37.585  0.00  0.00     0.167 HD
ENDBRANCH  86  88
ENDBRANCH  81  86
BRANCH  83  90
HETATM   90  O   UNK     0      -6.249   4.062 -37.132  0.00  0.00    -0.358 OA
HETATM   91  H   UNK     0      -6.537   4.953 -36.751  0.00  0.00     0.217 HD
ENDBRANCH  83  90
BRANCH  84  92
HETATM   92  O   UNK     0      -5.911   4.588 -34.455  0.00  0.00    -0.356 OA
HETATM   93  H   UNK     0      -6.073   5.367 -35.080  0.00  0.00     0.218 HD
ENDBRANCH  84  92
BRANCH  85  94
HETATM   94  O   UNK     0      -4.902   2.658 -32.806  0.00  0.00    -0.356 OA
HETATM   95  H   UNK     0      -4.412   1.998 -32.214  0.00  0.00     0.218 HD
ENDBRANCH  85  94
ENDBRANCH  79  80
ENDBRANCH  12  79
BRANCH  10  96
HETATM   96  O   UNK     0      -2.410  -1.514 -34.137  0.00  0.00    -0.357 OA
HETATM   97  H   UNK     0      -2.415  -2.526 -34.132  0.00  0.00     0.217 HD
ENDBRANCH  10  96
TORSDOF 26
