REMARK VINA RESULT:      -8.4      3.691      9.099
REMARK  26 active torsions:
REMARK  status: ('A' for Active; 'I' for Inactive)
REMARK    1  A    between atoms: C_1  and  C_7 
REMARK    2  A    between atoms: C_4  and  O_9 
REMARK    3  A    between atoms: C_5  and  O_11 
REMARK    4  A    between atoms: C_6  and  O_10 
REMARK    5  A    between atoms: C_12  and  C_18 
REMARK    6  A    between atoms: C_15  and  O_76 
REMARK    7  A    between atoms: C_18  and  O_74 
REMARK    8  A    between atoms: C_21  and  O_25 
REMARK    9  A    between atoms: C_23  and  O_26 
REMARK   10  A    between atoms: C_30  and  O_35 
REMARK   11  A    between atoms: C_32  and  O_36 
REMARK   12  A    between atoms: O_36  and  C_67 
REMARK   13  A    between atoms: C_39  and  O_60 
REMARK   14  A    between atoms: C_41  and  O_58 
REMARK   15  A    between atoms: C_42  and  C_45 
REMARK   16  A    between atoms: C_43  and  O_59 
REMARK   17  A    between atoms: C_45  and  O_53 
REMARK   18  A    between atoms: C_47  and  O_53 
REMARK   19  A    between atoms: C_50  and  O_55 
REMARK   20  A    between atoms: C_51  and  C_54 
REMARK   21  A    between atoms: C_54  and  O_74 
REMARK   22  A    between atoms: C_64  and  O_69 
REMARK   23  A    between atoms: C_65  and  C_72 
REMARK   24  A    between atoms: C_66  and  O_70 
REMARK   25  A    between atoms: C_68  and  O_71 
REMARK   26  A    between atoms: C_72  and  O_73 
ROOT
HETATM    1  C   UNK     0      -3.280   0.443 -28.432  0.00  0.00     0.026 A 
HETATM    2  C   UNK     0      -2.345   1.220 -27.727  0.00  0.00     0.006 A 
HETATM    3  C   UNK     0      -3.022  -0.196 -29.629  0.00  0.00     0.111 A 
HETATM    4  C   UNK     0      -1.099   1.370 -28.406  0.00  0.00     0.054 A 
HETATM    5  C   UNK     0      -1.791  -0.074 -30.219  0.00  0.00     0.100 A 
HETATM    6  C   UNK     0      -0.853   0.722 -29.609  0.00  0.00     0.058 A 
HETATM    7  O   UNK     0      -4.537   0.309 -27.942  0.00  0.00     0.000 OA
HETATM    8  C   UNK     0      -4.090   0.973 -26.013  0.00  0.00     0.026 A 
HETATM    9  C   UNK     0      -2.979   1.759 -26.332  0.00  0.00     0.006 A 
HETATM   10  C   UNK     0      -4.949   1.240 -24.980  0.00  0.00     0.111 A 
HETATM   11  C   UNK     0      -2.710   2.819 -25.398  0.00  0.00     0.054 A 
HETATM   12  C   UNK     0      -4.744   2.309 -24.157  0.00  0.00     0.111 A 
HETATM   13  C   UNK     0      -3.608   3.078 -24.350  0.00  0.00     0.058 A 
HETATM   14  C   UNK     0      -1.558   3.762 -25.368  0.00  0.00     0.294 C 
HETATM   15  O   UNK     0      -4.365  -0.126 -26.754  0.00  0.00     0.000 OA
HETATM   16  O   UNK     0      -1.421   4.561 -26.265  0.00  0.00    -0.259 OA
HETATM   17  C   UNK     0       1.839   3.535 -24.009  0.00  0.00     0.302 C 
HETATM   18  C   UNK     0       0.649   3.639 -24.935  0.00  0.00     0.219 C 
HETATM   19  O   UNK     0       3.037   3.229 -24.823  0.00  0.00    -0.348 OA
HETATM   20  C   UNK     0       0.673   2.462 -25.676  0.00  0.00     0.184 C 
HETATM   21  C   UNK     0       3.006   2.613 -26.174  0.00  0.00     0.181 C 
HETATM   22  C   UNK     0       1.585   2.691 -26.751  0.00  0.00     0.194 C 
HETATM   23  O   UNK     0       1.295   1.740 -27.746  0.00  0.00    -0.307 OA
HETATM   24  O   UNK     0      -0.620   3.735 -24.320  0.00  0.00    -0.304 OA
HETATM   25  C   UNK     0       0.020   2.198 -28.038  0.00  0.00     0.294 C 
HETATM   26  O   UNK     0      -0.174   3.387 -27.949  0.00  0.00    -0.259 OA
HETATM   27  H   UNK     0      -5.221  -0.238 -28.448  0.00  0.00     0.000 HD
HETATM   28  H   UNK     0      -5.169  -0.699 -26.532  0.00  0.00     0.000 HD
ENDROOT
BRANCH  21  29
HETATM   29  C   UNK     0       3.959   3.381 -27.124  0.00  0.00     0.213 C 
BRANCH  29  30
HETATM   30  O   UNK     0       3.393   3.934 -28.312  0.00  0.00    -0.315 OA
BRANCH  30  31
HETATM   31  C   UNK     0       3.672   3.366 -29.521  0.00  0.00     0.293 C 
HETATM   32  O   UNK     0       4.690   2.725 -29.648  0.00  0.00    -0.259 OA
BRANCH  31  33
HETATM   33  C   UNK     0       2.747   3.477 -30.680  0.00  0.00     0.044 A 
HETATM   34  C   UNK     0       2.598   4.718 -31.279  0.00  0.00     0.055 A 
HETATM   35  C   UNK     0       1.737   4.881 -32.351  0.00  0.00     0.080 A 
HETATM   36  C   UNK     0       1.022   3.800 -32.832  0.00  0.00     0.047 A 
HETATM   37  C   UNK     0       1.159   2.547 -32.246  0.00  0.00     0.091 A 
HETATM   38  O   UNK     0       0.179   3.971 -33.886  0.00  0.00     0.000 OA
HETATM   39  C   UNK     0       2.024   2.389 -31.165  0.00  0.00     0.056 A 
HETATM   40  O   UNK     0       0.435   1.484 -32.734  0.00  0.00    -0.306 OA
HETATM   41  C   UNK     0      -0.431   1.658 -33.782  0.00  0.00     0.121 A 
HETATM   42  O   UNK     0      -0.572   2.764 -34.250  0.00  0.00     0.000 OA
HETATM   43  H   UNK     0      -0.349   3.185 -34.243  0.00  0.00     0.000 HD
BRANCH  35  44
HETATM   44  O   UNK     0       1.589   6.104 -32.929  0.00  0.00    -0.360 OA
HETATM   45  H   UNK     0       2.327   6.480 -33.512  0.00  0.00     0.217 HD
ENDBRANCH  35  44
BRANCH  41  46
HETATM   46  C   UNK     0      -1.198   0.544 -34.371  0.00  0.00     0.006 A 
HETATM   47  C   UNK     0      -2.558   0.707 -34.586  0.00  0.00     0.054 A 
HETATM   48  C   UNK     0      -3.304  -0.316 -35.151  0.00  0.00     0.102 A 
HETATM   49  C   UNK     0      -2.689  -1.506 -35.500  0.00  0.00     0.132 A 
HETATM   50  C   UNK     0      -1.328  -1.674 -35.284  0.00  0.00     0.102 A 
HETATM   51  C   UNK     0      -0.581  -0.648 -34.721  0.00  0.00     0.054 A 
BRANCH  48  52
HETATM   52  O   UNK     0      -4.636  -0.150 -35.362  0.00  0.00    -0.358 OA
HETATM   53  H   UNK     0      -4.966   0.236 -36.238  0.00  0.00     0.217 HD
ENDBRANCH  48  52
BRANCH  49  54
HETATM   54  O   UNK     0      -3.420  -2.508 -36.056  0.00  0.00    -0.356 OA
HETATM   55  H   UNK     0      -4.412  -2.577 -35.866  0.00  0.00     0.218 HD
ENDBRANCH  49  54
BRANCH  50  56
HETATM   56  O   UNK     0      -0.727  -2.846 -35.626  0.00  0.00    -0.358 OA
HETATM   57  H   UNK     0      -0.809  -3.652 -35.021  0.00  0.00     0.217 HD
ENDBRANCH  50  56
ENDBRANCH  41  46
ENDBRANCH  31  33
ENDBRANCH  30  31
ENDBRANCH  29  30
ENDBRANCH  21  29
BRANCH  17  58
HETATM   58  O   UNK     0       2.022   4.758 -23.318  0.00  0.00    -0.283 OA
BRANCH  58  59
HETATM   59  C   UNK     0       1.629   4.887 -22.023  0.00  0.00     0.295 C 
HETATM   60  O   UNK     0       1.312   5.971 -21.586  0.00  0.00    -0.259 OA
BRANCH  59  61
HETATM   61  C   UNK     0       1.598   3.701 -21.156  0.00  0.00     0.045 A 
HETATM   62  C   UNK     0       0.566   2.785 -21.280  0.00  0.00     0.057 A 
HETATM   63  C   UNK     0       0.534   1.661 -20.470  0.00  0.00     0.102 A 
HETATM   64  C   UNK     0       1.533   1.455 -19.532  0.00  0.00     0.132 A 
HETATM   65  C   UNK     0       2.566   2.372 -19.408  0.00  0.00     0.102 A 
HETATM   66  C   UNK     0       2.601   3.495 -20.221  0.00  0.00     0.057 A 
BRANCH  63  67
HETATM   67  O   UNK     0      -0.478   0.761 -20.597  0.00  0.00    -0.358 OA
HETATM   68  H   UNK     0      -0.715   0.391 -21.509  0.00  0.00     0.217 HD
ENDBRANCH  63  67
BRANCH  64  69
HETATM   69  O   UNK     0       1.500   0.355 -18.732  0.00  0.00    -0.356 OA
HETATM   70  H   UNK     0       1.650   0.449 -17.736  0.00  0.00     0.218 HD
ENDBRANCH  64  69
BRANCH  65  71
HETATM   71  O   UNK     0       3.547   2.168 -18.490  0.00  0.00    -0.358 OA
HETATM   72  H   UNK     0       4.311   2.825 -18.411  0.00  0.00     0.217 HD
ENDBRANCH  65  71
ENDBRANCH  59  61
ENDBRANCH  58  59
ENDBRANCH  17  58
BRANCH  20  73
HETATM   73  O   UNK     0      -0.621   2.161 -26.176  0.00  0.00    -0.390 OA
HETATM   74  H   UNK     0      -1.342   2.872 -26.176  0.00  0.00     0.210 HD
ENDBRANCH  20  73
BRANCH   5  75
HETATM   75  O   UNK     0      -1.515  -0.708 -31.390  0.00  0.00    -0.358 OA
HETATM   76  H   UNK     0      -2.270  -1.055 -31.966  0.00  0.00     0.217 HD
ENDBRANCH   5  75
BRANCH   3  77
HETATM   77  O   UNK     0      -3.988  -0.945 -30.224  0.00  0.00    -0.357 OA
HETATM   78  H   UNK     0      -3.733  -1.737 -30.798  0.00  0.00     0.217 HD
ENDBRANCH   3  77
BRANCH  12  79
HETATM   79  O   UNK     0      -5.739   2.475 -23.231  0.00  0.00    -0.304 OA
BRANCH  79  80
HETATM   80  C   UNK     0      -7.056   2.766 -23.011  0.00  0.00     0.129 A 
HETATM   81  C   UNK     0      -7.689   3.960 -23.331  0.00  0.00     0.077 A 
HETATM   82  C   UNK     0      -9.031   4.130 -23.014  0.00  0.00     0.060 A 
HETATM   83  C   UNK     0      -9.744   3.119 -22.388  0.00  0.00     0.102 A 
HETATM   84  C   UNK     0      -9.116   1.926 -22.079  0.00  0.00     0.135 A 
HETATM   85  C   UNK     0      -7.781   1.756 -22.393  0.00  0.00     0.137 A 
BRANCH  81  86
HETATM   86  C   UNK     0      -6.973   5.050 -23.998  0.00  0.00     0.179 C 
HETATM   87  O   UNK     0      -6.734   6.076 -23.404  0.00  0.00    -0.646 OA
BRANCH  86  88
HETATM   88  O   UNK     0      -6.580   4.900 -25.292  0.00  0.00    -0.773 OA
HETATM   89  H   UNK     0      -5.620   5.083 -25.553  0.00  0.00     0.167 HD
ENDBRANCH  86  88
ENDBRANCH  81  86
BRANCH  83  90
HETATM   90  O   UNK     0     -11.057   3.293 -22.075  0.00  0.00    -0.358 OA
HETATM   91  H   UNK     0     -11.313   3.753 -21.211  0.00  0.00     0.217 HD
ENDBRANCH  83  90
BRANCH  84  92
HETATM   92  O   UNK     0      -9.804   0.923 -21.468  0.00  0.00    -0.356 OA
HETATM   93  H   UNK     0      -9.326   0.299 -20.831  0.00  0.00     0.218 HD
ENDBRANCH  84  92
BRANCH  85  94
HETATM   94  O   UNK     0      -7.166   0.581 -22.090  0.00  0.00    -0.356 OA
HETATM   95  H   UNK     0      -6.815   0.420 -21.154  0.00  0.00     0.218 HD
ENDBRANCH  85  94
ENDBRANCH  79  80
ENDBRANCH  12  79
BRANCH  10  96
HETATM   96  O   UNK     0      -6.033   0.444 -24.780  0.00  0.00    -0.357 OA
HETATM   97  H   UNK     0      -6.431  -0.074 -25.553  0.00  0.00     0.217 HD
ENDBRANCH  10  96
TORSDOF 26
