MODEL 1
REMARK VINA RESULT:    -8.385      0.000      0.000
REMARK INTER + INTRA:         -25.683
REMARK INTER:                 -18.892
REMARK INTRA:                  -6.791
REMARK UNBOUND:                -5.777
REMARK  31 active torsions:
REMARK  status: ('A' for Active; 'I' for Inactive)
REMARK    1  A    between atoms: O_2  and  C_27 
REMARK    2  A    between atoms: O_2  and  C_33 
REMARK    3  A    between atoms: O_3  and  C_34 
REMARK    4  A    between atoms: O_3  and  C_28 
REMARK    5  A    between atoms: O_4  and  C_35 
REMARK    6  A    between atoms: O_4  and  C_29 
REMARK    7  A    between atoms: O_5  and  C_36 
REMARK    8  A    between atoms: O_5  and  C_31 
REMARK    9  A    between atoms: O_6  and  C_32 
REMARK   10  A    between atoms: O_6  and  C_39 
REMARK   11  A    between atoms: O_12  and  C_51 
REMARK   12  A    between atoms: O_13  and  C_52 
REMARK   13  A    between atoms: O_14  and  C_53 
REMARK   14  A    between atoms: O_15  and  C_54 
REMARK   15  A    between atoms: O_16  and  C_55 
REMARK   16  A    between atoms: O_17  and  C_56 
REMARK   17  A    between atoms: O_18  and  C_59 
REMARK   18  A    between atoms: O_19  and  C_60 
REMARK   19  A    between atoms: O_20  and  C_61 
REMARK   20  A    between atoms: O_21  and  C_62 
REMARK   21  A    between atoms: O_22  and  C_63 
REMARK   22  A    between atoms: O_23  and  C_64 
REMARK   23  A    between atoms: O_24  and  C_65 
REMARK   24  A    between atoms: O_25  and  C_66 
REMARK   25  A    between atoms: O_26  and  C_67 
REMARK   26  A    between atoms: C_30  and  C_32 
REMARK   27  A    between atoms: C_33  and  C_37 
REMARK   28  A    between atoms: C_34  and  C_38 
REMARK   29  A    between atoms: C_35  and  C_40 
REMARK   30  A    between atoms: C_36  and  C_41 
REMARK   31  A    between atoms: C_39  and  C_42 
ROOT
HETATM    1  O   UNL     1     -19.855  -2.039  59.057  1.00  0.00    -0.348 OA
HETATM    2  C   UNL     1     -21.711  -4.142  58.415  1.00  0.00     0.198 C 
HETATM    3  C   UNL     1     -21.408  -2.988  57.433  1.00  0.00     0.195 C 
HETATM    4  C   UNL     1     -21.546  -3.598  59.858  1.00  0.00     0.220 C 
HETATM    5  C   UNL     1     -19.969  -2.483  57.697  1.00  0.00     0.181 C 
HETATM    6  C   UNL     1     -20.090  -3.087  59.997  1.00  0.00     0.302 C 
ENDROOT
BRANCH   5   7
HETATM    7  C   UNL     1     -19.592  -1.339  56.740  1.00  0.00     0.213 C 
BRANCH   7   8
HETATM    8  O   UNL     1     -20.617  -0.332  56.694  1.00  0.00    -0.315 OA
BRANCH   8   9
HETATM    9  C   UNL     1     -20.411   0.637  55.762  1.00  0.00     0.293 C 
HETATM   10  O   UNL     1     -19.369   1.236  55.554  1.00  0.00    -0.259 OA
BRANCH   9  11
HETATM   11  C   UNL     1     -21.657   0.880  55.005  1.00  0.00     0.045 A 
HETATM   12  C   UNL     1     -21.711   0.691  53.612  1.00  0.00     0.057 A 
HETATM   13  C   UNL     1     -22.922   0.868  52.953  1.00  0.00     0.102 A 
HETATM   14  C   UNL     1     -24.060   1.237  53.664  1.00  0.00     0.132 A 
HETATM   15  C   UNL     1     -23.999   1.427  55.038  1.00  0.00     0.102 A 
HETATM   16  C   UNL     1     -22.806   1.243  55.722  1.00  0.00     0.057 A 
BRANCH  13  17
HETATM   17  O   UNL     1     -23.052   0.677  51.605  1.00  0.00    -0.358 OA
HETATM   18  H   UNL     1     -22.471  -0.056  51.334  1.00  0.00     0.217 HD
ENDBRANCH  13  17
BRANCH  14  19
HETATM   19  O   UNL     1     -25.256   1.407  53.023  1.00  0.00    -0.356 OA
HETATM   20  H   UNL     1     -25.315   2.372  52.865  1.00  0.00     0.218 HD
ENDBRANCH  14  19
BRANCH  15  21
HETATM   21  O   UNL     1     -25.117   1.789  55.730  1.00  0.00    -0.358 OA
HETATM   22  H   UNL     1     -25.859   1.384  55.235  1.00  0.00     0.217 HD
ENDBRANCH  15  21
ENDBRANCH   9  11
ENDBRANCH   8   9
ENDBRANCH   7   8
ENDBRANCH   5   7
BRANCH   3  23
HETATM   23  O   UNL     1     -21.507  -3.415  56.057  1.00  0.00    -0.307 OA
BRANCH  23  24
HETATM   24  C   UNL     1     -22.277  -2.876  55.075  1.00  0.00     0.294 C 
HETATM   25  O   UNL     1     -21.756  -2.450  54.051  1.00  0.00    -0.259 OA
BRANCH  24  26
HETATM   26  C   UNL     1     -23.756  -2.867  55.181  1.00  0.00     0.045 A 
HETATM   27  C   UNL     1     -24.566  -3.828  54.557  1.00  0.00     0.057 A 
HETATM   28  C   UNL     1     -25.950  -3.698  54.617  1.00  0.00     0.102 A 
HETATM   29  C   UNL     1     -26.525  -2.683  55.371  1.00  0.00     0.132 A 
HETATM   30  C   UNL     1     -25.722  -1.793  56.069  1.00  0.00     0.102 A 
HETATM   31  C   UNL     1     -24.339  -1.877  55.987  1.00  0.00     0.057 A 
BRANCH  28  32
HETATM   32  O   UNL     1     -26.786  -4.538  53.935  1.00  0.00    -0.358 OA
HETATM   33  H   UNL     1     -26.409  -4.713  53.052  1.00  0.00     0.217 HD
ENDBRANCH  28  32
BRANCH  29  34
HETATM   34  O   UNL     1     -27.885  -2.548  55.432  1.00  0.00    -0.356 OA
HETATM   35  H   UNL     1     -28.072  -2.432  56.387  1.00  0.00     0.218 HD
ENDBRANCH  29  34
BRANCH  30  36
HETATM   36  O   UNL     1     -26.291  -0.816  56.832  1.00  0.00    -0.358 OA
HETATM   37  H   UNL     1     -26.379  -1.212  57.722  1.00  0.00     0.217 HD
ENDBRANCH  30  36
ENDBRANCH  24  26
ENDBRANCH  23  24
ENDBRANCH   3  23
BRANCH   6  38
HETATM   38  O   UNL     1     -19.924  -2.576  61.332  1.00  0.00    -0.283 OA
BRANCH  38  39
HETATM   39  C   UNL     1     -20.175  -1.323  61.778  1.00  0.00     0.295 C 
HETATM   40  O   UNL     1     -19.862  -0.353  61.097  1.00  0.00    -0.259 OA
BRANCH  39  41
HETATM   41  C   UNL     1     -20.720  -1.104  63.137  1.00  0.00     0.045 A 
HETATM   42  C   UNL     1     -21.742  -1.902  63.677  1.00  0.00     0.057 A 
HETATM   43  C   UNL     1     -22.150  -1.678  64.989  1.00  0.00     0.102 A 
HETATM   44  C   UNL     1     -21.622  -0.616  65.717  1.00  0.00     0.132 A 
HETATM   45  C   UNL     1     -20.685   0.230  65.141  1.00  0.00     0.102 A 
HETATM   46  C   UNL     1     -20.219  -0.009  63.857  1.00  0.00     0.057 A 
BRANCH  43  47
HETATM   47  O   UNL     1     -23.059  -2.483  65.617  1.00  0.00    -0.358 OA
HETATM   48  H   UNL     1     -22.595  -3.054  66.255  1.00  0.00     0.217 HD
ENDBRANCH  43  47
BRANCH  44  49
HETATM   49  O   UNL     1     -22.022  -0.385  67.005  1.00  0.00    -0.356 OA
HETATM   50  H   UNL     1     -22.860  -0.881  67.097  1.00  0.00     0.218 HD
ENDBRANCH  44  49
BRANCH  45  51
HETATM   51  O   UNL     1     -20.212   1.304  65.836  1.00  0.00    -0.358 OA
HETATM   52  H   UNL     1     -20.966   1.925  65.888  1.00  0.00     0.217 HD
ENDBRANCH  45  51
ENDBRANCH  39  41
ENDBRANCH  38  39
ENDBRANCH   6  38
BRANCH   2  53
HETATM   53  O   UNL     1     -22.978  -4.800  58.147  1.00  0.00    -0.306 OA
BRANCH  53  54
HETATM   54  C   UNL     1     -23.020  -6.145  58.062  1.00  0.00     0.294 C 
HETATM   55  O   UNL     1     -22.045  -6.875  57.964  1.00  0.00    -0.259 OA
BRANCH  54  56
HETATM   56  C   UNL     1     -24.416  -6.624  58.051  1.00  0.00     0.045 A 
HETATM   57  C   UNL     1     -24.783  -7.613  58.975  1.00  0.00     0.057 A 
HETATM   58  C   UNL     1     -26.101  -8.042  59.045  1.00  0.00     0.102 A 
HETATM   59  C   UNL     1     -27.061  -7.461  58.229  1.00  0.00     0.132 A 
HETATM   60  C   UNL     1     -26.699  -6.473  57.319  1.00  0.00     0.102 A 
HETATM   61  C   UNL     1     -25.376  -6.060  57.202  1.00  0.00     0.057 A 
BRANCH  58  62
HETATM   62  O   UNL     1     -26.494  -9.019  59.916  1.00  0.00    -0.358 OA
HETATM   63  H   UNL     1     -26.280  -8.727  60.821  1.00  0.00     0.217 HD
ENDBRANCH  58  62
BRANCH  59  64
HETATM   64  O   UNL     1     -28.370  -7.843  58.320  1.00  0.00    -0.356 OA
HETATM   65  H   UNL     1     -28.581  -7.757  59.273  1.00  0.00     0.218 HD
ENDBRANCH  59  64
BRANCH  60  66
HETATM   66  O   UNL     1     -27.655  -5.879  56.547  1.00  0.00    -0.358 OA
HETATM   67  H   UNL     1     -28.248  -6.612  56.281  1.00  0.00     0.217 HD
ENDBRANCH  60  66
ENDBRANCH  54  56
ENDBRANCH  53  54
ENDBRANCH   2  53
BRANCH   4  68
HETATM   68  O   UNL     1     -21.805  -4.631  60.841  1.00  0.00    -0.304 OA
BRANCH  68  69
HETATM   69  C   UNL     1     -22.892  -4.533  61.667  1.00  0.00     0.294 C 
HETATM   70  O   UNL     1     -22.915  -5.058  62.769  1.00  0.00    -0.259 OA
BRANCH  69  71
HETATM   71  C   UNL     1     -24.085  -3.857  61.109  1.00  0.00     0.045 A 
HETATM   72  C   UNL     1     -24.006  -2.545  60.618  1.00  0.00     0.057 A 
HETATM   73  C   UNL     1     -25.111  -2.007  59.964  1.00  0.00     0.102 A 
HETATM   74  C   UNL     1     -26.278  -2.752  59.830  1.00  0.00     0.132 A 
HETATM   75  C   UNL     1     -26.370  -4.019  60.391  1.00  0.00     0.102 A 
HETATM   76  C   UNL     1     -25.283  -4.578  61.048  1.00  0.00     0.057 A 
BRANCH  73  77
HETATM   77  O   UNL     1     -25.097  -0.755  59.416  1.00  0.00    -0.358 OA
HETATM   78  H   UNL     1     -25.154  -0.101  60.137  1.00  0.00     0.217 HD
ENDBRANCH  73  77
BRANCH  74  79
HETATM   79  O   UNL     1     -27.353  -2.256  59.143  1.00  0.00    -0.356 OA
HETATM   80  H   UNL     1     -27.429  -1.329  59.450  1.00  0.00     0.218 HD
ENDBRANCH  74  79
BRANCH  75  81
HETATM   81  O   UNL     1     -27.529  -4.732  60.269  1.00  0.00    -0.358 OA
HETATM   82  H   UNL     1     -27.695  -5.077  61.172  1.00  0.00     0.217 HD
ENDBRANCH  75  81
ENDBRANCH  69  71
ENDBRANCH  68  69
ENDBRANCH   4  68
TORSDOF 31
ENDMDL
MODEL 2
REMARK VINA RESULT:    -8.328      1.880      3.406
REMARK INTER + INTRA:         -25.547
REMARK INTER:                 -19.201
REMARK INTRA:                  -6.347
REMARK UNBOUND:                -5.777
REMARK  31 active torsions:
REMARK  status: ('A' for Active; 'I' for Inactive)
REMARK    1  A    between atoms: O_2  and  C_27 
REMARK    2  A    between atoms: O_2  and  C_33 
REMARK    3  A    between atoms: O_3  and  C_34 
REMARK    4  A    between atoms: O_3  and  C_28 
REMARK    5  A    between atoms: O_4  and  C_35 
REMARK    6  A    between atoms: O_4  and  C_29 
REMARK    7  A    between atoms: O_5  and  C_36 
REMARK    8  A    between atoms: O_5  and  C_31 
REMARK    9  A    between atoms: O_6  and  C_32 
REMARK   10  A    between atoms: O_6  and  C_39 
REMARK   11  A    between atoms: O_12  and  C_51 
REMARK   12  A    between atoms: O_13  and  C_52 
REMARK   13  A    between atoms: O_14  and  C_53 
REMARK   14  A    between atoms: O_15  and  C_54 
REMARK   15  A    between atoms: O_16  and  C_55 
REMARK   16  A    between atoms: O_17  and  C_56 
REMARK   17  A    between atoms: O_18  and  C_59 
REMARK   18  A    between atoms: O_19  and  C_60 
REMARK   19  A    between atoms: O_20  and  C_61 
REMARK   20  A    between atoms: O_21  and  C_62 
REMARK   21  A    between atoms: O_22  and  C_63 
REMARK   22  A    between atoms: O_23  and  C_64 
REMARK   23  A    between atoms: O_24  and  C_65 
REMARK   24  A    between atoms: O_25  and  C_66 
REMARK   25  A    between atoms: O_26  and  C_67 
REMARK   26  A    between atoms: C_30  and  C_32 
REMARK   27  A    between atoms: C_33  and  C_37 
REMARK   28  A    between atoms: C_34  and  C_38 
REMARK   29  A    between atoms: C_35  and  C_40 
REMARK   30  A    between atoms: C_36  and  C_41 
REMARK   31  A    between atoms: C_39  and  C_42 
ROOT
HETATM    1  O   UNL     1     -19.690  -2.620  59.684  1.00  0.00    -0.348 OA
HETATM    2  C   UNL     1     -21.788  -4.403  58.847  1.00  0.00     0.198 C 
HETATM    3  C   UNL     1     -21.248  -3.285  57.928  1.00  0.00     0.195 C 
HETATM    4  C   UNL     1     -21.647  -3.926  60.316  1.00  0.00     0.220 C 
HETATM    5  C   UNL     1     -19.772  -3.008  58.304  1.00  0.00     0.181 C 
HETATM    6  C   UNL     1     -20.145  -3.644  60.569  1.00  0.00     0.302 C 
ENDROOT
BRANCH   5   7
HETATM    7  C   UNL     1     -19.162  -1.912  57.415  1.00  0.00     0.213 C 
BRANCH   7   8
HETATM    8  O   UNL     1     -19.377  -0.604  57.971  1.00  0.00    -0.315 OA
BRANCH   8   9
HETATM    9  C   UNL     1     -19.303   0.410  57.066  1.00  0.00     0.293 C 
HETATM   10  O   UNL     1     -19.880   0.472  55.995  1.00  0.00    -0.259 OA
BRANCH   9  11
HETATM   11  C   UNL     1     -18.400   1.467  57.571  1.00  0.00     0.045 A 
HETATM   12  C   UNL     1     -18.082   2.589  56.783  1.00  0.00     0.057 A 
HETATM   13  C   UNL     1     -17.282   3.589  57.325  1.00  0.00     0.102 A 
HETATM   14  C   UNL     1     -16.796   3.472  58.624  1.00  0.00     0.132 A 
HETATM   15  C   UNL     1     -17.109   2.359  59.393  1.00  0.00     0.102 A 
HETATM   16  C   UNL     1     -17.918   1.354  58.882  1.00  0.00     0.057 A 
BRANCH  13  17
HETATM   17  O   UNL     1     -16.954   4.717  56.625  1.00  0.00    -0.358 OA
HETATM   18  H   UNL     1     -16.115   4.564  56.156  1.00  0.00     0.217 HD
ENDBRANCH  13  17
BRANCH  14  19
HETATM   19  O   UNL     1     -16.013   4.454  59.165  1.00  0.00    -0.356 OA
HETATM   20  H   UNL     1     -15.796   5.039  58.410  1.00  0.00     0.218 HD
ENDBRANCH  14  19
BRANCH  15  21
HETATM   21  O   UNL     1     -16.631   2.249  60.666  1.00  0.00    -0.358 OA
HETATM   22  H   UNL     1     -15.969   2.967  60.747  1.00  0.00     0.217 HD
ENDBRANCH  15  21
ENDBRANCH   9  11
ENDBRANCH   8   9
ENDBRANCH   7   8
ENDBRANCH   5   7
BRANCH   3  23
HETATM   23  O   UNL     1     -21.311  -3.658  56.535  1.00  0.00    -0.307 OA
BRANCH  23  24
HETATM   24  C   UNL     1     -21.860  -2.951  55.511  1.00  0.00     0.294 C 
HETATM   25  O   UNL     1     -21.148  -2.521  54.611  1.00  0.00    -0.259 OA
BRANCH  24  26
HETATM   26  C   UNL     1     -23.327  -2.758  55.415  1.00  0.00     0.045 A 
HETATM   27  C   UNL     1     -24.006  -1.752  56.121  1.00  0.00     0.057 A 
HETATM   28  C   UNL     1     -25.395  -1.693  56.062  1.00  0.00     0.102 A 
HETATM   29  C   UNL     1     -26.096  -2.559  55.233  1.00  0.00     0.132 A 
HETATM   30  C   UNL     1     -25.416  -3.487  54.458  1.00  0.00     0.102 A 
HETATM   31  C   UNL     1     -24.033  -3.593  54.536  1.00  0.00     0.057 A 
BRANCH  28  32
HETATM   32  O   UNL     1     -26.115  -0.809  56.816  1.00  0.00    -0.358 OA
HETATM   33  H   UNL     1     -26.473  -1.274  57.595  1.00  0.00     0.217 HD
ENDBRANCH  28  32
BRANCH  29  34
HETATM   34  O   UNL     1     -27.461  -2.508  55.171  1.00  0.00    -0.356 OA
HETATM   35  H   UNL     1     -27.698  -3.199  54.517  1.00  0.00     0.218 HD
ENDBRANCH  29  34
BRANCH  30  36
HETATM   36  O   UNL     1     -26.105  -4.316  53.624  1.00  0.00    -0.358 OA
HETATM   37  H   UNL     1     -26.168  -3.826  52.779  1.00  0.00     0.217 HD
ENDBRANCH  30  36
ENDBRANCH  24  26
ENDBRANCH  23  24
ENDBRANCH   3  23
BRANCH   6  38
HETATM   38  O   UNL     1     -20.000  -3.197  61.929  1.00  0.00    -0.283 OA
BRANCH  38  39
HETATM   39  C   UNL     1     -19.306  -2.126  62.381  1.00  0.00     0.295 C 
HETATM   40  O   UNL     1     -18.081  -2.119  62.327  1.00  0.00    -0.259 OA
BRANCH  39  41
HETATM   41  C   UNL     1     -20.004  -1.007  63.052  1.00  0.00     0.045 A 
HETATM   42  C   UNL     1     -19.687  -0.594  64.357  1.00  0.00     0.057 A 
HETATM   43  C   UNL     1     -20.340   0.513  64.891  1.00  0.00     0.102 A 
HETATM   44  C   UNL     1     -21.359   1.138  64.178  1.00  0.00     0.132 A 
HETATM   45  C   UNL     1     -21.735   0.662  62.930  1.00  0.00     0.102 A 
HETATM   46  C   UNL     1     -21.059  -0.402  62.352  1.00  0.00     0.057 A 
BRANCH  43  47
HETATM   47  O   UNL     1     -20.009   1.038  66.108  1.00  0.00    -0.358 OA
HETATM   48  H   UNL     1     -20.795   1.036  66.683  1.00  0.00     0.217 HD
ENDBRANCH  43  47
BRANCH  44  49
HETATM   49  O   UNL     1     -22.010   2.224  64.698  1.00  0.00    -0.356 OA
HETATM   50  H   UNL     1     -22.142   2.005  65.643  1.00  0.00     0.218 HD
ENDBRANCH  44  49
BRANCH  45  51
HETATM   51  O   UNL     1     -22.772   1.241  62.260  1.00  0.00    -0.358 OA
HETATM   52  H   UNL     1     -23.401   1.519  62.955  1.00  0.00     0.217 HD
ENDBRANCH  45  51
ENDBRANCH  39  41
ENDBRANCH  38  39
ENDBRANCH   6  38
BRANCH   2  53
HETATM   53  O   UNL     1     -23.117  -4.855  58.473  1.00  0.00    -0.306 OA
BRANCH  53  54
HETATM   54  C   UNL     1     -23.331  -6.168  58.251  1.00  0.00     0.294 C 
HETATM   55  O   UNL     1     -22.457  -7.016  58.144  1.00  0.00    -0.259 OA
BRANCH  54  56
HETATM   56  C   UNL     1     -24.774  -6.444  58.098  1.00  0.00     0.045 A 
HETATM   57  C   UNL     1     -25.384  -7.298  59.027  1.00  0.00     0.057 A 
HETATM   58  C   UNL     1     -26.751  -7.529  58.963  1.00  0.00     0.102 A 
HETATM   59  C   UNL     1     -27.516  -6.881  58.005  1.00  0.00     0.132 A 
HETATM   60  C   UNL     1     -26.912  -6.025  57.089  1.00  0.00     0.102 A 
HETATM   61  C   UNL     1     -25.538  -5.814  57.109  1.00  0.00     0.057 A 
BRANCH  58  62
HETATM   62  O   UNL     1     -27.379  -8.372  59.835  1.00  0.00    -0.358 OA
HETATM   63  H   UNL     1     -28.315  -8.104  59.901  1.00  0.00     0.217 HD
ENDBRANCH  58  62
BRANCH  59  64
HETATM   64  O   UNL     1     -28.871  -7.065  57.959  1.00  0.00    -0.356 OA
HETATM   65  H   UNL     1     -29.055  -7.685  58.696  1.00  0.00     0.218 HD
ENDBRANCH  59  64
BRANCH  60  66
HETATM   66  O   UNL     1     -27.677  -5.361  56.175  1.00  0.00    -0.358 OA
HETATM   67  H   UNL     1     -27.970  -6.055  55.547  1.00  0.00     0.217 HD
ENDBRANCH  60  66
ENDBRANCH  54  56
ENDBRANCH  53  54
ENDBRANCH   2  53
BRANCH   4  68
HETATM   68  O   UNL     1     -22.127  -4.932  61.242  1.00  0.00    -0.304 OA
BRANCH  68  69
HETATM   69  C   UNL     1     -23.218  -4.675  62.027  1.00  0.00     0.294 C 
HETATM   70  O   UNL     1     -23.310  -5.105  63.166  1.00  0.00    -0.259 OA
BRANCH  69  71
HETATM   71  C   UNL     1     -24.336  -3.949  61.384  1.00  0.00     0.045 A 
HETATM   72  C   UNL     1     -24.139  -2.683  60.811  1.00  0.00     0.057 A 
HETATM   73  C   UNL     1     -25.177  -2.108  60.084  1.00  0.00     0.102 A 
HETATM   74  C   UNL     1     -26.395  -2.769  59.956  1.00  0.00     0.132 A 
HETATM   75  C   UNL     1     -26.604  -3.984  60.595  1.00  0.00     0.102 A 
HETATM   76  C   UNL     1     -25.585  -4.578  61.326  1.00  0.00     0.057 A 
BRANCH  73  77
HETATM   77  O   UNL     1     -25.047  -0.901  59.456  1.00  0.00    -0.358 OA
HETATM   78  H   UNL     1     -24.490  -1.021  58.665  1.00  0.00     0.217 HD
ENDBRANCH  73  77
BRANCH  74  79
HETATM   79  O   UNL     1     -27.406  -2.239  59.200  1.00  0.00    -0.356 OA
HETATM   80  H   UNL     1     -27.754  -3.002  58.693  1.00  0.00     0.218 HD
ENDBRANCH  74  79
BRANCH  75  81
HETATM   81  O   UNL     1     -27.811  -4.612  60.478  1.00  0.00    -0.358 OA
HETATM   82  H   UNL     1     -28.405  -4.102  61.069  1.00  0.00     0.217 HD
ENDBRANCH  75  81
ENDBRANCH  69  71
ENDBRANCH  68  69
ENDBRANCH   4  68
TORSDOF 31
ENDMDL
MODEL 3
REMARK VINA RESULT:    -8.311      2.455      7.621
REMARK INTER + INTRA:         -25.506
REMARK INTER:                 -19.302
REMARK INTRA:                  -6.205
REMARK UNBOUND:                -5.777
REMARK  31 active torsions:
REMARK  status: ('A' for Active; 'I' for Inactive)
REMARK    1  A    between atoms: O_2  and  C_27 
REMARK    2  A    between atoms: O_2  and  C_33 
REMARK    3  A    between atoms: O_3  and  C_34 
REMARK    4  A    between atoms: O_3  and  C_28 
REMARK    5  A    between atoms: O_4  and  C_35 
REMARK    6  A    between atoms: O_4  and  C_29 
REMARK    7  A    between atoms: O_5  and  C_36 
REMARK    8  A    between atoms: O_5  and  C_31 
REMARK    9  A    between atoms: O_6  and  C_32 
REMARK   10  A    between atoms: O_6  and  C_39 
REMARK   11  A    between atoms: O_12  and  C_51 
REMARK   12  A    between atoms: O_13  and  C_52 
REMARK   13  A    between atoms: O_14  and  C_53 
REMARK   14  A    between atoms: O_15  and  C_54 
REMARK   15  A    between atoms: O_16  and  C_55 
REMARK   16  A    between atoms: O_17  and  C_56 
REMARK   17  A    between atoms: O_18  and  C_59 
REMARK   18  A    between atoms: O_19  and  C_60 
REMARK   19  A    between atoms: O_20  and  C_61 
REMARK   20  A    between atoms: O_21  and  C_62 
REMARK   21  A    between atoms: O_22  and  C_63 
REMARK   22  A    between atoms: O_23  and  C_64 
REMARK   23  A    between atoms: O_24  and  C_65 
REMARK   24  A    between atoms: O_25  and  C_66 
REMARK   25  A    between atoms: O_26  and  C_67 
REMARK   26  A    between atoms: C_30  and  C_32 
REMARK   27  A    between atoms: C_33  and  C_37 
REMARK   28  A    between atoms: C_34  and  C_38 
REMARK   29  A    between atoms: C_35  and  C_40 
REMARK   30  A    between atoms: C_36  and  C_41 
REMARK   31  A    between atoms: C_39  and  C_42 
ROOT
HETATM    1  O   UNL     1     -18.755  -1.526  57.668  1.00  0.00    -0.348 OA
HETATM    2  C   UNL     1     -20.881  -1.863  59.577  1.00  0.00     0.198 C 
HETATM    3  C   UNL     1     -19.393  -1.965  59.981  1.00  0.00     0.195 C 
HETATM    4  C   UNL     1     -21.011  -2.333  58.105  1.00  0.00     0.220 C 
HETATM    5  C   UNL     1     -18.561  -1.083  59.019  1.00  0.00     0.181 C 
HETATM    6  C   UNL     1     -20.113  -1.410  57.243  1.00  0.00     0.302 C 
ENDROOT
BRANCH   5   7
HETATM    7  C   UNL     1     -17.065  -1.123  59.374  1.00  0.00     0.213 C 
BRANCH   7   8
HETATM    8  O   UNL     1     -16.442   0.156  59.175  1.00  0.00    -0.315 OA
BRANCH   8   9
HETATM    9  C   UNL     1     -17.033   1.180  59.848  1.00  0.00     0.293 C 
HETATM   10  O   UNL     1     -17.457   1.151  60.990  1.00  0.00    -0.259 OA
BRANCH   9  11
HETATM   11  C   UNL     1     -17.095   2.379  58.984  1.00  0.00     0.045 A 
HETATM   12  C   UNL     1     -17.035   3.674  59.532  1.00  0.00     0.057 A 
HETATM   13  C   UNL     1     -17.031   4.769  58.675  1.00  0.00     0.102 A 
HETATM   14  C   UNL     1     -17.095   4.582  57.297  1.00  0.00     0.132 A 
HETATM   15  C   UNL     1     -17.159   3.302  56.764  1.00  0.00     0.102 A 
HETATM   16  C   UNL     1     -17.150   2.191  57.596  1.00  0.00     0.057 A 
BRANCH  13  17
HETATM   17  O   UNL     1     -16.950   6.053  59.137  1.00  0.00    -0.358 OA
HETATM   18  H   UNL     1     -17.851   6.391  59.285  1.00  0.00     0.217 HD
ENDBRANCH  13  17
BRANCH  14  19
HETATM   19  O   UNL     1     -17.086   5.655  56.448  1.00  0.00    -0.356 OA
HETATM   20  H   UNL     1     -16.246   6.117  56.646  1.00  0.00     0.218 HD
ENDBRANCH  14  19
BRANCH  15  21
HETATM   21  O   UNL     1     -17.221   3.124  55.413  1.00  0.00    -0.358 OA
HETATM   22  H   UNL     1     -16.644   3.822  55.042  1.00  0.00     0.217 HD
ENDBRANCH  15  21
ENDBRANCH   9  11
ENDBRANCH   8   9
ENDBRANCH   7   8
ENDBRANCH   5   7
BRANCH   3  23
HETATM   23  O   UNL     1     -19.173  -1.514  61.335  1.00  0.00    -0.307 OA
BRANCH  23  24
HETATM   24  C   UNL     1     -19.341  -2.223  62.483  1.00  0.00     0.294 C 
HETATM   25  O   UNL     1     -18.834  -3.333  62.599  1.00  0.00    -0.259 OA
BRANCH  24  26
HETATM   26  C   UNL     1     -20.065  -1.644  63.640  1.00  0.00     0.045 A 
HETATM   27  C   UNL     1     -19.747  -0.388  64.181  1.00  0.00     0.057 A 
HETATM   28  C   UNL     1     -20.401   0.048  65.329  1.00  0.00     0.102 A 
HETATM   29  C   UNL     1     -21.428  -0.709  65.878  1.00  0.00     0.132 A 
HETATM   30  C   UNL     1     -21.809  -1.903  65.284  1.00  0.00     0.102 A 
HETATM   31  C   UNL     1     -21.140  -2.378  64.164  1.00  0.00     0.057 A 
BRANCH  28  32
HETATM   32  O   UNL     1     -20.054   1.207  65.963  1.00  0.00    -0.358 OA
HETATM   33  H   UNL     1     -20.855   1.747  66.099  1.00  0.00     0.217 HD
ENDBRANCH  28  32
BRANCH  29  34
HETATM   34  O   UNL     1     -22.073  -0.288  67.008  1.00  0.00    -0.356 OA
HETATM   35  H   UNL     1     -21.461   0.364  67.407  1.00  0.00     0.218 HD
ENDBRANCH  29  34
BRANCH  30  36
HETATM   36  O   UNL     1     -22.837  -2.629  65.809  1.00  0.00    -0.358 OA
HETATM   37  H   UNL     1     -23.329  -1.997  66.371  1.00  0.00     0.217 HD
ENDBRANCH  30  36
ENDBRANCH  24  26
ENDBRANCH  23  24
ENDBRANCH   3  23
BRANCH   6  38
HETATM   38  O   UNL     1     -20.222  -1.838  55.873  1.00  0.00    -0.283 OA
BRANCH  38  39
HETATM   39  C   UNL     1     -20.623  -1.109  54.806  1.00  0.00     0.295 C 
HETATM   40  O   UNL     1     -20.497  -1.557  53.671  1.00  0.00    -0.259 OA
BRANCH  39  41
HETATM   41  C   UNL     1     -21.106   0.279  54.983  1.00  0.00     0.045 A 
HETATM   42  C   UNL     1     -20.244   1.387  54.958  1.00  0.00     0.057 A 
HETATM   43  C   UNL     1     -20.785   2.666  55.060  1.00  0.00     0.102 A 
HETATM   44  C   UNL     1     -22.148   2.835  55.282  1.00  0.00     0.132 A 
HETATM   45  C   UNL     1     -22.980   1.731  55.406  1.00  0.00     0.102 A 
HETATM   46  C   UNL     1     -22.473   0.450  55.248  1.00  0.00     0.057 A 
BRANCH  43  47
HETATM   47  O   UNL     1     -20.022   3.793  54.934  1.00  0.00    -0.358 OA
HETATM   48  H   UNL     1     -20.463   4.531  55.391  1.00  0.00     0.217 HD
ENDBRANCH  43  47
BRANCH  44  49
HETATM   49  O   UNL     1     -22.688   4.088  55.389  1.00  0.00    -0.356 OA
HETATM   50  H   UNL     1     -22.018   4.681  54.992  1.00  0.00     0.218 HD
ENDBRANCH  44  49
BRANCH  45  51
HETATM   51  O   UNL     1     -24.305   1.899  55.681  1.00  0.00    -0.358 OA
HETATM   52  H   UNL     1     -24.677   0.995  55.703  1.00  0.00     0.217 HD
ENDBRANCH  45  51
ENDBRANCH  39  41
ENDBRANCH  38  39
ENDBRANCH   6  38
BRANCH   2  53
HETATM   53  O   UNL     1     -21.772  -2.525  60.514  1.00  0.00    -0.306 OA
BRANCH  53  54
HETATM   54  C   UNL     1     -22.810  -1.841  61.036  1.00  0.00     0.294 C 
HETATM   55  O   UNL     1     -22.724  -0.777  61.633  1.00  0.00    -0.259 OA
BRANCH  54  56
HETATM   56  C   UNL     1     -24.074  -2.577  60.839  1.00  0.00     0.045 A 
HETATM   57  C   UNL     1     -24.308  -3.711  61.630  1.00  0.00     0.057 A 
HETATM   58  C   UNL     1     -25.513  -4.391  61.527  1.00  0.00     0.102 A 
HETATM   59  C   UNL     1     -26.499  -3.924  60.671  1.00  0.00     0.132 A 
HETATM   60  C   UNL     1     -26.271  -2.793  59.894  1.00  0.00     0.102 A 
HETATM   61  C   UNL     1     -25.055  -2.121  59.950  1.00  0.00     0.057 A 
BRANCH  58  62
HETATM   62  O   UNL     1     -25.771  -5.513  62.263  1.00  0.00    -0.358 OA
HETATM   63  H   UNL     1     -26.302  -5.256  63.039  1.00  0.00     0.217 HD
ENDBRANCH  58  62
BRANCH  59  64
HETATM   64  O   UNL     1     -27.708  -4.559  60.594  1.00  0.00    -0.356 OA
HETATM   65  H   UNL     1     -28.218  -4.203  61.351  1.00  0.00     0.218 HD
ENDBRANCH  59  64
BRANCH  60  66
HETATM   66  O   UNL     1     -27.261  -2.316  59.084  1.00  0.00    -0.358 OA
HETATM   67  H   UNL     1     -28.088  -2.678  59.465  1.00  0.00     0.217 HD
ENDBRANCH  60  66
ENDBRANCH  54  56
ENDBRANCH  53  54
ENDBRANCH   2  53
BRANCH   4  68
HETATM   68  O   UNL     1     -22.384  -2.256  57.649  1.00  0.00    -0.304 OA
BRANCH  68  69
HETATM   69  C   UNL     1     -23.060  -3.398  57.313  1.00  0.00     0.294 C 
HETATM   70  O   UNL     1     -22.608  -4.508  57.546  1.00  0.00    -0.259 OA
BRANCH  69  71
HETATM   71  C   UNL     1     -24.312  -3.220  56.544  1.00  0.00     0.045 A 
HETATM   72  C   UNL     1     -25.310  -4.206  56.554  1.00  0.00     0.057 A 
HETATM   73  C   UNL     1     -26.531  -3.930  55.944  1.00  0.00     0.102 A 
HETATM   74  C   UNL     1     -26.739  -2.707  55.313  1.00  0.00     0.132 A 
HETATM   75  C   UNL     1     -25.716  -1.772  55.241  1.00  0.00     0.102 A 
HETATM   76  C   UNL     1     -24.490  -2.023  55.841  1.00  0.00     0.057 A 
BRANCH  73  77
HETATM   77  O   UNL     1     -27.569  -4.819  55.952  1.00  0.00    -0.358 OA
HETATM   78  H   UNL     1     -27.811  -5.003  56.879  1.00  0.00     0.217 HD
ENDBRANCH  73  77
BRANCH  74  79
HETATM   79  O   UNL     1     -27.952  -2.402  54.756  1.00  0.00    -0.356 OA
HETATM   80  H   UNL     1     -27.729  -2.046  53.871  1.00  0.00     0.218 HD
ENDBRANCH  74  79
BRANCH  75  81
HETATM   81  O   UNL     1     -25.928  -0.584  54.601  1.00  0.00    -0.358 OA
HETATM   82  H   UNL     1     -26.645  -0.158  55.117  1.00  0.00     0.217 HD
ENDBRANCH  75  81
ENDBRANCH  69  71
ENDBRANCH  68  69
ENDBRANCH   4  68
TORSDOF 31
ENDMDL
MODEL 4
REMARK VINA RESULT:    -8.281      2.267      9.677
REMARK INTER + INTRA:         -25.435
REMARK INTER:                 -18.804
REMARK INTRA:                  -6.631
REMARK UNBOUND:                -5.777
REMARK  31 active torsions:
REMARK  status: ('A' for Active; 'I' for Inactive)
REMARK    1  A    between atoms: O_2  and  C_27 
REMARK    2  A    between atoms: O_2  and  C_33 
REMARK    3  A    between atoms: O_3  and  C_34 
REMARK    4  A    between atoms: O_3  and  C_28 
REMARK    5  A    between atoms: O_4  and  C_35 
REMARK    6  A    between atoms: O_4  and  C_29 
REMARK    7  A    between atoms: O_5  and  C_36 
REMARK    8  A    between atoms: O_5  and  C_31 
REMARK    9  A    between atoms: O_6  and  C_32 
REMARK   10  A    between atoms: O_6  and  C_39 
REMARK   11  A    between atoms: O_12  and  C_51 
REMARK   12  A    between atoms: O_13  and  C_52 
REMARK   13  A    between atoms: O_14  and  C_53 
REMARK   14  A    between atoms: O_15  and  C_54 
REMARK   15  A    between atoms: O_16  and  C_55 
REMARK   16  A    between atoms: O_17  and  C_56 
REMARK   17  A    between atoms: O_18  and  C_59 
REMARK   18  A    between atoms: O_19  and  C_60 
REMARK   19  A    between atoms: O_20  and  C_61 
REMARK   20  A    between atoms: O_21  and  C_62 
REMARK   21  A    between atoms: O_22  and  C_63 
REMARK   22  A    between atoms: O_23  and  C_64 
REMARK   23  A    between atoms: O_24  and  C_65 
REMARK   24  A    between atoms: O_25  and  C_66 
REMARK   25  A    between atoms: O_26  and  C_67 
REMARK   26  A    between atoms: C_30  and  C_32 
REMARK   27  A    between atoms: C_33  and  C_37 
REMARK   28  A    between atoms: C_34  and  C_38 
REMARK   29  A    between atoms: C_35  and  C_40 
REMARK   30  A    between atoms: C_36  and  C_41 
REMARK   31  A    between atoms: C_39  and  C_42 
ROOT
HETATM    1  O   UNL     1     -20.842  -2.834  58.064  1.00  0.00    -0.348 OA
HETATM    2  C   UNL     1     -19.039  -0.606  58.321  1.00  0.00     0.198 C 
HETATM    3  C   UNL     1     -19.578  -1.371  59.551  1.00  0.00     0.195 C 
HETATM    4  C   UNL     1     -20.115  -0.673  57.206  1.00  0.00     0.220 C 
HETATM    5  C   UNL     1     -19.881  -2.829  59.130  1.00  0.00     0.181 C 
HETATM    6  C   UNL     1     -20.365  -2.170  56.894  1.00  0.00     0.302 C 
ENDROOT
BRANCH   5   7
HETATM    7  C   UNL     1     -20.409  -3.656  60.314  1.00  0.00     0.213 C 
BRANCH   7   8
HETATM    8  O   UNL     1     -21.532  -4.468  59.931  1.00  0.00    -0.315 OA
BRANCH   8   9
HETATM    9  C   UNL     1     -22.487  -4.595  60.891  1.00  0.00     0.293 C 
HETATM   10  O   UNL     1     -22.347  -5.089  61.996  1.00  0.00    -0.259 OA
BRANCH   9  11
HETATM   11  C   UNL     1     -23.766  -4.033  60.403  1.00  0.00     0.045 A 
HETATM   12  C   UNL     1     -24.913  -4.838  60.276  1.00  0.00     0.057 A 
HETATM   13  C   UNL     1     -26.108  -4.250  59.876  1.00  0.00     0.102 A 
HETATM   14  C   UNL     1     -26.161  -2.888  59.598  1.00  0.00     0.132 A 
HETATM   15  C   UNL     1     -25.024  -2.100  59.721  1.00  0.00     0.102 A 
HETATM   16  C   UNL     1     -23.822  -2.659  60.132  1.00  0.00     0.057 A 
BRANCH  13  17
HETATM   17  O   UNL     1     -27.265  -4.967  59.755  1.00  0.00    -0.358 OA
HETATM   18  H   UNL     1     -27.044  -5.883  59.511  1.00  0.00     0.217 HD
ENDBRANCH  13  17
BRANCH  14  19
HETATM   19  O   UNL     1     -27.335  -2.303  59.210  1.00  0.00    -0.356 OA
HETATM   20  H   UNL     1     -27.122  -1.864  58.361  1.00  0.00     0.218 HD
ENDBRANCH  14  19
BRANCH  15  21
HETATM   21  O   UNL     1     -25.082  -0.765  59.447  1.00  0.00    -0.358 OA
HETATM   22  H   UNL     1     -24.223  -0.410  59.755  1.00  0.00     0.217 HD
ENDBRANCH  15  21
ENDBRANCH   9  11
ENDBRANCH   8   9
ENDBRANCH   7   8
ENDBRANCH   5   7
BRANCH   3  23
HETATM   23  O   UNL     1     -18.623  -1.387  60.634  1.00  0.00    -0.307 OA
BRANCH  23  24
HETATM   24  C   UNL     1     -18.641  -0.637  61.767  1.00  0.00     0.294 C 
HETATM   25  O   UNL     1     -17.721   0.136  62.007  1.00  0.00    -0.259 OA
BRANCH  24  26
HETATM   26  C   UNL     1     -19.801  -0.674  62.690  1.00  0.00     0.045 A 
HETATM   27  C   UNL     1     -20.850   0.255  62.625  1.00  0.00     0.057 A 
HETATM   28  C   UNL     1     -21.855   0.221  63.587  1.00  0.00     0.102 A 
HETATM   29  C   UNL     1     -21.872  -0.786  64.544  1.00  0.00     0.132 A 
HETATM   30  C   UNL     1     -20.888  -1.764  64.545  1.00  0.00     0.102 A 
HETATM   31  C   UNL     1     -19.851  -1.722  63.622  1.00  0.00     0.057 A 
BRANCH  28  32
HETATM   32  O   UNL     1     -22.839   1.168  63.641  1.00  0.00    -0.358 OA
HETATM   33  H   UNL     1     -22.468   1.991  64.010  1.00  0.00     0.217 HD
ENDBRANCH  28  32
BRANCH  29  34
HETATM   34  O   UNL     1     -22.856  -0.826  65.494  1.00  0.00    -0.356 OA
HETATM   35  H   UNL     1     -22.457  -1.332  66.232  1.00  0.00     0.218 HD
ENDBRANCH  29  34
BRANCH  30  36
HETATM   36  O   UNL     1     -20.924  -2.767  65.468  1.00  0.00    -0.358 OA
HETATM   37  H   UNL     1     -20.271  -3.423  65.150  1.00  0.00     0.217 HD
ENDBRANCH  30  36
ENDBRANCH  24  26
ENDBRANCH  23  24
ENDBRANCH   3  23
BRANCH   6  38
HETATM   38  O   UNL     1     -21.365  -2.247  55.861  1.00  0.00    -0.283 OA
BRANCH  38  39
HETATM   39  C   UNL     1     -22.217  -3.268  55.606  1.00  0.00     0.295 C 
HETATM   40  O   UNL     1     -21.781  -4.388  55.364  1.00  0.00    -0.259 OA
BRANCH  39  41
HETATM   41  C   UNL     1     -23.673  -3.022  55.499  1.00  0.00     0.045 A 
HETATM   42  C   UNL     1     -24.334  -2.056  56.276  1.00  0.00     0.057 A 
HETATM   43  C   UNL     1     -25.692  -1.835  56.065  1.00  0.00     0.102 A 
HETATM   44  C   UNL     1     -26.401  -2.629  55.169  1.00  0.00     0.132 A 
HETATM   45  C   UNL     1     -25.762  -3.650  54.479  1.00  0.00     0.102 A 
HETATM   46  C   UNL     1     -24.397  -3.849  54.628  1.00  0.00     0.057 A 
BRANCH  43  47
HETATM   47  O   UNL     1     -26.377  -0.840  56.703  1.00  0.00    -0.358 OA
HETATM   48  H   UNL     1     -27.039  -0.465  56.095  1.00  0.00     0.217 HD
ENDBRANCH  43  47
BRANCH  44  49
HETATM   49  O   UNL     1     -27.738  -2.423  54.960  1.00  0.00    -0.356 OA
HETATM   50  H   UNL     1     -27.810  -1.475  54.731  1.00  0.00     0.218 HD
ENDBRANCH  44  49
BRANCH  45  51
HETATM   51  O   UNL     1     -26.471  -4.463  53.646  1.00  0.00    -0.358 OA
HETATM   52  H   UNL     1     -27.173  -4.852  54.206  1.00  0.00     0.217 HD
ENDBRANCH  45  51
ENDBRANCH  39  41
ENDBRANCH  38  39
ENDBRANCH   6  38
BRANCH   2  53
HETATM   53  O   UNL     1     -18.569   0.731  58.642  1.00  0.00    -0.306 OA
BRANCH  53  54
HETATM   54  C   UNL     1     -17.247   0.990  58.617  1.00  0.00     0.294 C 
HETATM   55  O   UNL     1     -16.378   0.268  59.083  1.00  0.00    -0.259 OA
BRANCH  54  56
HETATM   56  C   UNL     1     -16.984   2.302  57.992  1.00  0.00     0.045 A 
HETATM   57  C   UNL     1     -16.792   2.346  56.604  1.00  0.00     0.057 A 
HETATM   58  C   UNL     1     -16.613   3.566  55.967  1.00  0.00     0.102 A 
HETATM   59  C   UNL     1     -16.664   4.742  56.700  1.00  0.00     0.132 A 
HETATM   60  C   UNL     1     -16.865   4.699  58.076  1.00  0.00     0.102 A 
HETATM   61  C   UNL     1     -17.004   3.485  58.740  1.00  0.00     0.057 A 
BRANCH  58  62
HETATM   62  O   UNL     1     -16.400   3.649  54.620  1.00  0.00    -0.358 OA
HETATM   63  H   UNL     1     -15.496   3.334  54.432  1.00  0.00     0.217 HD
ENDBRANCH  58  62
BRANCH  59  64
HETATM   64  O   UNL     1     -16.534   5.953  56.078  1.00  0.00    -0.356 OA
HETATM   65  H   UNL     1     -17.090   5.873  55.275  1.00  0.00     0.218 HD
ENDBRANCH  59  64
BRANCH  60  66
HETATM   66  O   UNL     1     -16.955   5.862  58.784  1.00  0.00    -0.358 OA
HETATM   67  H   UNL     1     -16.717   5.612  59.701  1.00  0.00     0.217 HD
ENDBRANCH  60  66
ENDBRANCH  54  56
ENDBRANCH  53  54
ENDBRANCH   2  53
BRANCH   4  68
HETATM   68  O   UNL     1     -19.675   0.017  56.011  1.00  0.00    -0.304 OA
BRANCH  68  69
HETATM   69  C   UNL     1     -20.304   1.165  55.612  1.00  0.00     0.294 C 
HETATM   70  O   UNL     1     -19.814   2.267  55.796  1.00  0.00    -0.259 OA
BRANCH  69  71
HETATM   71  C   UNL     1     -21.665   1.009  55.051  1.00  0.00     0.045 A 
HETATM   72  C   UNL     1     -22.797   1.380  55.793  1.00  0.00     0.057 A 
HETATM   73  C   UNL     1     -24.042   1.361  55.171  1.00  0.00     0.102 A 
HETATM   74  C   UNL     1     -24.158   0.953  53.846  1.00  0.00     0.132 A 
HETATM   75  C   UNL     1     -23.042   0.511  53.148  1.00  0.00     0.102 A 
HETATM   76  C   UNL     1     -21.789   0.521  53.746  1.00  0.00     0.057 A 
BRANCH  73  77
HETATM   77  O   UNL     1     -25.184   1.754  55.811  1.00  0.00    -0.358 OA
HETATM   78  H   UNL     1     -25.389   1.101  56.506  1.00  0.00     0.217 HD
ENDBRANCH  73  77
BRANCH  74  79
HETATM   79  O   UNL     1     -25.367   0.980  53.206  1.00  0.00    -0.356 OA
HETATM   80  H   UNL     1     -25.775   0.115  53.422  1.00  0.00     0.218 HD
ENDBRANCH  74  79
BRANCH  75  81
HETATM   81  O   UNL     1     -23.173   0.094  51.854  1.00  0.00    -0.358 OA
HETATM   82  H   UNL     1     -23.918  -0.544  51.882  1.00  0.00     0.217 HD
ENDBRANCH  75  81
ENDBRANCH  69  71
ENDBRANCH  68  69
ENDBRANCH   4  68
TORSDOF 31
ENDMDL
MODEL 5
REMARK VINA RESULT:    -8.219     19.166     23.451
REMARK INTER + INTRA:         -25.287
REMARK INTER:                 -19.250
REMARK INTRA:                  -6.037
REMARK UNBOUND:                -5.777
REMARK  31 active torsions:
REMARK  status: ('A' for Active; 'I' for Inactive)
REMARK    1  A    between atoms: O_2  and  C_27 
REMARK    2  A    between atoms: O_2  and  C_33 
REMARK    3  A    between atoms: O_3  and  C_34 
REMARK    4  A    between atoms: O_3  and  C_28 
REMARK    5  A    between atoms: O_4  and  C_35 
REMARK    6  A    between atoms: O_4  and  C_29 
REMARK    7  A    between atoms: O_5  and  C_36 
REMARK    8  A    between atoms: O_5  and  C_31 
REMARK    9  A    between atoms: O_6  and  C_32 
REMARK   10  A    between atoms: O_6  and  C_39 
REMARK   11  A    between atoms: O_12  and  C_51 
REMARK   12  A    between atoms: O_13  and  C_52 
REMARK   13  A    between atoms: O_14  and  C_53 
REMARK   14  A    between atoms: O_15  and  C_54 
REMARK   15  A    between atoms: O_16  and  C_55 
REMARK   16  A    between atoms: O_17  and  C_56 
REMARK   17  A    between atoms: O_18  and  C_59 
REMARK   18  A    between atoms: O_19  and  C_60 
REMARK   19  A    between atoms: O_20  and  C_61 
REMARK   20  A    between atoms: O_21  and  C_62 
REMARK   21  A    between atoms: O_22  and  C_63 
REMARK   22  A    between atoms: O_23  and  C_64 
REMARK   23  A    between atoms: O_24  and  C_65 
REMARK   24  A    between atoms: O_25  and  C_66 
REMARK   25  A    between atoms: O_26  and  C_67 
REMARK   26  A    between atoms: C_30  and  C_32 
REMARK   27  A    between atoms: C_33  and  C_37 
REMARK   28  A    between atoms: C_34  and  C_38 
REMARK   29  A    between atoms: C_35  and  C_40 
REMARK   30  A    between atoms: C_36  and  C_41 
REMARK   31  A    between atoms: C_39  and  C_42 
ROOT
HETATM    1  O   UNL     1     -39.479  11.342  57.651  1.00  0.00    -0.348 OA
HETATM    2  C   UNL     1     -39.248  14.207  57.796  1.00  0.00     0.198 C 
HETATM    3  C   UNL     1     -39.554  13.475  56.470  1.00  0.00     0.195 C 
HETATM    4  C   UNL     1     -38.387  13.263  58.676  1.00  0.00     0.220 C 
HETATM    5  C   UNL     1     -40.295  12.156  56.795  1.00  0.00     0.181 C 
HETATM    6  C   UNL     1     -39.206  11.968  58.905  1.00  0.00     0.302 C 
ENDROOT
BRANCH   5   7
HETATM    7  C   UNL     1     -40.646  11.380  55.515  1.00  0.00     0.213 C 
BRANCH   7   8
HETATM    8  O   UNL     1     -39.691  11.627  54.470  1.00  0.00    -0.315 OA
BRANCH   8   9
HETATM    9  C   UNL     1     -39.666  10.680  53.495  1.00  0.00     0.293 C 
HETATM   10  O   UNL     1     -38.985   9.669  53.479  1.00  0.00    -0.259 OA
BRANCH   9  11
HETATM   11  C   UNL     1     -40.610  11.045  52.416  1.00  0.00     0.045 A 
HETATM   12  C   UNL     1     -40.825  12.389  52.062  1.00  0.00     0.057 A 
HETATM   13  C   UNL     1     -41.673  12.680  50.998  1.00  0.00     0.102 A 
HETATM   14  C   UNL     1     -42.304  11.652  50.304  1.00  0.00     0.132 A 
HETATM   15  C   UNL     1     -42.092  10.328  50.663  1.00  0.00     0.102 A 
HETATM   16  C   UNL     1     -41.240  10.010  51.711  1.00  0.00     0.057 A 
BRANCH  13  17
HETATM   17  O   UNL     1     -41.907  13.961  50.584  1.00  0.00    -0.358 OA
HETATM   18  H   UNL     1     -41.164  14.253  50.027  1.00  0.00     0.217 HD
ENDBRANCH  13  17
BRANCH  14  19
HETATM   19  O   UNL     1     -43.134  11.930  49.253  1.00  0.00    -0.356 OA
HETATM   20  H   UNL     1     -42.562  12.386  48.602  1.00  0.00     0.218 HD
ENDBRANCH  14  19
BRANCH  15  21
HETATM   21  O   UNL     1     -42.713   9.324  49.979  1.00  0.00    -0.358 OA
HETATM   22  H   UNL     1     -43.518   9.738  49.604  1.00  0.00     0.217 HD
ENDBRANCH  15  21
ENDBRANCH   9  11
ENDBRANCH   8   9
ENDBRANCH   7   8
ENDBRANCH   5   7
BRANCH   3  23
HETATM   23  O   UNL     1     -40.382  14.272  55.597  1.00  0.00    -0.307 OA
BRANCH  23  24
HETATM   24  C   UNL     1     -40.003  14.941  54.475  1.00  0.00     0.294 C 
HETATM   25  O   UNL     1     -40.850  15.395  53.716  1.00  0.00    -0.259 OA
BRANCH  24  26
HETATM   26  C   UNL     1     -38.572  15.205  54.189  1.00  0.00     0.045 A 
HETATM   27  C   UNL     1     -37.561  14.271  54.461  1.00  0.00     0.057 A 
HETATM   28  C   UNL     1     -36.230  14.625  54.260  1.00  0.00     0.102 A 
HETATM   29  C   UNL     1     -35.912  15.856  53.702  1.00  0.00     0.132 A 
HETATM   30  C   UNL     1     -36.919  16.739  53.340  1.00  0.00     0.102 A 
HETATM   31  C   UNL     1     -38.251  16.424  53.573  1.00  0.00     0.057 A 
BRANCH  28  32
HETATM   32  O   UNL     1     -35.200  13.800  54.614  1.00  0.00    -0.358 OA
HETATM   33  H   UNL     1     -35.446  13.313  55.422  1.00  0.00     0.217 HD
ENDBRANCH  28  32
BRANCH  29  34
HETATM   34  O   UNL     1     -34.607  16.213  53.504  1.00  0.00    -0.356 OA
HETATM   35  H   UNL     1     -34.096  15.429  53.794  1.00  0.00     0.218 HD
ENDBRANCH  29  34
BRANCH  30  36
HETATM   36  O   UNL     1     -36.604  17.935  52.766  1.00  0.00    -0.358 OA
HETATM   37  H   UNL     1     -37.178  17.992  51.975  1.00  0.00     0.217 HD
ENDBRANCH  30  36
ENDBRANCH  24  26
ENDBRANCH  23  24
ENDBRANCH   3  23
BRANCH   6  38
HETATM   38  O   UNL     1     -38.417  11.081  59.719  1.00  0.00    -0.283 OA
BRANCH  38  39
HETATM   39  C   UNL     1     -38.856  10.145  60.592  1.00  0.00     0.295 C 
HETATM   40  O   UNL     1     -39.381  10.485  61.647  1.00  0.00    -0.259 OA
BRANCH  39  41
HETATM   41  C   UNL     1     -38.605   8.708  60.343  1.00  0.00     0.045 A 
HETATM   42  C   UNL     1     -37.806   7.924  61.192  1.00  0.00     0.057 A 
HETATM   43  C   UNL     1     -37.677   6.563  60.929  1.00  0.00     0.102 A 
HETATM   44  C   UNL     1     -38.250   6.011  59.788  1.00  0.00     0.132 A 
HETATM   45  C   UNL     1     -38.954   6.812  58.900  1.00  0.00     0.102 A 
HETATM   46  C   UNL     1     -39.147   8.159  59.171  1.00  0.00     0.057 A 
BRANCH  43  47
HETATM   47  O   UNL     1     -37.008   5.718  61.770  1.00  0.00    -0.358 OA
HETATM   48  H   UNL     1     -36.965   6.117  62.657  1.00  0.00     0.217 HD
ENDBRANCH  43  47
BRANCH  44  49
HETATM   49  O   UNL     1     -38.123   4.675  59.519  1.00  0.00    -0.356 OA
HETATM   50  H   UNL     1     -37.420   4.366  60.124  1.00  0.00     0.218 HD
ENDBRANCH  44  49
BRANCH  45  51
HETATM   51  O   UNL     1     -39.465   6.280  57.753  1.00  0.00    -0.358 OA
HETATM   52  H   UNL     1     -38.761   5.695  57.408  1.00  0.00     0.217 HD
ENDBRANCH  45  51
ENDBRANCH  39  41
ENDBRANCH  38  39
ENDBRANCH   6  38
BRANCH   2  53
HETATM   53  O   UNL     1     -38.696  15.536  57.599  1.00  0.00    -0.306 OA
BRANCH  53  54
HETATM   54  C   UNL     1     -39.314  16.597  58.156  1.00  0.00     0.294 C 
HETATM   55  O   UNL     1     -40.315  16.543  58.856  1.00  0.00    -0.259 OA
BRANCH  54  56
HETATM   56  C   UNL     1     -38.648  17.855  57.763  1.00  0.00     0.045 A 
HETATM   57  C   UNL     1     -38.886  18.999  58.538  1.00  0.00     0.057 A 
HETATM   58  C   UNL     1     -38.226  20.184  58.246  1.00  0.00     0.102 A 
HETATM   59  C   UNL     1     -37.302  20.223  57.213  1.00  0.00     0.132 A 
HETATM   60  C   UNL     1     -37.058  19.086  56.450  1.00  0.00     0.102 A 
HETATM   61  C   UNL     1     -37.740  17.900  56.698  1.00  0.00     0.057 A 
BRANCH  58  62
HETATM   62  O   UNL     1     -38.448  21.326  58.963  1.00  0.00    -0.358 OA
HETATM   63  H   UNL     1     -38.796  21.075  59.839  1.00  0.00     0.217 HD
ENDBRANCH  58  62
BRANCH  59  64
HETATM   64  O   UNL     1     -36.611  21.373  56.944  1.00  0.00    -0.356 OA
HETATM   65  H   UNL     1     -36.124  21.175  56.118  1.00  0.00     0.218 HD
ENDBRANCH  59  64
BRANCH  60  66
HETATM   66  O   UNL     1     -36.118  19.122  55.461  1.00  0.00    -0.358 OA
HETATM   67  H   UNL     1     -36.402  19.855  54.877  1.00  0.00     0.217 HD
ENDBRANCH  60  66
ENDBRANCH  54  56
ENDBRANCH  53  54
ENDBRANCH   2  53
BRANCH   4  68
HETATM   68  O   UNL     1     -38.067  13.879  59.948  1.00  0.00    -0.304 OA
BRANCH  68  69
HETATM   69  C   UNL     1     -36.763  13.977  60.353  1.00  0.00     0.294 C 
HETATM   70  O   UNL     1     -36.348  13.393  61.341  1.00  0.00    -0.259 OA
BRANCH  69  71
HETATM   71  C   UNL     1     -35.909  14.923  59.599  1.00  0.00     0.045 A 
HETATM   72  C   UNL     1     -35.079  14.474  58.561  1.00  0.00     0.057 A 
HETATM   73  C   UNL     1     -34.412  15.415  57.781  1.00  0.00     0.102 A 
HETATM   74  C   UNL     1     -34.550  16.773  58.051  1.00  0.00     0.132 A 
HETATM   75  C   UNL     1     -35.310  17.200  59.131  1.00  0.00     0.102 A 
HETATM   76  C   UNL     1     -35.985  16.282  59.923  1.00  0.00     0.057 A 
BRANCH  73  77
HETATM   77  O   UNL     1     -33.624  15.060  56.723  1.00  0.00    -0.358 OA
HETATM   78  H   UNL     1     -34.181  15.013  55.924  1.00  0.00     0.217 HD
ENDBRANCH  73  77
BRANCH  74  79
HETATM   79  O   UNL     1     -33.943  17.711  57.260  1.00  0.00    -0.356 OA
HETATM   80  H   UNL     1     -33.260  17.209  56.769  1.00  0.00     0.218 HD
ENDBRANCH  74  79
BRANCH  75  81
HETATM   81  O   UNL     1     -35.420  18.536  59.396  1.00  0.00    -0.358 OA
HETATM   82  H   UNL     1     -36.353  18.648  59.679  1.00  0.00     0.217 HD
ENDBRANCH  75  81
ENDBRANCH  69  71
ENDBRANCH  68  69
ENDBRANCH   4  68
TORSDOF 31
ENDMDL
MODEL 6
REMARK VINA RESULT:    -8.147      2.625      9.921
REMARK INTER + INTRA:         -25.116
REMARK INTER:                 -19.005
REMARK INTRA:                  -6.111
REMARK UNBOUND:                -5.777
REMARK  31 active torsions:
REMARK  status: ('A' for Active; 'I' for Inactive)
REMARK    1  A    between atoms: O_2  and  C_27 
REMARK    2  A    between atoms: O_2  and  C_33 
REMARK    3  A    between atoms: O_3  and  C_34 
REMARK    4  A    between atoms: O_3  and  C_28 
REMARK    5  A    between atoms: O_4  and  C_35 
REMARK    6  A    between atoms: O_4  and  C_29 
REMARK    7  A    between atoms: O_5  and  C_36 
REMARK    8  A    between atoms: O_5  and  C_31 
REMARK    9  A    between atoms: O_6  and  C_32 
REMARK   10  A    between atoms: O_6  and  C_39 
REMARK   11  A    between atoms: O_12  and  C_51 
REMARK   12  A    between atoms: O_13  and  C_52 
REMARK   13  A    between atoms: O_14  and  C_53 
REMARK   14  A    between atoms: O_15  and  C_54 
REMARK   15  A    between atoms: O_16  and  C_55 
REMARK   16  A    between atoms: O_17  and  C_56 
REMARK   17  A    between atoms: O_18  and  C_59 
REMARK   18  A    between atoms: O_19  and  C_60 
REMARK   19  A    between atoms: O_20  and  C_61 
REMARK   20  A    between atoms: O_21  and  C_62 
REMARK   21  A    between atoms: O_22  and  C_63 
REMARK   22  A    between atoms: O_23  and  C_64 
REMARK   23  A    between atoms: O_24  and  C_65 
REMARK   24  A    between atoms: O_25  and  C_66 
REMARK   25  A    between atoms: O_26  and  C_67 
REMARK   26  A    between atoms: C_30  and  C_32 
REMARK   27  A    between atoms: C_33  and  C_37 
REMARK   28  A    between atoms: C_34  and  C_38 
REMARK   29  A    between atoms: C_35  and  C_40 
REMARK   30  A    between atoms: C_36  and  C_41 
REMARK   31  A    between atoms: C_39  and  C_42 
ROOT
HETATM    1  O   UNL     1     -21.234  -2.513  57.907  1.00  0.00    -0.348 OA
HETATM    2  C   UNL     1     -19.113  -0.568  57.908  1.00  0.00     0.198 C 
HETATM    3  C   UNL     1     -19.753  -1.083  59.217  1.00  0.00     0.195 C 
HETATM    4  C   UNL     1     -20.194  -0.610  56.797  1.00  0.00     0.220 C 
HETATM    5  C   UNL     1     -20.276  -2.520  58.977  1.00  0.00     0.181 C 
HETATM    6  C   UNL     1     -20.670  -2.080  56.670  1.00  0.00     0.302 C 
ENDROOT
BRANCH   5   7
HETATM    7  C   UNL     1     -20.915  -3.104  60.248  1.00  0.00     0.213 C 
BRANCH   7   8
HETATM    8  O   UNL     1     -22.096  -2.377  60.625  1.00  0.00    -0.315 OA
BRANCH   8   9
HETATM    9  C   UNL     1     -22.757  -2.894  61.696  1.00  0.00     0.293 C 
HETATM   10  O   UNL     1     -22.359  -2.928  62.848  1.00  0.00    -0.259 OA
BRANCH   9  11
HETATM   11  C   UNL     1     -24.069  -3.426  61.269  1.00  0.00     0.045 A 
HETATM   12  C   UNL     1     -24.470  -4.731  61.609  1.00  0.00     0.057 A 
HETATM   13  C   UNL     1     -25.740  -5.163  61.240  1.00  0.00     0.102 A 
HETATM   14  C   UNL     1     -26.592  -4.318  60.537  1.00  0.00     0.132 A 
HETATM   15  C   UNL     1     -26.187  -3.033  60.199  1.00  0.00     0.102 A 
HETATM   16  C   UNL     1     -24.931  -2.572  60.568  1.00  0.00     0.057 A 
BRANCH  13  17
HETATM   17  O   UNL     1     -26.204  -6.409  61.559  1.00  0.00    -0.358 OA
HETATM   18  H   UNL     1     -27.159  -6.445  61.376  1.00  0.00     0.217 HD
ENDBRANCH  13  17
BRANCH  14  19
HETATM   19  O   UNL     1     -27.844  -4.735  60.176  1.00  0.00    -0.356 OA
HETATM   20  H   UNL     1     -27.916  -4.502  59.228  1.00  0.00     0.218 HD
ENDBRANCH  14  19
BRANCH  15  21
HETATM   21  O   UNL     1     -27.026  -2.209  59.510  1.00  0.00    -0.358 OA
HETATM   22  H   UNL     1     -27.917  -2.592  59.641  1.00  0.00     0.217 HD
ENDBRANCH  15  21
ENDBRANCH   9  11
ENDBRANCH   8   9
ENDBRANCH   7   8
ENDBRANCH   5   7
BRANCH   3  23
HETATM   23  O   UNL     1     -18.804  -1.108  60.304  1.00  0.00    -0.307 OA
BRANCH  23  24
HETATM   24  C   UNL     1     -18.676  -0.207  61.315  1.00  0.00     0.294 C 
HETATM   25  O   UNL     1     -17.803   0.651  61.264  1.00  0.00    -0.259 OA
BRANCH  24  26
HETATM   26  C   UNL     1     -19.630  -0.189  62.449  1.00  0.00     0.045 A 
HETATM   27  C   UNL     1     -20.871   0.464  62.385  1.00  0.00     0.057 A 
HETATM   28  C   UNL     1     -21.671   0.525  63.522  1.00  0.00     0.102 A 
HETATM   29  C   UNL     1     -21.291  -0.140  64.680  1.00  0.00     0.132 A 
HETATM   30  C   UNL     1     -20.112  -0.870  64.711  1.00  0.00     0.102 A 
HETATM   31  C   UNL     1     -19.276  -0.906  63.602  1.00  0.00     0.057 A 
BRANCH  28  32
HETATM   32  O   UNL     1     -22.834   1.242  63.551  1.00  0.00    -0.358 OA
HETATM   33  H   UNL     1     -23.501   0.745  64.059  1.00  0.00     0.217 HD
ENDBRANCH  28  32
BRANCH  29  34
HETATM   34  O   UNL     1     -22.071  -0.083  65.802  1.00  0.00    -0.356 OA
HETATM   35  H   UNL     1     -21.616  -0.669  66.442  1.00  0.00     0.218 HD
ENDBRANCH  29  34
BRANCH  30  36
HETATM   36  O   UNL     1     -19.756  -1.545  65.841  1.00  0.00    -0.358 OA
HETATM   37  H   UNL     1     -19.111  -0.961  66.289  1.00  0.00     0.217 HD
ENDBRANCH  30  36
ENDBRANCH  24  26
ENDBRANCH  23  24
ENDBRANCH   3  23
BRANCH   6  38
HETATM   38  O   UNL     1     -21.677  -2.133  55.643  1.00  0.00    -0.283 OA
BRANCH  38  39
HETATM   39  C   UNL     1     -22.519  -3.154  55.359  1.00  0.00     0.295 C 
HETATM   40  O   UNL     1     -22.074  -4.231  54.976  1.00  0.00    -0.259 OA
BRANCH  39  41
HETATM   41  C   UNL     1     -23.985  -2.950  55.391  1.00  0.00     0.045 A 
HETATM   42  C   UNL     1     -24.874  -3.758  54.663  1.00  0.00     0.057 A 
HETATM   43  C   UNL     1     -26.244  -3.548  54.803  1.00  0.00     0.102 A 
HETATM   44  C   UNL     1     -26.717  -2.491  55.574  1.00  0.00     0.132 A 
HETATM   45  C   UNL     1     -25.828  -1.635  56.209  1.00  0.00     0.102 A 
HETATM   46  C   UNL     1     -24.462  -1.860  56.134  1.00  0.00     0.057 A 
BRANCH  43  47
HETATM   47  O   UNL     1     -27.170  -4.363  54.214  1.00  0.00    -0.358 OA
HETATM   48  H   UNL     1     -27.423  -5.065  54.839  1.00  0.00     0.217 HD
ENDBRANCH  43  47
BRANCH  44  49
HETATM   49  O   UNL     1     -28.061  -2.274  55.712  1.00  0.00    -0.356 OA
HETATM   50  H   UNL     1     -28.266  -1.570  55.064  1.00  0.00     0.218 HD
ENDBRANCH  44  49
BRANCH  45  51
HETATM   51  O   UNL     1     -26.294  -0.566  56.917  1.00  0.00    -0.358 OA
HETATM   52  H   UNL     1     -27.079  -0.900  57.395  1.00  0.00     0.217 HD
ENDBRANCH  45  51
ENDBRANCH  39  41
ENDBRANCH  38  39
ENDBRANCH   6  38
BRANCH   2  53
HETATM   53  O   UNL     1     -18.444   0.712  58.067  1.00  0.00    -0.306 OA
BRANCH  53  54
HETATM   54  C   UNL     1     -17.116   0.795  57.852  1.00  0.00     0.294 C 
HETATM   55  O   UNL     1     -16.388  -0.145  57.566  1.00  0.00    -0.259 OA
BRANCH  54  56
HETATM   56  C   UNL     1     -16.638   2.176  58.062  1.00  0.00     0.045 A 
HETATM   57  C   UNL     1     -15.471   2.364  58.815  1.00  0.00     0.057 A 
HETATM   58  C   UNL     1     -14.948   3.639  58.977  1.00  0.00     0.102 A 
HETATM   59  C   UNL     1     -15.559   4.720  58.359  1.00  0.00     0.132 A 
HETATM   60  C   UNL     1     -16.712   4.532  57.603  1.00  0.00     0.102 A 
HETATM   61  C   UNL     1     -17.277   3.269  57.463  1.00  0.00     0.057 A 
BRANCH  58  62
HETATM   62  O   UNL     1     -13.826   3.866  59.722  1.00  0.00    -0.358 OA
HETATM   63  H   UNL     1     -14.014   4.591  60.347  1.00  0.00     0.217 HD
ENDBRANCH  58  62
BRANCH  59  64
HETATM   64  O   UNL     1     -15.028   5.975  58.473  1.00  0.00    -0.356 OA
HETATM   65  H   UNL     1     -14.967   6.125  59.440  1.00  0.00     0.218 HD
ENDBRANCH  59  64
BRANCH  60  66
HETATM   66  O   UNL     1     -17.284   5.595  56.965  1.00  0.00    -0.358 OA
HETATM   67  H   UNL     1     -17.017   6.374  57.496  1.00  0.00     0.217 HD
ENDBRANCH  60  66
ENDBRANCH  54  56
ENDBRANCH  53  54
ENDBRANCH   2  53
BRANCH   4  68
HETATM   68  O   UNL     1     -19.663  -0.149  55.531  1.00  0.00    -0.304 OA
BRANCH  68  69
HETATM   69  C   UNL     1     -20.081   1.043  55.005  1.00  0.00     0.294 C 
HETATM   70  O   UNL     1     -19.390   2.048  55.053  1.00  0.00    -0.259 OA
BRANCH  69  71
HETATM   71  C   UNL     1     -21.466   1.083  54.482  1.00  0.00     0.045 A 
HETATM   72  C   UNL     1     -21.759   0.634  53.185  1.00  0.00     0.057 A 
HETATM   73  C   UNL     1     -23.091   0.546  52.793  1.00  0.00     0.102 A 
HETATM   74  C   UNL     1     -24.107   0.924  53.665  1.00  0.00     0.132 A 
HETATM   75  C   UNL     1     -23.800   1.441  54.916  1.00  0.00     0.102 A 
HETATM   76  C   UNL     1     -22.479   1.540  55.332  1.00  0.00     0.057 A 
BRANCH  73  77
HETATM   77  O   UNL     1     -23.460   0.074  51.564  1.00  0.00    -0.358 OA
HETATM   78  H   UNL     1     -24.009  -0.723  51.690  1.00  0.00     0.217 HD
ENDBRANCH  73  77
BRANCH  74  79
HETATM   79  O   UNL     1     -25.423   0.792  53.311  1.00  0.00    -0.356 OA
HETATM   80  H   UNL     1     -25.862   0.476  54.128  1.00  0.00     0.218 HD
ENDBRANCH  74  79
BRANCH  75  81
HETATM   81  O   UNL     1     -24.806   1.828  55.755  1.00  0.00    -0.358 OA
HETATM   82  H   UNL     1     -24.465   1.619  56.651  1.00  0.00     0.217 HD
ENDBRANCH  75  81
ENDBRANCH  69  71
ENDBRANCH  68  69
ENDBRANCH   4  68
TORSDOF 31
ENDMDL
MODEL 7
REMARK VINA RESULT:    -8.116      1.515      7.653
REMARK INTER + INTRA:         -25.044
REMARK INTER:                 -18.249
REMARK INTRA:                  -6.795
REMARK UNBOUND:                -5.777
REMARK  31 active torsions:
REMARK  status: ('A' for Active; 'I' for Inactive)
REMARK    1  A    between atoms: O_2  and  C_27 
REMARK    2  A    between atoms: O_2  and  C_33 
REMARK    3  A    between atoms: O_3  and  C_34 
REMARK    4  A    between atoms: O_3  and  C_28 
REMARK    5  A    between atoms: O_4  and  C_35 
REMARK    6  A    between atoms: O_4  and  C_29 
REMARK    7  A    between atoms: O_5  and  C_36 
REMARK    8  A    between atoms: O_5  and  C_31 
REMARK    9  A    between atoms: O_6  and  C_32 
REMARK   10  A    between atoms: O_6  and  C_39 
REMARK   11  A    between atoms: O_12  and  C_51 
REMARK   12  A    between atoms: O_13  and  C_52 
REMARK   13  A    between atoms: O_14  and  C_53 
REMARK   14  A    between atoms: O_15  and  C_54 
REMARK   15  A    between atoms: O_16  and  C_55 
REMARK   16  A    between atoms: O_17  and  C_56 
REMARK   17  A    between atoms: O_18  and  C_59 
REMARK   18  A    between atoms: O_19  and  C_60 
REMARK   19  A    between atoms: O_20  and  C_61 
REMARK   20  A    between atoms: O_21  and  C_62 
REMARK   21  A    between atoms: O_22  and  C_63 
REMARK   22  A    between atoms: O_23  and  C_64 
REMARK   23  A    between atoms: O_24  and  C_65 
REMARK   24  A    between atoms: O_25  and  C_66 
REMARK   25  A    between atoms: O_26  and  C_67 
REMARK   26  A    between atoms: C_30  and  C_32 
REMARK   27  A    between atoms: C_33  and  C_37 
REMARK   28  A    between atoms: C_34  and  C_38 
REMARK   29  A    between atoms: C_35  and  C_40 
REMARK   30  A    between atoms: C_36  and  C_41 
REMARK   31  A    between atoms: C_39  and  C_42 
ROOT
HETATM    1  O   UNL     1     -19.097  -1.446  58.268  1.00  0.00    -0.348 OA
HETATM    2  C   UNL     1     -21.602  -2.602  59.084  1.00  0.00     0.198 C 
HETATM    3  C   UNL     1     -20.267  -2.972  59.769  1.00  0.00     0.195 C 
HETATM    4  C   UNL     1     -21.300  -2.247  57.605  1.00  0.00     0.220 C 
HETATM    5  C   UNL     1     -19.304  -1.766  59.652  1.00  0.00     0.181 C 
HETATM    6  C   UNL     1     -20.303  -1.061  57.608  1.00  0.00     0.302 C 
ENDROOT
BRANCH   5   7
HETATM    7  C   UNL     1     -17.955  -2.059  60.329  1.00  0.00     0.213 C 
BRANCH   7   8
HETATM    8  O   UNL     1     -17.974  -1.696  61.720  1.00  0.00    -0.315 OA
BRANCH   8   9
HETATM    9  C   UNL     1     -18.427  -0.437  61.966  1.00  0.00     0.293 C 
HETATM   10  O   UNL     1     -18.036   0.592  61.441  1.00  0.00    -0.259 OA
BRANCH   9  11
HETATM   11  C   UNL     1     -19.495  -0.478  62.988  1.00  0.00     0.045 A 
HETATM   12  C   UNL     1     -19.348  -1.238  64.163  1.00  0.00     0.057 A 
HETATM   13  C   UNL     1     -20.351  -1.194  65.125  1.00  0.00     0.102 A 
HETATM   14  C   UNL     1     -21.486  -0.415  64.919  1.00  0.00     0.132 A 
HETATM   15  C   UNL     1     -21.627   0.328  63.755  1.00  0.00     0.102 A 
HETATM   16  C   UNL     1     -20.634   0.313  62.786  1.00  0.00     0.057 A 
BRANCH  13  17
HETATM   17  O   UNL     1     -20.263  -1.887  66.300  1.00  0.00    -0.358 OA
HETATM   18  H   UNL     1     -20.310  -2.840  66.107  1.00  0.00     0.217 HD
ENDBRANCH  13  17
BRANCH  14  19
HETATM   19  O   UNL     1     -22.474  -0.363  65.864  1.00  0.00    -0.356 OA
HETATM   20  H   UNL     1     -23.044   0.381  65.581  1.00  0.00     0.218 HD
ENDBRANCH  14  19
BRANCH  15  21
HETATM   21  O   UNL     1     -22.741   1.090  63.558  1.00  0.00    -0.358 OA
HETATM   22  H   UNL     1     -22.589   1.537  62.700  1.00  0.00     0.217 HD
ENDBRANCH  15  21
ENDBRANCH   9  11
ENDBRANCH   8   9
ENDBRANCH   7   8
ENDBRANCH   5   7
BRANCH   3  23
HETATM   23  O   UNL     1     -20.451  -3.287  61.166  1.00  0.00    -0.307 OA
BRANCH  23  24
HETATM   24  C   UNL     1     -20.742  -4.499  61.711  1.00  0.00     0.294 C 
HETATM   25  O   UNL     1     -19.978  -5.443  61.551  1.00  0.00    -0.259 OA
BRANCH  24  26
HETATM   26  C   UNL     1     -21.934  -4.683  62.572  1.00  0.00     0.045 A 
HETATM   27  C   UNL     1     -22.939  -5.620  62.285  1.00  0.00     0.057 A 
HETATM   28  C   UNL     1     -24.078  -5.667  63.083  1.00  0.00     0.102 A 
HETATM   29  C   UNL     1     -24.175  -4.864  64.211  1.00  0.00     0.132 A 
HETATM   30  C   UNL     1     -23.136  -4.009  64.551  1.00  0.00     0.102 A 
HETATM   31  C   UNL     1     -22.010  -3.913  63.744  1.00  0.00     0.057 A 
BRANCH  28  32
HETATM   32  O   UNL     1     -25.137  -6.479  62.785  1.00  0.00    -0.358 OA
HETATM   33  H   UNL     1     -25.937  -6.129  63.219  1.00  0.00     0.217 HD
ENDBRANCH  28  32
BRANCH  29  34
HETATM   34  O   UNL     1     -25.293  -4.903  64.999  1.00  0.00    -0.356 OA
HETATM   35  H   UNL     1     -25.793  -5.678  64.668  1.00  0.00     0.218 HD
ENDBRANCH  29  34
BRANCH  30  36
HETATM   36  O   UNL     1     -23.223  -3.242  65.675  1.00  0.00    -0.358 OA
HETATM   37  H   UNL     1     -22.417  -2.687  65.662  1.00  0.00     0.217 HD
ENDBRANCH  30  36
ENDBRANCH  24  26
ENDBRANCH  23  24
ENDBRANCH   3  23
BRANCH   6  38
HETATM   38  O   UNL     1     -20.010  -0.723  56.240  1.00  0.00    -0.283 OA
BRANCH  38  39
HETATM   39  C   UNL     1     -20.281   0.436  55.596  1.00  0.00     0.295 C 
HETATM   40  O   UNL     1     -19.496   1.376  55.663  1.00  0.00    -0.259 OA
BRANCH  39  41
HETATM   41  C   UNL     1     -21.575   0.627  54.904  1.00  0.00     0.045 A 
HETATM   42  C   UNL     1     -21.737   0.392  53.528  1.00  0.00     0.057 A 
HETATM   43  C   UNL     1     -23.003   0.524  52.966  1.00  0.00     0.102 A 
HETATM   44  C   UNL     1     -24.069   0.978  53.736  1.00  0.00     0.132 A 
HETATM   45  C   UNL     1     -23.880   1.305  55.071  1.00  0.00     0.102 A 
HETATM   46  C   UNL     1     -22.641   1.124  55.669  1.00  0.00     0.057 A 
BRANCH  43  47
HETATM   47  O   UNL     1     -23.259   0.207  51.661  1.00  0.00    -0.358 OA
HETATM   48  H   UNL     1     -22.828   0.862  51.082  1.00  0.00     0.217 HD
ENDBRANCH  43  47
BRANCH  44  49
HETATM   49  O   UNL     1     -25.317   1.117  53.190  1.00  0.00    -0.356 OA
HETATM   50  H   UNL     1     -25.784   0.290  53.425  1.00  0.00     0.218 HD
ENDBRANCH  44  49
BRANCH  45  51
HETATM   51  O   UNL     1     -24.913   1.805  55.808  1.00  0.00    -0.358 OA
HETATM   52  H   UNL     1     -25.722   1.487  55.361  1.00  0.00     0.217 HD
ENDBRANCH  45  51
ENDBRANCH  39  41
ENDBRANCH  38  39
ENDBRANCH   6  38
BRANCH   2  53
HETATM   53  O   UNL     1     -22.637  -3.603  59.276  1.00  0.00    -0.306 OA
BRANCH  53  54
HETATM   54  C   UNL     1     -23.796  -3.251  59.868  1.00  0.00     0.294 C 
HETATM   55  O   UNL     1     -23.955  -2.267  60.576  1.00  0.00    -0.259 OA
BRANCH  54  56
HETATM   56  C   UNL     1     -24.849  -4.249  59.591  1.00  0.00     0.045 A 
HETATM   57  C   UNL     1     -26.059  -4.143  60.292  1.00  0.00     0.057 A 
HETATM   58  C   UNL     1     -27.100  -5.017  60.011  1.00  0.00     0.102 A 
HETATM   59  C   UNL     1     -26.955  -5.966  59.011  1.00  0.00     0.132 A 
HETATM   60  C   UNL     1     -25.758  -6.064  58.309  1.00  0.00     0.102 A 
HETATM   61  C   UNL     1     -24.687  -5.227  58.603  1.00  0.00     0.057 A 
BRANCH  58  62
HETATM   62  O   UNL     1     -28.286  -4.962  60.687  1.00  0.00    -0.358 OA
HETATM   63  H   UNL     1     -28.796  -5.767  60.479  1.00  0.00     0.217 HD
ENDBRANCH  58  62
BRANCH  59  64
HETATM   64  O   UNL     1     -27.989  -6.803  58.694  1.00  0.00    -0.356 OA
HETATM   65  H   UNL     1     -27.607  -7.702  58.778  1.00  0.00     0.218 HD
ENDBRANCH  59  64
BRANCH  60  66
HETATM   66  O   UNL     1     -25.637  -6.974  57.299  1.00  0.00    -0.358 OA
HETATM   67  H   UNL     1     -26.543  -7.063  56.937  1.00  0.00     0.217 HD
ENDBRANCH  60  66
ENDBRANCH  54  56
ENDBRANCH  53  54
ENDBRANCH   2  53
BRANCH   4  68
HETATM   68  O   UNL     1     -22.508  -1.878  56.896  1.00  0.00    -0.304 OA
BRANCH  68  69
HETATM   69  C   UNL     1     -22.902  -2.591  55.796  1.00  0.00     0.294 C 
HETATM   70  O   UNL     1     -22.127  -2.868  54.895  1.00  0.00    -0.259 OA
BRANCH  69  71
HETATM   71  C   UNL     1     -24.345  -2.906  55.698  1.00  0.00     0.045 A 
HETATM   72  C   UNL     1     -25.280  -2.269  56.527  1.00  0.00     0.057 A 
HETATM   73  C   UNL     1     -26.636  -2.481  56.295  1.00  0.00     0.102 A 
HETATM   74  C   UNL     1     -27.048  -3.334  55.276  1.00  0.00     0.132 A 
HETATM   75  C   UNL     1     -26.112  -4.021  54.514  1.00  0.00     0.102 A 
HETATM   76  C   UNL     1     -24.754  -3.826  54.726  1.00  0.00     0.057 A 
BRANCH  73  77
HETATM   77  O   UNL     1     -27.609  -1.861  57.028  1.00  0.00    -0.358 OA
HETATM   78  H   UNL     1     -28.041  -1.191  56.465  1.00  0.00     0.217 HD
ENDBRANCH  73  77
BRANCH  74  79
HETATM   79  O   UNL     1     -28.378  -3.511  55.002  1.00  0.00    -0.356 OA
HETATM   80  H   UNL     1     -28.461  -3.287  54.052  1.00  0.00     0.218 HD
ENDBRANCH  74  79
BRANCH  75  81
HETATM   81  O   UNL     1     -26.531  -4.871  53.530  1.00  0.00    -0.358 OA
HETATM   82  H   UNL     1     -27.426  -4.545  53.296  1.00  0.00     0.217 HD
ENDBRANCH  75  81
ENDBRANCH  69  71
ENDBRANCH  68  69
ENDBRANCH   4  68
TORSDOF 31
ENDMDL
MODEL 8
REMARK VINA RESULT:    -8.065      0.751      2.046
REMARK INTER + INTRA:         -24.923
REMARK INTER:                 -18.277
REMARK INTRA:                  -6.646
REMARK UNBOUND:                -5.777
REMARK  31 active torsions:
REMARK  status: ('A' for Active; 'I' for Inactive)
REMARK    1  A    between atoms: O_2  and  C_27 
REMARK    2  A    between atoms: O_2  and  C_33 
REMARK    3  A    between atoms: O_3  and  C_34 
REMARK    4  A    between atoms: O_3  and  C_28 
REMARK    5  A    between atoms: O_4  and  C_35 
REMARK    6  A    between atoms: O_4  and  C_29 
REMARK    7  A    between atoms: O_5  and  C_36 
REMARK    8  A    between atoms: O_5  and  C_31 
REMARK    9  A    between atoms: O_6  and  C_32 
REMARK   10  A    between atoms: O_6  and  C_39 
REMARK   11  A    between atoms: O_12  and  C_51 
REMARK   12  A    between atoms: O_13  and  C_52 
REMARK   13  A    between atoms: O_14  and  C_53 
REMARK   14  A    between atoms: O_15  and  C_54 
REMARK   15  A    between atoms: O_16  and  C_55 
REMARK   16  A    between atoms: O_17  and  C_56 
REMARK   17  A    between atoms: O_18  and  C_59 
REMARK   18  A    between atoms: O_19  and  C_60 
REMARK   19  A    between atoms: O_20  and  C_61 
REMARK   20  A    between atoms: O_21  and  C_62 
REMARK   21  A    between atoms: O_22  and  C_63 
REMARK   22  A    between atoms: O_23  and  C_64 
REMARK   23  A    between atoms: O_24  and  C_65 
REMARK   24  A    between atoms: O_25  and  C_66 
REMARK   25  A    between atoms: O_26  and  C_67 
REMARK   26  A    between atoms: C_30  and  C_32 
REMARK   27  A    between atoms: C_33  and  C_37 
REMARK   28  A    between atoms: C_34  and  C_38 
REMARK   29  A    between atoms: C_35  and  C_40 
REMARK   30  A    between atoms: C_36  and  C_41 
REMARK   31  A    between atoms: C_39  and  C_42 
ROOT
HETATM    1  O   UNL     1     -19.840  -2.187  58.911  1.00  0.00    -0.348 OA
HETATM    2  C   UNL     1     -21.744  -4.264  58.327  1.00  0.00     0.198 C 
HETATM    3  C   UNL     1     -21.430  -3.133  57.322  1.00  0.00     0.195 C 
HETATM    4  C   UNL     1     -21.551  -3.699  59.759  1.00  0.00     0.220 C 
HETATM    5  C   UNL     1     -19.979  -2.651  57.560  1.00  0.00     0.181 C 
HETATM    6  C   UNL     1     -20.083  -3.214  59.872  1.00  0.00     0.302 C 
ENDROOT
BRANCH   5   7
HETATM    7  C   UNL     1     -19.591  -1.532  56.580  1.00  0.00     0.213 C 
BRANCH   7   8
HETATM    8  O   UNL     1     -20.508  -0.427  56.653  1.00  0.00    -0.315 OA
BRANCH   8   9
HETATM    9  C   UNL     1     -20.371   0.484  55.652  1.00  0.00     0.293 C 
HETATM   10  O   UNL     1     -19.345   1.054  55.323  1.00  0.00    -0.259 OA
BRANCH   9  11
HETATM   11  C   UNL     1     -21.674   0.701  54.988  1.00  0.00     0.045 A 
HETATM   12  C   UNL     1     -22.800   1.128  55.717  1.00  0.00     0.057 A 
HETATM   13  C   UNL     1     -23.987   1.381  55.038  1.00  0.00     0.102 A 
HETATM   14  C   UNL     1     -24.058   1.204  53.660  1.00  0.00     0.132 A 
HETATM   15  C   UNL     1     -22.945   0.778  52.947  1.00  0.00     0.102 A 
HETATM   16  C   UNL     1     -21.744   0.532  53.599  1.00  0.00     0.057 A 
BRANCH  13  17
HETATM   17  O   UNL     1     -25.111   1.822  55.679  1.00  0.00    -0.358 OA
HETATM   18  H   UNL     1     -25.263   2.754  55.444  1.00  0.00     0.217 HD
ENDBRANCH  13  17
BRANCH  14  19
HETATM   19  O   UNL     1     -25.220   1.457  52.985  1.00  0.00    -0.356 OA
HETATM   20  H   UNL     1     -25.926   1.138  53.583  1.00  0.00     0.218 HD
ENDBRANCH  14  19
BRANCH  15  21
HETATM   21  O   UNL     1     -23.019   0.606  51.597  1.00  0.00    -0.358 OA
HETATM   22  H   UNL     1     -22.515  -0.215  51.421  1.00  0.00     0.217 HD
ENDBRANCH  15  21
ENDBRANCH   9  11
ENDBRANCH   8   9
ENDBRANCH   7   8
ENDBRANCH   5   7
BRANCH   3  23
HETATM   23  O   UNL     1     -21.554  -3.580  55.955  1.00  0.00    -0.307 OA
BRANCH  23  24
HETATM   24  C   UNL     1     -22.305  -3.028  54.965  1.00  0.00     0.294 C 
HETATM   25  O   UNL     1     -21.785  -2.720  53.899  1.00  0.00    -0.259 OA
BRANCH  24  26
HETATM   26  C   UNL     1     -23.770  -2.861  55.120  1.00  0.00     0.045 A 
HETATM   27  C   UNL     1     -24.340  -1.806  55.848  1.00  0.00     0.057 A 
HETATM   28  C   UNL     1     -25.719  -1.769  56.035  1.00  0.00     0.102 A 
HETATM   29  C   UNL     1     -26.532  -2.714  55.422  1.00  0.00     0.132 A 
HETATM   30  C   UNL     1     -25.975  -3.698  54.619  1.00  0.00     0.102 A 
HETATM   31  C   UNL     1     -24.598  -3.780  54.456  1.00  0.00     0.057 A 
BRANCH  28  32
HETATM   32  O   UNL     1     -26.317  -0.832  56.829  1.00  0.00    -0.358 OA
HETATM   33  H   UNL     1     -26.976  -0.343  56.301  1.00  0.00     0.217 HD
ENDBRANCH  28  32
BRANCH  29  34
HETATM   34  O   UNL     1     -27.887  -2.686  55.603  1.00  0.00    -0.356 OA
HETATM   35  H   UNL     1     -28.061  -1.802  55.988  1.00  0.00     0.218 HD
ENDBRANCH  29  34
BRANCH  30  36
HETATM   36  O   UNL     1     -26.778  -4.606  53.995  1.00  0.00    -0.358 OA
HETATM   37  H   UNL     1     -27.590  -4.109  53.769  1.00  0.00     0.217 HD
ENDBRANCH  30  36
ENDBRANCH  24  26
ENDBRANCH  23  24
ENDBRANCH   3  23
BRANCH   6  38
HETATM   38  O   UNL     1     -19.891  -2.684  61.196  1.00  0.00    -0.283 OA
BRANCH  38  39
HETATM   39  C   UNL     1     -20.060  -1.407  61.611  1.00  0.00     0.295 C 
HETATM   40  O   UNL     1     -19.724  -0.475  60.888  1.00  0.00    -0.259 OA
BRANCH  39  41
HETATM   41  C   UNL     1     -20.541  -1.119  62.981  1.00  0.00     0.045 A 
HETATM   42  C   UNL     1     -20.039  -0.054  63.748  1.00  0.00     0.057 A 
HETATM   43  C   UNL     1     -20.593   0.195  65.000  1.00  0.00     0.102 A 
HETATM   44  C   UNL     1     -21.560  -0.659  65.522  1.00  0.00     0.132 A 
HETATM   45  C   UNL     1     -21.978  -1.768  64.800  1.00  0.00     0.102 A 
HETATM   46  C   UNL     1     -21.484  -2.003  63.525  1.00  0.00     0.057 A 
BRANCH  43  47
HETATM   47  O   UNL     1     -20.233   1.276  65.755  1.00  0.00    -0.358 OA
HETATM   48  H   UNL     1     -21.014   1.840  65.899  1.00  0.00     0.217 HD
ENDBRANCH  43  47
BRANCH  44  49
HETATM   49  O   UNL     1     -22.106  -0.425  66.755  1.00  0.00    -0.356 OA
HETATM   50  H   UNL     1     -21.750   0.446  67.023  1.00  0.00     0.218 HD
ENDBRANCH  44  49
BRANCH  45  51
HETATM   51  O   UNL     1     -22.883  -2.635  65.338  1.00  0.00    -0.358 OA
HETATM   52  H   UNL     1     -23.601  -2.070  65.688  1.00  0.00     0.217 HD
ENDBRANCH  45  51
ENDBRANCH  39  41
ENDBRANCH  38  39
ENDBRANCH   6  38
BRANCH   2  53
HETATM   53  O   UNL     1     -23.027  -4.900  58.086  1.00  0.00    -0.306 OA
BRANCH  53  54
HETATM   54  C   UNL     1     -23.062  -6.191  57.699  1.00  0.00     0.294 C 
HETATM   55  O   UNL     1     -22.125  -6.973  57.768  1.00  0.00    -0.259 OA
BRANCH  54  56
HETATM   56  C   UNL     1     -24.379  -6.529  57.123  1.00  0.00     0.045 A 
HETATM   57  C   UNL     1     -24.410  -7.249  55.920  1.00  0.00     0.057 A 
HETATM   58  C   UNL     1     -25.625  -7.648  55.382  1.00  0.00     0.102 A 
HETATM   59  C   UNL     1     -26.804  -7.368  56.056  1.00  0.00     0.132 A 
HETATM   60  C   UNL     1     -26.773  -6.663  57.254  1.00  0.00     0.102 A 
HETATM   61  C   UNL     1     -25.570  -6.216  57.790  1.00  0.00     0.057 A 
BRANCH  58  62
HETATM   62  O   UNL     1     -25.698  -8.330  54.201  1.00  0.00    -0.358 OA
HETATM   63  H   UNL     1     -25.744  -7.682  53.474  1.00  0.00     0.217 HD
ENDBRANCH  58  62
BRANCH  59  64
HETATM   64  O   UNL     1     -28.004  -7.795  55.559  1.00  0.00    -0.356 OA
HETATM   65  H   UNL     1     -28.226  -8.579  56.103  1.00  0.00     0.218 HD
ENDBRANCH  59  64
BRANCH  60  66
HETATM   66  O   UNL     1     -27.935  -6.427  57.932  1.00  0.00    -0.358 OA
HETATM   67  H   UNL     1     -28.294  -5.610  57.528  1.00  0.00     0.217 HD
ENDBRANCH  60  66
ENDBRANCH  54  56
ENDBRANCH  53  54
ENDBRANCH   2  53
BRANCH   4  68
HETATM   68  O   UNL     1     -21.819  -4.709  60.762  1.00  0.00    -0.304 OA
BRANCH  68  69
HETATM   69  C   UNL     1     -22.871  -4.557  61.623  1.00  0.00     0.294 C 
HETATM   70  O   UNL     1     -22.863  -5.040  62.744  1.00  0.00    -0.259 OA
BRANCH  69  71
HETATM   71  C   UNL     1     -24.072  -3.879  61.084  1.00  0.00     0.045 A 
HETATM   72  C   UNL     1     -23.991  -2.579  60.562  1.00  0.00     0.057 A 
HETATM   73  C   UNL     1     -25.108  -2.042  59.927  1.00  0.00     0.102 A 
HETATM   74  C   UNL     1     -26.286  -2.775  59.841  1.00  0.00     0.132 A 
HETATM   75  C   UNL     1     -26.378  -4.028  60.432  1.00  0.00     0.102 A 
HETATM   76  C   UNL     1     -25.279  -4.586  61.071  1.00  0.00     0.057 A 
BRANCH  73  77
HETATM   77  O   UNL     1     -25.094  -0.802  59.352  1.00  0.00    -0.358 OA
HETATM   78  H   UNL     1     -25.625  -0.198  59.904  1.00  0.00     0.217 HD
ENDBRANCH  73  77
BRANCH  74  79
HETATM   79  O   UNL     1     -27.374  -2.281  59.173  1.00  0.00    -0.356 OA
HETATM   80  H   UNL     1     -27.471  -1.366  59.511  1.00  0.00     0.218 HD
ENDBRANCH  74  79
BRANCH  75  81
HETATM   81  O   UNL     1     -27.548  -4.729  60.357  1.00  0.00    -0.358 OA
HETATM   82  H   UNL     1     -27.285  -5.596  59.979  1.00  0.00     0.217 HD
ENDBRANCH  75  81
ENDBRANCH  69  71
ENDBRANCH  68  69
ENDBRANCH   4  68
TORSDOF 31
ENDMDL
MODEL 9
REMARK VINA RESULT:    -8.007     19.199     23.552
REMARK INTER + INTRA:         -24.784
REMARK INTER:                 -18.901
REMARK INTRA:                  -5.884
REMARK UNBOUND:                -5.777
REMARK  31 active torsions:
REMARK  status: ('A' for Active; 'I' for Inactive)
REMARK    1  A    between atoms: O_2  and  C_27 
REMARK    2  A    between atoms: O_2  and  C_33 
REMARK    3  A    between atoms: O_3  and  C_34 
REMARK    4  A    between atoms: O_3  and  C_28 
REMARK    5  A    between atoms: O_4  and  C_35 
REMARK    6  A    between atoms: O_4  and  C_29 
REMARK    7  A    between atoms: O_5  and  C_36 
REMARK    8  A    between atoms: O_5  and  C_31 
REMARK    9  A    between atoms: O_6  and  C_32 
REMARK   10  A    between atoms: O_6  and  C_39 
REMARK   11  A    between atoms: O_12  and  C_51 
REMARK   12  A    between atoms: O_13  and  C_52 
REMARK   13  A    between atoms: O_14  and  C_53 
REMARK   14  A    between atoms: O_15  and  C_54 
REMARK   15  A    between atoms: O_16  and  C_55 
REMARK   16  A    between atoms: O_17  and  C_56 
REMARK   17  A    between atoms: O_18  and  C_59 
REMARK   18  A    between atoms: O_19  and  C_60 
REMARK   19  A    between atoms: O_20  and  C_61 
REMARK   20  A    between atoms: O_21  and  C_62 
REMARK   21  A    between atoms: O_22  and  C_63 
REMARK   22  A    between atoms: O_23  and  C_64 
REMARK   23  A    between atoms: O_24  and  C_65 
REMARK   24  A    between atoms: O_25  and  C_66 
REMARK   25  A    between atoms: O_26  and  C_67 
REMARK   26  A    between atoms: C_30  and  C_32 
REMARK   27  A    between atoms: C_33  and  C_37 
REMARK   28  A    between atoms: C_34  and  C_38 
REMARK   29  A    between atoms: C_35  and  C_40 
REMARK   30  A    between atoms: C_36  and  C_41 
REMARK   31  A    between atoms: C_39  and  C_42 
ROOT
HETATM    1  O   UNL     1     -39.270  11.634  58.221  1.00  0.00    -0.348 OA
HETATM    2  C   UNL     1     -39.667  13.326  55.928  1.00  0.00     0.198 C 
HETATM    3  C   UNL     1     -39.499  13.902  57.352  1.00  0.00     0.195 C 
HETATM    4  C   UNL     1     -40.335  11.932  56.051  1.00  0.00     0.220 C 
HETATM    5  C   UNL     1     -38.635  12.920  58.180  1.00  0.00     0.181 C 
HETATM    6  C   UNL     1     -39.409  11.050  56.926  1.00  0.00     0.302 C 
ENDROOT
BRANCH   5   7
HETATM    7  C   UNL     1     -38.412  13.440  59.611  1.00  0.00     0.213 C 
BRANCH   7   8
HETATM    8  O   UNL     1     -37.115  13.070  60.109  1.00  0.00    -0.315 OA
BRANCH   8   9
HETATM    9  C   UNL     1     -36.472  14.057  60.790  1.00  0.00     0.293 C 
HETATM   10  O   UNL     1     -36.391  14.171  62.000  1.00  0.00    -0.259 OA
BRANCH   9  11
HETATM   11  C   UNL     1     -35.861  15.009  59.837  1.00  0.00     0.045 A 
HETATM   12  C   UNL     1     -35.973  16.399  60.023  1.00  0.00     0.057 A 
HETATM   13  C   UNL     1     -35.326  17.253  59.137  1.00  0.00     0.102 A 
HETATM   14  C   UNL     1     -34.587  16.735  58.077  1.00  0.00     0.132 A 
HETATM   15  C   UNL     1     -34.485  15.363  57.896  1.00  0.00     0.102 A 
HETATM   16  C   UNL     1     -35.109  14.488  58.775  1.00  0.00     0.057 A 
BRANCH  13  17
HETATM   17  O   UNL     1     -35.373  18.612  59.272  1.00  0.00    -0.358 OA
HETATM   18  H   UNL     1     -35.863  18.987  58.519  1.00  0.00     0.217 HD
ENDBRANCH  13  17
BRANCH  14  19
HETATM   19  O   UNL     1     -33.943  17.570  57.205  1.00  0.00    -0.356 OA
HETATM   20  H   UNL     1     -34.255  18.466  57.447  1.00  0.00     0.218 HD
ENDBRANCH  14  19
BRANCH  15  21
HETATM   21  O   UNL     1     -33.759  14.860  56.856  1.00  0.00    -0.358 OA
HETATM   22  H   UNL     1     -34.352  14.207  56.430  1.00  0.00     0.217 HD
ENDBRANCH  15  21
ENDBRANCH   9  11
ENDBRANCH   8   9
ENDBRANCH   7   8
ENDBRANCH   5   7
BRANCH   3  23
HETATM   23  O   UNL     1     -38.852  15.192  57.336  1.00  0.00    -0.307 OA
BRANCH  23  24
HETATM   24  C   UNL     1     -39.317  16.360  57.856  1.00  0.00     0.294 C 
HETATM   25  O   UNL     1     -40.267  16.352  58.630  1.00  0.00    -0.259 OA
BRANCH  24  26
HETATM   26  C   UNL     1     -38.641  17.647  57.568  1.00  0.00     0.045 A 
HETATM   27  C   UNL     1     -37.699  17.795  56.538  1.00  0.00     0.057 A 
HETATM   28  C   UNL     1     -37.032  19.007  56.390  1.00  0.00     0.102 A 
HETATM   29  C   UNL     1     -37.365  20.091  57.192  1.00  0.00     0.132 A 
HETATM   30  C   UNL     1     -38.368  19.972  58.143  1.00  0.00     0.102 A 
HETATM   31  C   UNL     1     -39.015  18.760  58.338  1.00  0.00     0.057 A 
BRANCH  28  32
HETATM   32  O   UNL     1     -36.026  19.173  55.480  1.00  0.00    -0.358 OA
HETATM   33  H   UNL     1     -35.407  19.850  55.810  1.00  0.00     0.217 HD
ENDBRANCH  28  32
BRANCH  29  34
HETATM   34  O   UNL     1     -36.712  21.285  57.054  1.00  0.00    -0.356 OA
HETATM   35  H   UNL     1     -37.427  21.954  57.070  1.00  0.00     0.218 HD
ENDBRANCH  29  34
BRANCH  30  36
HETATM   36  O   UNL     1     -38.712  21.047  58.909  1.00  0.00    -0.358 OA
HETATM   37  H   UNL     1     -39.462  20.735  59.455  1.00  0.00     0.217 HD
ENDBRANCH  30  36
ENDBRANCH  24  26
ENDBRANCH  23  24
ENDBRANCH   3  23
BRANCH   6  38
HETATM   38  O   UNL     1     -40.019   9.752  57.051  1.00  0.00    -0.283 OA
BRANCH  38  39
HETATM   39  C   UNL     1     -39.433   8.542  56.896  1.00  0.00     0.295 C 
HETATM   40  O   UNL     1     -39.160   8.129  55.774  1.00  0.00    -0.259 OA
BRANCH  39  41
HETATM   41  C   UNL     1     -39.223   7.654  58.061  1.00  0.00     0.045 A 
HETATM   42  C   UNL     1     -40.076   7.660  59.177  1.00  0.00     0.057 A 
HETATM   43  C   UNL     1     -39.853   6.744  60.201  1.00  0.00     0.102 A 
HETATM   44  C   UNL     1     -38.745   5.904  60.163  1.00  0.00     0.132 A 
HETATM   45  C   UNL     1     -37.850   5.974  59.104  1.00  0.00     0.102 A 
HETATM   46  C   UNL     1     -38.083   6.836  58.044  1.00  0.00     0.057 A 
BRANCH  43  47
HETATM   47  O   UNL     1     -40.703   6.617  61.264  1.00  0.00    -0.358 OA
HETATM   48  H   UNL     1     -41.155   7.467  61.416  1.00  0.00     0.217 HD
ENDBRANCH  43  47
BRANCH  44  49
HETATM   49  O   UNL     1     -38.514   5.004  61.168  1.00  0.00    -0.356 OA
HETATM   50  H   UNL     1     -37.906   4.346  60.776  1.00  0.00     0.218 HD
ENDBRANCH  44  49
BRANCH  45  51
HETATM   51  O   UNL     1     -36.733   5.190  59.098  1.00  0.00    -0.358 OA
HETATM   52  H   UNL     1     -36.289   5.373  59.950  1.00  0.00     0.217 HD
ENDBRANCH  45  51
ENDBRANCH  39  41
ENDBRANCH  38  39
ENDBRANCH   6  38
BRANCH   2  53
HETATM   53  O   UNL     1     -40.327  14.245  55.017  1.00  0.00    -0.306 OA
BRANCH  53  54
HETATM   54  C   UNL     1     -39.816  14.434  53.784  1.00  0.00     0.294 C 
HETATM   55  O   UNL     1     -40.404  14.210  52.735  1.00  0.00    -0.259 OA
BRANCH  54  56
HETATM   56  C   UNL     1     -38.417  14.900  53.863  1.00  0.00     0.045 A 
HETATM   57  C   UNL     1     -37.443  13.994  54.306  1.00  0.00     0.057 A 
HETATM   58  C   UNL     1     -36.107  14.369  54.328  1.00  0.00     0.102 A 
HETATM   59  C   UNL     1     -35.735  15.626  53.876  1.00  0.00     0.132 A 
HETATM   60  C   UNL     1     -36.700  16.522  53.427  1.00  0.00     0.102 A 
HETATM   61  C   UNL     1     -38.049  16.182  53.436  1.00  0.00     0.057 A 
BRANCH  58  62
HETATM   62  O   UNL     1     -35.131  13.524  54.774  1.00  0.00    -0.358 OA
HETATM   63  H   UNL     1     -34.308  13.724  54.291  1.00  0.00     0.217 HD
ENDBRANCH  58  62
BRANCH  59  64
HETATM   64  O   UNL     1     -34.417  15.991  53.851  1.00  0.00    -0.356 OA
HETATM   65  H   UNL     1     -34.111  15.854  54.772  1.00  0.00     0.218 HD
ENDBRANCH  59  64
BRANCH  60  66
HETATM   66  O   UNL     1     -36.322  17.741  52.946  1.00  0.00    -0.358 OA
HETATM   67  H   UNL     1     -35.777  18.131  53.661  1.00  0.00     0.217 HD
ENDBRANCH  60  66
ENDBRANCH  54  56
ENDBRANCH  53  54
ENDBRANCH   2  53
BRANCH   4  68
HETATM   68  O   UNL     1     -40.518  11.321  54.750  1.00  0.00    -0.304 OA
BRANCH  68  69
HETATM   69  C   UNL     1     -41.770  10.958  54.333  1.00  0.00     0.294 C 
HETATM   70  O   UNL     1     -42.579  10.445  55.089  1.00  0.00    -0.259 OA
BRANCH  69  71
HETATM   71  C   UNL     1     -42.052  11.109  52.888  1.00  0.00     0.045 A 
HETATM   72  C   UNL     1     -41.219  10.519  51.925  1.00  0.00     0.057 A 
HETATM   73  C   UNL     1     -41.608  10.557  50.589  1.00  0.00     0.102 A 
HETATM   74  C   UNL     1     -42.788  11.196  50.219  1.00  0.00     0.132 A 
HETATM   75  C   UNL     1     -43.562  11.845  51.171  1.00  0.00     0.102 A 
HETATM   76  C   UNL     1     -43.196  11.821  52.510  1.00  0.00     0.057 A 
BRANCH  73  77
HETATM   77  O   UNL     1     -40.876   9.965  49.598  1.00  0.00    -0.358 OA
HETATM   78  H   UNL     1     -41.414   9.259  49.195  1.00  0.00     0.217 HD
ENDBRANCH  73  77
BRANCH  74  79
HETATM   79  O   UNL     1     -43.209  11.195  48.917  1.00  0.00    -0.356 OA
HETATM   80  H   UNL     1     -44.079  10.744  48.944  1.00  0.00     0.218 HD
ENDBRANCH  74  79
BRANCH  75  81
HETATM   81  O   UNL     1     -44.708  12.485  50.792  1.00  0.00    -0.358 OA
HETATM   82  H   UNL     1     -45.177  11.827  50.235  1.00  0.00     0.217 HD
ENDBRANCH  75  81
ENDBRANCH  69  71
ENDBRANCH  68  69
ENDBRANCH   4  68
TORSDOF 31
ENDMDL
MODEL 10
REMARK VINA RESULT:    -7.982     19.187     23.296
REMARK INTER + INTRA:         -24.725
REMARK INTER:                 -18.948
REMARK INTRA:                  -5.777
REMARK UNBOUND:                -5.777
REMARK  31 active torsions:
REMARK  status: ('A' for Active; 'I' for Inactive)
REMARK    1  A    between atoms: O_2  and  C_27 
REMARK    2  A    between atoms: O_2  and  C_33 
REMARK    3  A    between atoms: O_3  and  C_34 
REMARK    4  A    between atoms: O_3  and  C_28 
REMARK    5  A    between atoms: O_4  and  C_35 
REMARK    6  A    between atoms: O_4  and  C_29 
REMARK    7  A    between atoms: O_5  and  C_36 
REMARK    8  A    between atoms: O_5  and  C_31 
REMARK    9  A    between atoms: O_6  and  C_32 
REMARK   10  A    between atoms: O_6  and  C_39 
REMARK   11  A    between atoms: O_12  and  C_51 
REMARK   12  A    between atoms: O_13  and  C_52 
REMARK   13  A    between atoms: O_14  and  C_53 
REMARK   14  A    between atoms: O_15  and  C_54 
REMARK   15  A    between atoms: O_16  and  C_55 
REMARK   16  A    between atoms: O_17  and  C_56 
REMARK   17  A    between atoms: O_18  and  C_59 
REMARK   18  A    between atoms: O_19  and  C_60 
REMARK   19  A    between atoms: O_20  and  C_61 
REMARK   20  A    between atoms: O_21  and  C_62 
REMARK   21  A    between atoms: O_22  and  C_63 
REMARK   22  A    between atoms: O_23  and  C_64 
REMARK   23  A    between atoms: O_24  and  C_65 
REMARK   24  A    between atoms: O_25  and  C_66 
REMARK   25  A    between atoms: O_26  and  C_67 
REMARK   26  A    between atoms: C_30  and  C_32 
REMARK   27  A    between atoms: C_33  and  C_37 
REMARK   28  A    between atoms: C_34  and  C_38 
REMARK   29  A    between atoms: C_35  and  C_40 
REMARK   30  A    between atoms: C_36  and  C_41 
REMARK   31  A    between atoms: C_39  and  C_42 
ROOT
HETATM    1  O   UNL     1     -39.793  11.507  58.319  1.00  0.00    -0.348 OA
HETATM    2  C   UNL     1     -40.627  12.355  55.699  1.00  0.00     0.198 C 
HETATM    3  C   UNL     1     -41.081  11.009  56.308  1.00  0.00     0.195 C 
HETATM    4  C   UNL     1     -39.223  12.688  56.267  1.00  0.00     0.220 C 
HETATM    5  C   UNL     1     -41.102  11.149  57.849  1.00  0.00     0.181 C 
HETATM    6  C   UNL     1     -39.354  12.766  57.809  1.00  0.00     0.302 C 
ENDROOT
BRANCH   5   7
HETATM    7  C   UNL     1     -41.562   9.846  58.524  1.00  0.00     0.213 C 
BRANCH   7   8
HETATM    8  O   UNL     1     -40.516   9.270  59.325  1.00  0.00    -0.315 OA
BRANCH   8   9
HETATM    9  C   UNL     1     -40.564   7.914  59.422  1.00  0.00     0.293 C 
HETATM   10  O   UNL     1     -41.489   7.248  59.854  1.00  0.00    -0.259 OA
BRANCH   9  11
HETATM   11  C   UNL     1     -39.304   7.330  58.915  1.00  0.00     0.045 A 
HETATM   12  C   UNL     1     -38.934   7.460  57.564  1.00  0.00     0.057 A 
HETATM   13  C   UNL     1     -37.709   6.950  57.148  1.00  0.00     0.102 A 
HETATM   14  C   UNL     1     -36.870   6.312  58.057  1.00  0.00     0.132 A 
HETATM   15  C   UNL     1     -37.244   6.182  59.388  1.00  0.00     0.102 A 
HETATM   16  C   UNL     1     -38.455   6.695  59.832  1.00  0.00     0.057 A 
BRANCH  13  17
HETATM   17  O   UNL     1     -37.275   7.063  55.857  1.00  0.00    -0.358 OA
HETATM   18  H   UNL     1     -38.000   6.812  55.258  1.00  0.00     0.217 HD
ENDBRANCH  13  17
BRANCH  14  19
HETATM   19  O   UNL     1     -35.661   5.814  57.656  1.00  0.00    -0.356 OA
HETATM   20  H   UNL     1     -35.882   5.173  56.949  1.00  0.00     0.218 HD
ENDBRANCH  14  19
BRANCH  15  21
HETATM   21  O   UNL     1     -36.418   5.556  60.274  1.00  0.00    -0.358 OA
HETATM   22  H   UNL     1     -35.620   6.123  60.315  1.00  0.00     0.217 HD
ENDBRANCH  15  21
ENDBRANCH   9  11
ENDBRANCH   8   9
ENDBRANCH   7   8
ENDBRANCH   5   7
BRANCH   3  23
HETATM   23  O   UNL     1     -42.399  10.634  55.856  1.00  0.00    -0.307 OA
BRANCH  23  24
HETATM   24  C   UNL     1     -43.454  11.453  55.603  1.00  0.00     0.294 C 
HETATM   25  O   UNL     1     -43.933  12.133  56.503  1.00  0.00    -0.259 OA
BRANCH  24  26
HETATM   26  C   UNL     1     -43.993  11.605  54.229  1.00  0.00     0.045 A 
HETATM   27  C   UNL     1     -44.216  12.857  53.637  1.00  0.00     0.057 A 
HETATM   28  C   UNL     1     -44.816  12.924  52.384  1.00  0.00     0.102 A 
HETATM   29  C   UNL     1     -45.102  11.760  51.683  1.00  0.00     0.132 A 
HETATM   30  C   UNL     1     -44.789  10.523  52.228  1.00  0.00     0.102 A 
HETATM   31  C   UNL     1     -44.230  10.432  53.496  1.00  0.00     0.057 A 
BRANCH  28  32
HETATM   32  O   UNL     1     -45.161  14.115  51.809  1.00  0.00    -0.358 OA
HETATM   33  H   UNL     1     -44.387  14.710  51.822  1.00  0.00     0.217 HD
ENDBRANCH  28  32
BRANCH  29  34
HETATM   34  O   UNL     1     -45.695  11.818  50.452  1.00  0.00    -0.356 OA
HETATM   35  H   UNL     1     -46.060  12.726  50.403  1.00  0.00     0.218 HD
ENDBRANCH  29  34
BRANCH  30  36
HETATM   36  O   UNL     1     -45.044   9.383  51.524  1.00  0.00    -0.358 OA
HETATM   37  H   UNL     1     -45.918   9.534  51.112  1.00  0.00     0.217 HD
ENDBRANCH  30  36
ENDBRANCH  24  26
ENDBRANCH  23  24
ENDBRANCH   3  23
BRANCH   6  38
HETATM   38  O   UNL     1     -38.055  13.072  58.350  1.00  0.00    -0.283 OA
BRANCH  38  39
HETATM   39  C   UNL     1     -37.708  14.124  59.127  1.00  0.00     0.295 C 
HETATM   40  O   UNL     1     -38.371  14.403  60.120  1.00  0.00    -0.259 OA
BRANCH  39  41
HETATM   41  C   UNL     1     -36.600  15.020  58.726  1.00  0.00     0.045 A 
HETATM   42  C   UNL     1     -35.413  14.540  58.147  1.00  0.00     0.057 A 
HETATM   43  C   UNL     1     -34.448  15.453  57.732  1.00  0.00     0.102 A 
HETATM   44  C   UNL     1     -34.616  16.812  57.978  1.00  0.00     0.132 A 
HETATM   45  C   UNL     1     -35.746  17.270  58.641  1.00  0.00     0.102 A 
HETATM   46  C   UNL     1     -36.749  16.386  59.011  1.00  0.00     0.057 A 
BRANCH  43  47
HETATM   47  O   UNL     1     -33.320  15.068  57.064  1.00  0.00    -0.358 OA
HETATM   48  H   UNL     1     -32.846  14.402  57.592  1.00  0.00     0.217 HD
ENDBRANCH  43  47
BRANCH  44  49
HETATM   49  O   UNL     1     -33.670  17.717  57.578  1.00  0.00    -0.356 OA
HETATM   50  H   UNL     1     -33.125  17.233  56.924  1.00  0.00     0.218 HD
ENDBRANCH  44  49
BRANCH  45  51
HETATM   51  O   UNL     1     -35.881  18.596  58.931  1.00  0.00    -0.358 OA
HETATM   52  H   UNL     1     -36.591  18.638  59.603  1.00  0.00     0.217 HD
ENDBRANCH  45  51
ENDBRANCH  39  41
ENDBRANCH  38  39
ENDBRANCH   6  38
BRANCH   2  53
HETATM   53  O   UNL     1     -40.726  12.386  54.249  1.00  0.00    -0.306 OA
BRANCH  53  54
HETATM   54  C   UNL     1     -40.248  11.350  53.532  1.00  0.00     0.294 C 
HETATM   55  O   UNL     1     -39.416  10.545  53.925  1.00  0.00    -0.259 OA
BRANCH  54  56
HETATM   56  C   UNL     1     -40.825  11.345  52.173  1.00  0.00     0.045 A 
HETATM   57  C   UNL     1     -41.116  10.106  51.584  1.00  0.00     0.057 A 
HETATM   58  C   UNL     1     -41.725  10.057  50.337  1.00  0.00     0.102 A 
HETATM   59  C   UNL     1     -42.080  11.234  49.696  1.00  0.00     0.132 A 
HETATM   60  C   UNL     1     -41.801  12.463  50.285  1.00  0.00     0.102 A 
HETATM   61  C   UNL     1     -41.153  12.536  51.513  1.00  0.00     0.057 A 
BRANCH  58  62
HETATM   62  O   UNL     1     -42.003   8.871  49.720  1.00  0.00    -0.358 OA
HETATM   63  H   UNL     1     -42.775   9.001  49.138  1.00  0.00     0.217 HD
ENDBRANCH  58  62
BRANCH  59  64
HETATM   64  O   UNL     1     -42.721  11.199  48.488  1.00  0.00    -0.356 OA
HETATM   65  H   UNL     1     -43.397  10.497  48.593  1.00  0.00     0.218 HD
ENDBRANCH  59  64
BRANCH  60  66
HETATM   66  O   UNL     1     -42.190  13.616  49.666  1.00  0.00    -0.358 OA
HETATM   67  H   UNL     1     -43.144  13.486  49.479  1.00  0.00     0.217 HD
ENDBRANCH  60  66
ENDBRANCH  54  56
ENDBRANCH  53  54
ENDBRANCH   2  53
BRANCH   4  68
HETATM   68  O   UNL     1     -38.732  13.948  55.746  1.00  0.00    -0.304 OA
BRANCH  68  69
HETATM   69  C   UNL     1     -37.636  13.971  54.927  1.00  0.00     0.294 C 
HETATM   70  O   UNL     1     -37.196  12.957  54.408  1.00  0.00    -0.259 OA
BRANCH  69  71
HETATM   71  C   UNL     1     -36.937  15.269  54.799  1.00  0.00     0.045 A 
HETATM   72  C   UNL     1     -35.739  15.375  54.075  1.00  0.00     0.057 A 
HETATM   73  C   UNL     1     -35.201  16.639  53.852  1.00  0.00     0.102 A 
HETATM   74  C   UNL     1     -35.829  17.770  54.363  1.00  0.00     0.132 A 
HETATM   75  C   UNL     1     -36.970  17.645  55.145  1.00  0.00     0.102 A 
HETATM   76  C   UNL     1     -37.526  16.396  55.383  1.00  0.00     0.057 A 
BRANCH  73  77
HETATM   77  O   UNL     1     -34.064  16.829  53.117  1.00  0.00    -0.358 OA
HETATM   78  H   UNL     1     -34.318  16.984  52.188  1.00  0.00     0.217 HD
ENDBRANCH  73  77
BRANCH  74  79
HETATM   79  O   UNL     1     -35.341  19.022  54.106  1.00  0.00    -0.356 OA
HETATM   80  H   UNL     1     -35.942  19.381  53.421  1.00  0.00     0.218 HD
ENDBRANCH  74  79
BRANCH  75  81
HETATM   81  O   UNL     1     -37.565  18.763  55.658  1.00  0.00    -0.358 OA
HETATM   82  H   UNL     1     -37.999  18.447  56.480  1.00  0.00     0.217 HD
ENDBRANCH  75  81
ENDBRANCH  69  71
ENDBRANCH  68  69
ENDBRANCH   4  68
TORSDOF 31
ENDMDL
