MODEL 1
REMARK VINA RESULT:      -8.9      0.000      0.000
REMARK  11 active torsions:
REMARK  status: ('A' for Active; 'I' for Inactive)
REMARK    1  A    between atoms: O_1  and  C_9 
REMARK    2  A    between atoms: O_2  and  C_19 
REMARK    3  A    between atoms: O_3  and  C_26 
REMARK    4  A    between atoms: O_4  and  C_27 
REMARK    5  A    between atoms: O_6  and  C_28 
REMARK    6  A    between atoms: O_7  and  C_32 
REMARK    7  A    between atoms: C_10  and  C_19 
REMARK    8  A    between atoms: C_19  and  C_27 
REMARK    9  A    between atoms: C_27  and  C_30 
REMARK   10  A    between atoms: C_30  and  C_31 
REMARK   11  A    between atoms: C_31  and  C_32 
ROOT
HETATM    1  O   UNK     0     149.091 150.096 142.113  0.00  0.00    -0.384 OA
HETATM    2  H   UNK     0     149.841 149.691 141.644  0.00  0.00     0.211 HD
ENDROOT
BRANCH   1   3
HETATM    3  C   UNK     0     148.689 149.192 143.168  0.00  0.00     0.089 C 
HETATM    4  C   UNK     0     148.627 147.746 142.610  0.00  0.00    -0.002 C 
HETATM    5  C   UNK     0     147.481 147.884 141.576  0.00  0.00     0.034 C 
HETATM    6  C   UNK     0     149.992 147.402 141.986  0.00  0.00     0.014 C 
HETATM    7  C   UNK     0     148.269 146.694 143.695  0.00  0.00     0.019 C 
HETATM    8  C   UNK     0     146.454 148.796 142.285  0.00  0.00     0.012 C 
HETATM    9  C   UNK     0     147.208 149.501 143.433  0.00  0.00     0.044 C 
HETATM   10  C   UNK     0     151.118 147.513 143.027  0.00  0.00     0.011 C 
HETATM   11  C   UNK     0     151.142 148.846 143.838  0.00  0.00     0.027 C 
HETATM   12  C   UNK     0     152.162 148.798 145.043  0.00  0.00    -0.023 C 
HETATM   13  C   UNK     0     149.742 149.330 144.246  0.00  0.00    -0.037 C 
HETATM   14  C   UNK     0     152.001 150.067 145.927  0.00  0.00     0.071 C 
HETATM   15  C   UNK     0     153.634 148.727 144.545  0.00  0.00     0.044 C 
HETATM   16  C   UNK     0     151.926 147.553 145.941  0.00  0.00     0.016 C 
HETATM   17  C   UNK     0     152.489 151.357 145.246  0.00  0.00     0.047 C 
HETATM   18  C   UNK     0     150.562 150.244 146.374  0.00  0.00     0.154 C 
HETATM   19  C   UNK     0     153.937 151.235 144.775  0.00  0.00     0.147 C 
HETATM   20  C   UNK     0     154.117 150.015 143.870  0.00  0.00     0.147 C 
HETATM   21  O   UNK     0     150.281 150.713 147.477  0.00  0.00    -0.293 OA
HETATM   22  C   UNK     0     149.477 149.921 145.422  0.00  0.00     0.057 C 
BRANCH   5  23
HETATM   23  C   UNK     0     146.865 146.587 141.065  0.00  0.00     0.084 C 
HETATM   24  C   UNK     0     146.936 146.546 139.529  0.00  0.00     0.049 C 
BRANCH  23  25
HETATM   25  O   UNK     0     147.644 145.490 141.559  0.00  0.00    -0.387 OA
HETATM   26  H   UNK     0     148.556 145.792 141.706  0.00  0.00     0.210 HD
ENDBRANCH  23  25
BRANCH  23  27
HETATM   27  C   UNK     0     145.402 146.400 141.552  0.00  0.00     0.152 C 
BRANCH  27  28
HETATM   28  O   UNK     0     145.370 145.446 142.619  0.00  0.00    -0.393 OA
HETATM   29  H   UNK     0     145.453 144.562 142.220  0.00  0.00     0.210 HD
ENDBRANCH  27  28
BRANCH  27  30
HETATM   30  C   UNK     0     144.425 145.934 140.456  0.00  0.00     0.037 C 
BRANCH  30  31
HETATM   31  C   UNK     0     143.931 144.495 140.696  0.00  0.00     0.040 C 
BRANCH  31  32
HETATM   32  C   UNK     0     144.717 143.412 139.929  0.00  0.00     0.051 C 
HETATM   33  C   UNK     0     143.928 142.098 139.945  0.00  0.00     0.045 C 
HETATM   34  C   UNK     0     145.023 143.820 138.487  0.00  0.00     0.045 C 
BRANCH  32  35
HETATM   35  O   UNK     0     145.954 143.188 140.609  0.00  0.00    -0.391 OA
HETATM   36  H   UNK     0     146.548 142.716 140.002  0.00  0.00     0.210 HD
ENDBRANCH  32  35
ENDBRANCH  31  32
ENDBRANCH  30  31
ENDBRANCH  27  30
ENDBRANCH  23  27
ENDBRANCH   5  23
BRANCH  19  37
HETATM   37  O   UNK     0     154.791 151.106 145.914  0.00  0.00    -0.393 OA
HETATM   38  H   UNK     0     154.372 150.477 146.525  0.00  0.00     0.210 HD
ENDBRANCH  19  37
BRANCH  20  39
HETATM   39  O   UNK     0     155.496 149.889 143.530  0.00  0.00    -0.393 OA
HETATM   40  H   UNK     0     155.566 149.205 142.842  0.00  0.00     0.210 HD
ENDBRANCH  20  39
ENDBRANCH   1   3
TORSDOF 11
ENDMDL
MODEL 2
REMARK VINA RESULT:      -8.8      1.972      8.689
REMARK  11 active torsions:
REMARK  status: ('A' for Active; 'I' for Inactive)
REMARK    1  A    between atoms: O_1  and  C_9 
REMARK    2  A    between atoms: O_2  and  C_19 
REMARK    3  A    between atoms: O_3  and  C_26 
REMARK    4  A    between atoms: O_4  and  C_27 
REMARK    5  A    between atoms: O_6  and  C_28 
REMARK    6  A    between atoms: O_7  and  C_32 
REMARK    7  A    between atoms: C_10  and  C_19 
REMARK    8  A    between atoms: C_19  and  C_27 
REMARK    9  A    between atoms: C_27  and  C_30 
REMARK   10  A    between atoms: C_30  and  C_31 
REMARK   11  A    between atoms: C_31  and  C_32 
ROOT
HETATM    1  O   UNK     0     149.137 146.579 144.405  0.00  0.00    -0.384 OA
HETATM    2  H   UNK     0     148.504 147.013 145.004  0.00  0.00     0.211 HD
ENDROOT
BRANCH   1   3
HETATM    3  C   UNK     0     149.576 147.562 143.439  0.00  0.00     0.089 C 
HETATM    4  C   UNK     0     150.977 147.167 142.903  0.00  0.00    -0.002 C 
HETATM    5  C   UNK     0     151.825 147.289 144.195  0.00  0.00     0.034 C 
HETATM    6  C   UNK     0     150.901 145.737 142.340  0.00  0.00     0.014 C 
HETATM    7  C   UNK     0     151.499 148.134 141.806  0.00  0.00     0.019 C 
HETATM    8  C   UNK     0     151.268 148.555 144.884  0.00  0.00     0.012 C 
HETATM    9  C   UNK     0     149.885 148.829 144.252  0.00  0.00     0.044 C 
HETATM   10  C   UNK     0     149.863 145.644 141.209  0.00  0.00     0.011 C 
HETATM   11  C   UNK     0     148.459 146.236 141.547  0.00  0.00     0.027 C 
HETATM   12  C   UNK     0     147.524 146.328 140.278  0.00  0.00    -0.023 C 
HETATM   13  C   UNK     0     148.533 147.549 142.342  0.00  0.00    -0.037 C 
HETATM   14  C   UNK     0     146.223 147.103 140.630  0.00  0.00     0.071 C 
HETATM   15  C   UNK     0     147.132 144.917 139.753  0.00  0.00     0.044 C 
HETATM   16  C   UNK     0     148.223 147.069 139.106  0.00  0.00     0.016 C 
HETATM   17  C   UNK     0     145.283 146.329 141.570  0.00  0.00     0.047 C 
HETATM   18  C   UNK     0     146.538 148.458 141.233  0.00  0.00     0.154 C 
HETATM   19  C   UNK     0     144.930 144.952 141.010  0.00  0.00     0.147 C 
HETATM   20  C   UNK     0     146.193 144.152 140.691  0.00  0.00     0.147 C 
HETATM   21  O   UNK     0     145.826 149.439 141.025  0.00  0.00    -0.293 OA
HETATM   22  C   UNK     0     147.687 148.574 142.159  0.00  0.00     0.057 C 
BRANCH   5  23
HETATM   23  C   UNK     0     153.338 147.332 144.015  0.00  0.00     0.084 C 
HETATM   24  C   UNK     0     154.017 147.588 145.370  0.00  0.00     0.049 C 
BRANCH  23  25
HETATM   25  O   UNK     0     153.776 146.048 143.551  0.00  0.00    -0.387 OA
HETATM   26  H   UNK     0     152.997 145.505 143.347  0.00  0.00     0.210 HD
ENDBRANCH  23  25
BRANCH  23  27
HETATM   27  C   UNK     0     153.774 148.398 142.973  0.00  0.00     0.152 C 
BRANCH  27  28
HETATM   28  O   UNK     0     154.641 147.796 142.005  0.00  0.00    -0.393 OA
HETATM   29  H   UNK     0     155.376 147.382 142.491  0.00  0.00     0.210 HD
ENDBRANCH  27  28
BRANCH  27  30
HETATM   30  C   UNK     0     154.497 149.616 143.579  0.00  0.00     0.037 C 
BRANCH  30  31
HETATM   31  C   UNK     0     153.687 150.914 143.403  0.00  0.00     0.040 C 
BRANCH  31  32
HETATM   32  C   UNK     0     153.670 151.830 144.645  0.00  0.00     0.051 C 
HETATM   33  C   UNK     0     152.226 152.234 144.964  0.00  0.00     0.045 C 
HETATM   34  C   UNK     0     154.309 151.172 145.869  0.00  0.00     0.045 C 
BRANCH  32  35
HETATM   35  O   UNK     0     154.399 153.020 144.336  0.00  0.00    -0.391 OA
HETATM   36  H   UNK     0     154.648 153.444 145.174  0.00  0.00     0.210 HD
ENDBRANCH  32  35
ENDBRANCH  31  32
ENDBRANCH  30  31
ENDBRANCH  27  30
ENDBRANCH  23  27
ENDBRANCH   5  23
BRANCH  19  37
HETATM   37  O   UNK     0     144.161 145.115 139.817  0.00  0.00    -0.393 OA
HETATM   38  H   UNK     0     144.784 145.244 139.082  0.00  0.00     0.210 HD
ENDBRANCH  19  37
BRANCH  20  39
HETATM   39  O   UNK     0     145.818 142.915 140.088  0.00  0.00    -0.393 OA
HETATM   40  H   UNK     0     146.294 142.206 140.555  0.00  0.00     0.210 HD
ENDBRANCH  20  39
ENDBRANCH   1   3
TORSDOF 11
ENDMDL
MODEL 3
REMARK VINA RESULT:      -8.8      1.743      2.664
REMARK  11 active torsions:
REMARK  status: ('A' for Active; 'I' for Inactive)
REMARK    1  A    between atoms: O_1  and  C_9 
REMARK    2  A    between atoms: O_2  and  C_19 
REMARK    3  A    between atoms: O_3  and  C_26 
REMARK    4  A    between atoms: O_4  and  C_27 
REMARK    5  A    between atoms: O_6  and  C_28 
REMARK    6  A    between atoms: O_7  and  C_32 
REMARK    7  A    between atoms: C_10  and  C_19 
REMARK    8  A    between atoms: C_19  and  C_27 
REMARK    9  A    between atoms: C_27  and  C_30 
REMARK   10  A    between atoms: C_30  and  C_31 
REMARK   11  A    between atoms: C_31  and  C_32 
ROOT
HETATM    1  O   UNK     0     148.992 150.334 142.290  0.00  0.00    -0.384 OA
HETATM    2  H   UNK     0     149.963 150.394 142.289  0.00  0.00     0.211 HD
ENDROOT
BRANCH   1   3
HETATM    3  C   UNK     0     148.605 149.433 143.352  0.00  0.00     0.089 C 
HETATM    4  C   UNK     0     148.490 147.993 142.789  0.00  0.00    -0.002 C 
HETATM    5  C   UNK     0     147.312 148.165 141.795  0.00  0.00     0.034 C 
HETATM    6  C   UNK     0     149.823 147.621 142.117  0.00  0.00     0.014 C 
HETATM    7  C   UNK     0     148.144 146.943 143.879  0.00  0.00     0.019 C 
HETATM    8  C   UNK     0     146.332 149.097 142.544  0.00  0.00     0.012 C 
HETATM    9  C   UNK     0     147.142 149.776 143.670  0.00  0.00     0.044 C 
HETATM   10  C   UNK     0     150.987 147.699 143.119  0.00  0.00     0.011 C 
HETATM   11  C   UNK     0     151.071 149.026 143.936  0.00  0.00     0.027 C 
HETATM   12  C   UNK     0     152.129 148.946 145.105  0.00  0.00    -0.023 C 
HETATM   13  C   UNK     0     149.698 149.540 144.395  0.00  0.00    -0.037 C 
HETATM   14  C   UNK     0     152.029 150.212 146.001  0.00  0.00     0.071 C 
HETATM   15  C   UNK     0     153.581 148.843 144.557  0.00  0.00     0.044 C 
HETATM   16  C   UNK     0     151.895 147.700 146.003  0.00  0.00     0.016 C 
HETATM   17  C   UNK     0     152.525 151.495 145.311  0.00  0.00     0.047 C 
HETATM   18  C   UNK     0     150.612 150.420 146.499  0.00  0.00     0.154 C 
HETATM   19  C   UNK     0     153.953 151.341 144.790  0.00  0.00     0.147 C 
HETATM   20  C   UNK     0     154.072 150.124 143.872  0.00  0.00     0.147 C 
HETATM   21  O   UNK     0     150.380 150.888 147.613  0.00  0.00    -0.293 OA
HETATM   22  C   UNK     0     149.487 150.129 145.582  0.00  0.00     0.057 C 
BRANCH   5  23
HETATM   23  C   UNK     0     146.648 146.887 141.298  0.00  0.00     0.084 C 
HETATM   24  C   UNK     0     146.235 146.014 142.496  0.00  0.00     0.049 C 
BRANCH  23  25
HETATM   25  O   UNK     0     145.451 147.242 140.594  0.00  0.00    -0.387 OA
HETATM   26  H   UNK     0     145.660 147.937 139.949  0.00  0.00     0.210 HD
ENDBRANCH  23  25
BRANCH  23  27
HETATM   27  C   UNK     0     147.562 146.089 140.328  0.00  0.00     0.152 C 
BRANCH  27  28
HETATM   28  O   UNK     0     146.848 145.806 139.121  0.00  0.00    -0.393 OA
HETATM   29  H   UNK     0     147.368 145.152 138.622  0.00  0.00     0.210 HD
ENDBRANCH  27  28
BRANCH  27  30
HETATM   30  C   UNK     0     148.088 144.760 140.903  0.00  0.00     0.037 C 
BRANCH  30  31
HETATM   31  C   UNK     0     149.621 144.655 140.806  0.00  0.00     0.040 C 
BRANCH  31  32
HETATM   32  C   UNK     0     150.224 143.422 141.511  0.00  0.00     0.051 C 
HETATM   33  C   UNK     0     151.161 143.880 142.634  0.00  0.00     0.045 C 
HETATM   34  C   UNK     0     149.153 142.486 142.074  0.00  0.00     0.045 C 
BRANCH  32  35
HETATM   35  O   UNK     0     151.004 142.697 140.558  0.00  0.00    -0.391 OA
HETATM   36  H   UNK     0     150.716 142.965 139.669  0.00  0.00     0.210 HD
ENDBRANCH  32  35
ENDBRANCH  31  32
ENDBRANCH  30  31
ENDBRANCH  27  30
ENDBRANCH  23  27
ENDBRANCH   5  23
BRANCH  19  37
HETATM   37  O   UNK     0     154.841 151.185 145.898  0.00  0.00    -0.393 OA
HETATM   38  H   UNK     0     154.500 150.459 146.447  0.00  0.00     0.210 HD
ENDBRANCH  19  37
BRANCH  20  39
HETATM   39  O   UNK     0     155.435 149.967 143.485  0.00  0.00    -0.393 OA
HETATM   40  H   UNK     0     155.455 149.358 142.727  0.00  0.00     0.210 HD
ENDBRANCH  20  39
ENDBRANCH   1   3
TORSDOF 11
ENDMDL
MODEL 4
REMARK VINA RESULT:      -8.5      3.437     10.009
REMARK  11 active torsions:
REMARK  status: ('A' for Active; 'I' for Inactive)
REMARK    1  A    between atoms: O_1  and  C_9 
REMARK    2  A    between atoms: O_2  and  C_19 
REMARK    3  A    between atoms: O_3  and  C_26 
REMARK    4  A    between atoms: O_4  and  C_27 
REMARK    5  A    between atoms: O_6  and  C_28 
REMARK    6  A    between atoms: O_7  and  C_32 
REMARK    7  A    between atoms: C_10  and  C_19 
REMARK    8  A    between atoms: C_19  and  C_27 
REMARK    9  A    between atoms: C_27  and  C_30 
REMARK   10  A    between atoms: C_30  and  C_31 
REMARK   11  A    between atoms: C_31  and  C_32 
ROOT
HETATM    1  O   UNK     0     151.165 151.551 143.900  0.00  0.00    -0.384 OA
HETATM    2  H   UNK     0     151.137 151.098 143.039  0.00  0.00     0.211 HD
ENDROOT
BRANCH   1   3
HETATM    3  C   UNK     0     152.241 150.969 144.670  0.00  0.00     0.089 C 
HETATM    4  C   UNK     0     151.854 150.962 146.172  0.00  0.00    -0.002 C 
HETATM    5  C   UNK     0     151.771 152.484 146.457  0.00  0.00     0.034 C 
HETATM    6  C   UNK     0     150.512 150.225 146.329  0.00  0.00     0.014 C 
HETATM    7  C   UNK     0     152.927 150.289 147.070  0.00  0.00     0.019 C 
HETATM    8  C   UNK     0     152.964 153.071 145.668  0.00  0.00     0.012 C 
HETATM    9  C   UNK     0     153.379 152.001 144.633  0.00  0.00     0.044 C 
HETATM   10  C   UNK     0     150.611 148.782 145.807  0.00  0.00     0.011 C 
HETATM   11  C   UNK     0     151.219 148.634 144.378  0.00  0.00     0.027 C 
HETATM   12  C   UNK     0     151.514 147.129 144.003  0.00  0.00    -0.023 C 
HETATM   13  C   UNK     0     152.416 149.566 144.131  0.00  0.00    -0.037 C 
HETATM   14  C   UNK     0     152.296 147.057 142.662  0.00  0.00     0.071 C 
HETATM   15  C   UNK     0     150.201 146.308 143.852  0.00  0.00     0.044 C 
HETATM   16  C   UNK     0     152.365 146.424 145.095  0.00  0.00     0.016 C 
HETATM   17  C   UNK     0     151.454 147.453 141.436  0.00  0.00     0.047 C 
HETATM   18  C   UNK     0     153.548 147.911 142.711  0.00  0.00     0.154 C 
HETATM   19  C   UNK     0     150.177 146.620 141.336  0.00  0.00     0.147 C 
HETATM   20  C   UNK     0     149.366 146.704 142.630  0.00  0.00     0.147 C 
HETATM   21  O   UNK     0     154.580 147.581 142.127  0.00  0.00    -0.293 OA
HETATM   22  C   UNK     0     153.493 149.213 143.413  0.00  0.00     0.057 C 
BRANCH   5  23
HETATM   23  C   UNK     0     151.768 152.903 147.922  0.00  0.00     0.084 C 
HETATM   24  C   UNK     0     151.071 154.265 148.072  0.00  0.00     0.049 C 
BRANCH  23  25
HETATM   25  O   UNK     0     151.003 151.946 148.666  0.00  0.00    -0.387 OA
HETATM   26  H   UNK     0     150.130 152.324 148.860  0.00  0.00     0.210 HD
ENDBRANCH  23  25
BRANCH  23  27
HETATM   27  C   UNK     0     153.200 152.951 148.522  0.00  0.00     0.152 C 
BRANCH  27  28
HETATM   28  O   UNK     0     153.353 151.899 149.481  0.00  0.00    -0.393 OA
HETATM   29  H   UNK     0     152.553 151.894 150.037  0.00  0.00     0.210 HD
ENDBRANCH  27  28
BRANCH  27  30
HETATM   30  C   UNK     0     153.555 154.285 149.205  0.00  0.00     0.037 C 
BRANCH  30  31
HETATM   31  C   UNK     0     154.876 154.197 149.993  0.00  0.00     0.040 C 
BRANCH  31  32
HETATM   32  C   UNK     0     154.702 154.071 151.521  0.00  0.00     0.051 C 
HETATM   33  C   UNK     0     155.751 154.936 152.229  0.00  0.00     0.045 C 
HETATM   34  C   UNK     0     153.300 154.467 151.987  0.00  0.00     0.045 C 
BRANCH  32  35
HETATM   35  O   UNK     0     154.935 152.710 151.889  0.00  0.00    -0.391 OA
HETATM   36  H   UNK     0     154.197 152.423 152.454  0.00  0.00     0.210 HD
ENDBRANCH  32  35
ENDBRANCH  31  32
ENDBRANCH  30  31
ENDBRANCH  27  30
ENDBRANCH  23  27
ENDBRANCH   5  23
BRANCH  19  37
HETATM   37  O   UNK     0     150.524 145.257 141.085  0.00  0.00    -0.393 OA
HETATM   38  H   UNK     0     151.064 144.950 141.833  0.00  0.00     0.210 HD
ENDBRANCH  19  37
BRANCH  20  39
HETATM   39  O   UNK     0     148.234 145.843 142.524  0.00  0.00    -0.393 OA
HETATM   40  H   UNK     0     147.537 146.332 142.054  0.00  0.00     0.210 HD
ENDBRANCH  20  39
ENDBRANCH   1   3
TORSDOF 11
ENDMDL
MODEL 5
REMARK VINA RESULT:      -8.5      1.904      3.055
REMARK  11 active torsions:
REMARK  status: ('A' for Active; 'I' for Inactive)
REMARK    1  A    between atoms: O_1  and  C_9 
REMARK    2  A    between atoms: O_2  and  C_19 
REMARK    3  A    between atoms: O_3  and  C_26 
REMARK    4  A    between atoms: O_4  and  C_27 
REMARK    5  A    between atoms: O_6  and  C_28 
REMARK    6  A    between atoms: O_7  and  C_32 
REMARK    7  A    between atoms: C_10  and  C_19 
REMARK    8  A    between atoms: C_19  and  C_27 
REMARK    9  A    between atoms: C_27  and  C_30 
REMARK   10  A    between atoms: C_30  and  C_31 
REMARK   11  A    between atoms: C_31  and  C_32 
ROOT
HETATM    1  O   UNK     0     149.058 147.959 144.795  0.00  0.00    -0.384 OA
HETATM    2  H   UNK     0     148.161 147.981 144.419  0.00  0.00     0.211 HD
ENDROOT
BRANCH   1   3
HETATM    3  C   UNK     0     149.977 147.629 143.729  0.00  0.00     0.089 C 
HETATM    4  C   UNK     0     149.427 148.180 142.387  0.00  0.00    -0.002 C 
HETATM    5  C   UNK     0     148.132 147.342 142.239  0.00  0.00     0.034 C 
HETATM    6  C   UNK     0     149.177 149.691 142.543  0.00  0.00     0.014 C 
HETATM    7  C   UNK     0     150.387 147.930 141.192  0.00  0.00     0.019 C 
HETATM    8  C   UNK     0     148.549 145.933 142.720  0.00  0.00     0.012 C 
HETATM    9  C   UNK     0     149.851 146.111 143.532  0.00  0.00     0.044 C 
HETATM   10  C   UNK     0     150.473 150.428 142.920  0.00  0.00     0.011 C 
HETATM   11  C   UNK     0     151.257 149.818 144.123  0.00  0.00     0.027 C 
HETATM   12  C   UNK     0     152.685 150.469 144.302  0.00  0.00    -0.023 C 
HETATM   13  C   UNK     0     151.290 148.282 144.105  0.00  0.00    -0.037 C 
HETATM   14  C   UNK     0     153.493 149.693 145.379  0.00  0.00     0.071 C 
HETATM   15  C   UNK     0     152.583 151.958 144.740  0.00  0.00     0.044 C 
HETATM   16  C   UNK     0     153.496 150.441 142.978  0.00  0.00     0.016 C 
HETATM   17  C   UNK     0     152.956 149.885 146.808  0.00  0.00     0.047 C 
HETATM   18  C   UNK     0     153.554 148.212 145.057  0.00  0.00     0.154 C 
HETATM   19  C   UNK     0     152.875 151.363 147.188  0.00  0.00     0.147 C 
HETATM   20  C   UNK     0     152.051 152.145 146.165  0.00  0.00     0.147 C 
HETATM   21  O   UNK     0     154.545 147.533 145.322  0.00  0.00    -0.293 OA
HETATM   22  C   UNK     0     152.355 147.559 144.485  0.00  0.00     0.057 C 
BRANCH   5  23
HETATM   23  C   UNK     0     147.484 147.327 140.860  0.00  0.00     0.084 C 
HETATM   24  C   UNK     0     146.577 148.557 140.697  0.00  0.00     0.049 C 
BRANCH  23  25
HETATM   25  O   UNK     0     148.519 147.425 139.872  0.00  0.00    -0.387 OA
HETATM   26  H   UNK     0     148.615 146.565 139.430  0.00  0.00     0.210 HD
ENDBRANCH  23  25
BRANCH  23  27
HETATM   27  C   UNK     0     146.688 146.019 140.599  0.00  0.00     0.152 C 
BRANCH  27  28
HETATM   28  O   UNK     0     146.731 145.702 139.204  0.00  0.00    -0.393 OA
HETATM   29  H   UNK     0     147.287 144.909 139.103  0.00  0.00     0.210 HD
ENDBRANCH  27  28
BRANCH  27  30
HETATM   30  C   UNK     0     145.212 146.079 141.037  0.00  0.00     0.037 C 
BRANCH  30  31
HETATM   31  C   UNK     0     144.926 145.149 142.231  0.00  0.00     0.040 C 
BRANCH  31  32
HETATM   32  C   UNK     0     144.061 143.918 141.890  0.00  0.00     0.051 C 
HETATM   33  C   UNK     0     144.846 142.639 142.198  0.00  0.00     0.045 C 
HETATM   34  C   UNK     0     142.730 143.908 142.646  0.00  0.00     0.045 C 
BRANCH  32  35
HETATM   35  O   UNK     0     143.785 143.937 140.488  0.00  0.00    -0.391 OA
HETATM   36  H   UNK     0     142.902 144.322 140.362  0.00  0.00     0.210 HD
ENDBRANCH  32  35
ENDBRANCH  31  32
ENDBRANCH  30  31
ENDBRANCH  27  30
ENDBRANCH  23  27
ENDBRANCH   5  23
BRANCH  19  37
HETATM   37  O   UNK     0     154.195 151.905 147.244  0.00  0.00    -0.393 OA
HETATM   38  H   UNK     0     154.559 151.702 148.122  0.00  0.00     0.210 HD
ENDBRANCH  19  37
BRANCH  20  39
HETATM   39  O   UNK     0     152.078 153.529 146.508  0.00  0.00    -0.393 OA
HETATM   40  H   UNK     0     151.363 153.967 146.015  0.00  0.00     0.210 HD
ENDBRANCH  20  39
ENDBRANCH   1   3
TORSDOF 11
ENDMDL
MODEL 6
REMARK VINA RESULT:      -8.4      2.300      4.312
REMARK  11 active torsions:
REMARK  status: ('A' for Active; 'I' for Inactive)
REMARK    1  A    between atoms: O_1  and  C_9 
REMARK    2  A    between atoms: O_2  and  C_19 
REMARK    3  A    between atoms: O_3  and  C_26 
REMARK    4  A    between atoms: O_4  and  C_27 
REMARK    5  A    between atoms: O_6  and  C_28 
REMARK    6  A    between atoms: O_7  and  C_32 
REMARK    7  A    between atoms: C_10  and  C_19 
REMARK    8  A    between atoms: C_19  and  C_27 
REMARK    9  A    between atoms: C_27  and  C_30 
REMARK   10  A    between atoms: C_30  and  C_31 
REMARK   11  A    between atoms: C_31  and  C_32 
ROOT
HETATM    1  O   UNK     0     151.253 146.608 145.391  0.00  0.00    -0.384 OA
HETATM    2  H   UNK     0     151.920 146.849 146.058  0.00  0.00     0.211 HD
ENDROOT
BRANCH   1   3
HETATM    3  C   UNK     0     151.798 146.922 144.089  0.00  0.00     0.089 C 
HETATM    4  C   UNK     0     150.834 146.403 142.990  0.00  0.00    -0.002 C 
HETATM    5  C   UNK     0     150.913 144.874 143.235  0.00  0.00     0.034 C 
HETATM    6  C   UNK     0     149.438 147.003 143.239  0.00  0.00     0.014 C 
HETATM    7  C   UNK     0     151.307 146.758 141.554  0.00  0.00     0.019 C 
HETATM    8  C   UNK     0     152.408 144.628 143.543  0.00  0.00     0.012 C 
HETATM    9  C   UNK     0     153.013 145.998 143.918  0.00  0.00     0.044 C 
HETATM   10  C   UNK     0     149.486 148.539 143.210  0.00  0.00     0.011 C 
HETATM   11  C   UNK     0     150.589 149.186 144.104  0.00  0.00     0.027 C 
HETATM   12  C   UNK     0     150.740 150.736 143.845  0.00  0.00    -0.023 C 
HETATM   13  C   UNK     0     151.926 148.430 144.054  0.00  0.00    -0.037 C 
HETATM   14  C   UNK     0     151.977 151.286 144.609  0.00  0.00     0.071 C 
HETATM   15  C   UNK     0     149.482 151.520 144.316  0.00  0.00     0.044 C 
HETATM   16  C   UNK     0     150.929 151.048 142.336  0.00  0.00     0.016 C 
HETATM   17  C   UNK     0     151.795 151.310 146.137  0.00  0.00     0.047 C 
HETATM   18  C   UNK     0     153.229 150.503 144.261  0.00  0.00     0.154 C 
HETATM   19  C   UNK     0     150.547 152.089 146.546  0.00  0.00     0.147 C 
HETATM   20  C   UNK     0     149.306 151.544 145.838  0.00  0.00     0.147 C 
HETATM   21  O   UNK     0     154.332 151.043 144.198  0.00  0.00    -0.293 OA
HETATM   22  C   UNK     0     153.122 149.038 144.076  0.00  0.00     0.057 C 
BRANCH   5  23
HETATM   23  C   UNK     0     150.384 143.978 142.122  0.00  0.00     0.084 C 
HETATM   24  C   UNK     0     150.904 144.475 140.762  0.00  0.00     0.049 C 
BRANCH  23  25
HETATM   25  O   UNK     0     150.901 142.656 142.320  0.00  0.00    -0.387 OA
HETATM   26  H   UNK     0     150.568 142.312 143.166  0.00  0.00     0.210 HD
ENDBRANCH  23  25
BRANCH  23  27
HETATM   27  C   UNK     0     148.833 143.897 142.120  0.00  0.00     0.152 C 
BRANCH  27  28
HETATM   28  O   UNK     0     148.425 142.526 142.073  0.00  0.00    -0.393 OA
HETATM   29  H   UNK     0     149.130 141.999 142.488  0.00  0.00     0.210 HD
ENDBRANCH  27  28
BRANCH  27  30
HETATM   30  C   UNK     0     148.162 144.643 140.950  0.00  0.00     0.037 C 
BRANCH  30  31
HETATM   31  C   UNK     0     146.791 145.222 141.345  0.00  0.00     0.040 C 
BRANCH  31  32
HETATM   32  C   UNK     0     146.196 146.212 140.323  0.00  0.00     0.051 C 
HETATM   33  C   UNK     0     144.686 145.980 140.203  0.00  0.00     0.045 C 
HETATM   34  C   UNK     0     146.471 147.672 140.690  0.00  0.00     0.045 C 
BRANCH  32  35
HETATM   35  O   UNK     0     146.782 145.948 139.047  0.00  0.00    -0.391 OA
HETATM   36  H   UNK     0     147.118 145.036 139.056  0.00  0.00     0.210 HD
ENDBRANCH  32  35
ENDBRANCH  31  32
ENDBRANCH  30  31
ENDBRANCH  27  30
ENDBRANCH  23  27
ENDBRANCH   5  23
BRANCH  19  37
HETATM   37  O   UNK     0     150.719 153.465 146.201  0.00  0.00    -0.393 OA
HETATM   38  H   UNK     0     149.862 153.798 145.886  0.00  0.00     0.210 HD
ENDBRANCH  19  37
BRANCH  20  39
HETATM   39  O   UNK     0     148.184 152.356 146.177  0.00  0.00    -0.393 OA
HETATM   40  H   UNK     0     148.431 152.887 146.954  0.00  0.00     0.210 HD
ENDBRANCH  20  39
ENDBRANCH   1   3
TORSDOF 11
ENDMDL
MODEL 7
REMARK VINA RESULT:      -8.4      8.154     11.175
REMARK  11 active torsions:
REMARK  status: ('A' for Active; 'I' for Inactive)
REMARK    1  A    between atoms: O_1  and  C_9 
REMARK    2  A    between atoms: O_2  and  C_19 
REMARK    3  A    between atoms: O_3  and  C_26 
REMARK    4  A    between atoms: O_4  and  C_27 
REMARK    5  A    between atoms: O_6  and  C_28 
REMARK    6  A    between atoms: O_7  and  C_32 
REMARK    7  A    between atoms: C_10  and  C_19 
REMARK    8  A    between atoms: C_19  and  C_27 
REMARK    9  A    between atoms: C_27  and  C_30 
REMARK   10  A    between atoms: C_30  and  C_31 
REMARK   11  A    between atoms: C_31  and  C_32 
ROOT
HETATM    1  O   UNK     0     151.801 153.090 148.623  0.00  0.00    -0.384 OA
HETATM    2  H   UNK     0     152.760 152.928 148.596  0.00  0.00     0.211 HD
ENDROOT
BRANCH   1   3
HETATM    3  C   UNK     0     151.569 154.445 148.176  0.00  0.00     0.089 C 
HETATM    4  C   UNK     0     150.102 154.844 148.480  0.00  0.00    -0.002 C 
HETATM    5  C   UNK     0     149.337 153.854 147.564  0.00  0.00     0.034 C 
HETATM    6  C   UNK     0     149.838 154.634 149.982  0.00  0.00     0.014 C 
HETATM    7  C   UNK     0     149.782 156.314 148.094  0.00  0.00     0.019 C 
HETATM    8  C   UNK     0     150.185 153.820 146.272  0.00  0.00     0.012 C 
HETATM    9  C   UNK     0     151.576 154.380 146.641  0.00  0.00     0.044 C 
HETATM   10  C   UNK     0     150.798 155.480 150.834  0.00  0.00     0.011 C 
HETATM   11  C   UNK     0     152.307 155.350 150.461  0.00  0.00     0.027 C 
HETATM   12  C   UNK     0     153.204 156.416 151.204  0.00  0.00    -0.023 C 
HETATM   13  C   UNK     0     152.552 155.302 148.945  0.00  0.00    -0.037 C 
HETATM   14  C   UNK     0     154.656 156.371 150.649  0.00  0.00     0.071 C 
HETATM   15  C   UNK     0     153.254 156.154 152.737  0.00  0.00     0.044 C 
HETATM   16  C   UNK     0     152.659 157.857 151.009  0.00  0.00     0.016 C 
HETATM   17  C   UNK     0     155.422 155.094 151.036  0.00  0.00     0.047 C 
HETATM   18  C   UNK     0     154.670 156.531 149.141  0.00  0.00     0.154 C 
HETATM   19  C   UNK     0     155.440 154.882 152.549  0.00  0.00     0.147 C 
HETATM   20  C   UNK     0     154.021 154.883 153.118  0.00  0.00     0.147 C 
HETATM   21  O   UNK     0     155.580 157.125 148.563  0.00  0.00    -0.293 OA
HETATM   22  C   UNK     0     153.603 155.883 148.346  0.00  0.00     0.057 C 
BRANCH   5  23
HETATM   23  C   UNK     0     147.870 154.166 147.300  0.00  0.00     0.084 C 
HETATM   24  C   UNK     0     147.756 155.317 146.287  0.00  0.00     0.049 C 
BRANCH  23  25
HETATM   25  O   UNK     0     147.261 153.011 146.706  0.00  0.00    -0.387 OA
HETATM   26  H   UNK     0     146.328 152.975 146.973  0.00  0.00     0.210 HD
ENDBRANCH  23  25
BRANCH  23  27
HETATM   27  C   UNK     0     147.097 154.504 148.604  0.00  0.00     0.152 C 
BRANCH  27  28
HETATM   28  O   UNK     0     146.292 153.384 148.988  0.00  0.00    -0.393 OA
HETATM   29  H   UNK     0     146.895 152.680 149.284  0.00  0.00     0.210 HD
ENDBRANCH  27  28
BRANCH  27  30
HETATM   30  C   UNK     0     146.185 155.741 148.496  0.00  0.00     0.037 C 
BRANCH  30  31
HETATM   31  C   UNK     0     146.308 156.657 149.729  0.00  0.00     0.040 C 
BRANCH  31  32
HETATM   32  C   UNK     0     146.634 158.129 149.402  0.00  0.00     0.051 C 
HETATM   33  C   UNK     0     145.434 159.012 149.760  0.00  0.00     0.045 C 
HETATM   34  C   UNK     0     147.884 158.629 150.129  0.00  0.00     0.045 C 
BRANCH  32  35
HETATM   35  O   UNK     0     146.855 158.239 147.994  0.00  0.00    -0.391 OA
HETATM   36  H   UNK     0     146.694 157.367 147.597  0.00  0.00     0.210 HD
ENDBRANCH  32  35
ENDBRANCH  31  32
ENDBRANCH  30  31
ENDBRANCH  27  30
ENDBRANCH  23  27
ENDBRANCH   5  23
BRANCH  19  37
HETATM   37  O   UNK     0     156.194 155.931 153.160  0.00  0.00    -0.393 OA
HETATM   38  H   UNK     0     156.087 155.847 154.122  0.00  0.00     0.210 HD
ENDBRANCH  19  37
BRANCH  20  39
HETATM   39  O   UNK     0     154.091 154.774 154.538  0.00  0.00    -0.393 OA
HETATM   40  H   UNK     0     154.452 153.896 154.747  0.00  0.00     0.210 HD
ENDBRANCH  20  39
ENDBRANCH   1   3
TORSDOF 11
ENDMDL
MODEL 8
REMARK VINA RESULT:      -8.3      8.897     12.607
REMARK  11 active torsions:
REMARK  status: ('A' for Active; 'I' for Inactive)
REMARK    1  A    between atoms: O_1  and  C_9 
REMARK    2  A    between atoms: O_2  and  C_19 
REMARK    3  A    between atoms: O_3  and  C_26 
REMARK    4  A    between atoms: O_4  and  C_27 
REMARK    5  A    between atoms: O_6  and  C_28 
REMARK    6  A    between atoms: O_7  and  C_32 
REMARK    7  A    between atoms: C_10  and  C_19 
REMARK    8  A    between atoms: C_19  and  C_27 
REMARK    9  A    between atoms: C_27  and  C_30 
REMARK   10  A    between atoms: C_30  and  C_31 
REMARK   11  A    between atoms: C_31  and  C_32 
ROOT
HETATM    1  O   UNK     0     148.651 154.192 149.848  0.00  0.00    -0.384 OA
HETATM    2  H   UNK     0     148.997 153.283 149.885  0.00  0.00     0.211 HD
ENDROOT
BRANCH   1   3
HETATM    3  C   UNK     0     149.367 154.895 148.808  0.00  0.00     0.089 C 
HETATM    4  C   UNK     0     149.159 156.422 148.981  0.00  0.00    -0.002 C 
HETATM    5  C   UNK     0     147.633 156.536 148.734  0.00  0.00     0.034 C 
HETATM    6  C   UNK     0     149.590 156.817 150.405  0.00  0.00     0.014 C 
HETATM    7  C   UNK     0     149.951 157.263 147.944  0.00  0.00     0.019 C 
HETATM    8  C   UNK     0     147.375 155.552 147.569  0.00  0.00     0.012 C 
HETATM    9  C   UNK     0     148.596 154.608 147.510  0.00  0.00     0.044 C 
HETATM   10  C   UNK     0     151.064 156.459 150.654  0.00  0.00     0.011 C 
HETATM   11  C   UNK     0     151.463 154.996 150.286  0.00  0.00     0.027 C 
HETATM   12  C   UNK     0     153.024 154.768 150.337  0.00  0.00    -0.023 C 
HETATM   13  C   UNK     0     150.820 154.506 148.978  0.00  0.00    -0.037 C 
HETATM   14  C   UNK     0     153.376 153.363 149.772  0.00  0.00     0.071 C 
HETATM   15  C   UNK     0     153.570 154.866 151.790  0.00  0.00     0.044 C 
HETATM   16  C   UNK     0     153.784 155.828 149.495  0.00  0.00     0.016 C 
HETATM   17  C   UNK     0     152.930 152.205 150.682  0.00  0.00     0.047 C 
HETATM   18  C   UNK     0     152.793 153.168 148.385  0.00  0.00     0.154 C 
HETATM   19  C   UNK     0     153.491 152.350 152.096  0.00  0.00     0.147 C 
HETATM   20  C   UNK     0     153.127 153.710 152.693  0.00  0.00     0.147 C 
HETATM   21  O   UNK     0     153.378 152.511 147.525  0.00  0.00    -0.293 OA
HETATM   22  C   UNK     0     151.449 153.715 148.096  0.00  0.00     0.057 C 
BRANCH   5  23
HETATM   23  C   UNK     0     147.089 157.932 148.458  0.00  0.00     0.084 C 
HETATM   24  C   UNK     0     147.945 158.621 147.381  0.00  0.00     0.049 C 
BRANCH  23  25
HETATM   25  O   UNK     0     145.761 157.806 147.933  0.00  0.00    -0.387 OA
HETATM   26  H   UNK     0     145.194 158.477 148.348  0.00  0.00     0.210 HD
ENDBRANCH  23  25
BRANCH  23  27
HETATM   27  C   UNK     0     147.022 158.801 149.743  0.00  0.00     0.152 C 
BRANCH  27  28
HETATM   28  O   UNK     0     145.729 159.407 149.845  0.00  0.00    -0.393 OA
HETATM   29  H   UNK     0     145.601 159.663 150.775  0.00  0.00     0.210 HD
ENDBRANCH  27  28
BRANCH  27  30
HETATM   30  C   UNK     0     148.086 159.913 149.812  0.00  0.00     0.037 C 
BRANCH  30  31
HETATM   31  C   UNK     0     148.590 160.143 151.249  0.00  0.00     0.040 C 
BRANCH  31  32
HETATM   32  C   UNK     0     149.970 160.826 151.341  0.00  0.00     0.051 C 
HETATM   33  C   UNK     0     150.939 159.922 152.111  0.00  0.00     0.045 C 
HETATM   34  C   UNK     0     150.552 161.163 149.967  0.00  0.00     0.045 C 
BRANCH  32  35
HETATM   35  O   UNK     0     149.822 162.040 152.080  0.00  0.00    -0.391 OA
HETATM   36  H   UNK     0     148.954 162.020 152.519  0.00  0.00     0.210 HD
ENDBRANCH  32  35
ENDBRANCH  31  32
ENDBRANCH  30  31
ENDBRANCH  27  30
ENDBRANCH  23  27
ENDBRANCH   5  23
BRANCH  19  37
HETATM   37  O   UNK     0     154.913 152.221 152.051  0.00  0.00    -0.393 OA
HETATM   38  H   UNK     0     155.290 152.931 152.598  0.00  0.00     0.210 HD
ENDBRANCH  19  37
BRANCH  20  39
HETATM   39  O   UNK     0     153.745 153.836 153.971  0.00  0.00    -0.393 OA
HETATM   40  H   UNK     0     153.268 154.529 154.459  0.00  0.00     0.210 HD
ENDBRANCH  20  39
ENDBRANCH   1   3
TORSDOF 11
ENDMDL
MODEL 9
REMARK VINA RESULT:      -8.3      4.801     10.789
REMARK  11 active torsions:
REMARK  status: ('A' for Active; 'I' for Inactive)
REMARK    1  A    between atoms: O_1  and  C_9 
REMARK    2  A    between atoms: O_2  and  C_19 
REMARK    3  A    between atoms: O_3  and  C_26 
REMARK    4  A    between atoms: O_4  and  C_27 
REMARK    5  A    between atoms: O_6  and  C_28 
REMARK    6  A    between atoms: O_7  and  C_32 
REMARK    7  A    between atoms: C_10  and  C_19 
REMARK    8  A    between atoms: C_19  and  C_27 
REMARK    9  A    between atoms: C_27  and  C_30 
REMARK   10  A    between atoms: C_30  and  C_31 
REMARK   11  A    between atoms: C_31  and  C_32 
ROOT
HETATM    1  O   UNK     0     150.307 150.845 147.431  0.00  0.00    -0.384 OA
HETATM    2  H   UNK     0     150.943 150.506 148.085  0.00  0.00     0.211 HD
ENDROOT
BRANCH   1   3
HETATM    3  C   UNK     0     150.939 151.937 146.726  0.00  0.00     0.089 C 
HETATM    4  C   UNK     0     152.131 152.471 147.563  0.00  0.00    -0.002 C 
HETATM    5  C   UNK     0     151.387 153.015 148.810  0.00  0.00     0.034 C 
HETATM    6  C   UNK     0     153.080 151.297 147.867  0.00  0.00     0.014 C 
HETATM    7  C   UNK     0     152.914 153.605 146.848  0.00  0.00     0.019 C 
HETATM    8  C   UNK     0     150.119 153.675 148.222  0.00  0.00     0.012 C 
HETATM    9  C   UNK     0     149.943 153.105 146.798  0.00  0.00     0.044 C 
HETATM   10  C   UNK     0     153.598 150.658 146.568  0.00  0.00     0.011 C 
HETATM   11  C   UNK     0     152.498 150.290 145.525  0.00  0.00     0.027 C 
HETATM   12  C   UNK     0     153.109 149.865 144.132  0.00  0.00    -0.023 C 
HETATM   13  C   UNK     0     151.399 151.358 145.405  0.00  0.00    -0.037 C 
HETATM   14  C   UNK     0     151.976 149.705 143.080  0.00  0.00     0.071 C 
HETATM   15  C   UNK     0     153.882 148.520 144.232  0.00  0.00     0.044 C 
HETATM   16  C   UNK     0     154.112 150.925 143.601  0.00  0.00     0.016 C 
HETATM   17  C   UNK     0     151.071 148.486 143.332  0.00  0.00     0.047 C 
HETATM   18  C   UNK     0     151.124 150.957 142.997  0.00  0.00     0.154 C 
HETATM   19  C   UNK     0     151.879 147.192 143.424  0.00  0.00     0.147 C 
HETATM   20  C   UNK     0     152.978 147.308 144.481  0.00  0.00     0.147 C 
HETATM   21  O   UNK     0     150.633 151.335 141.934  0.00  0.00    -0.293 OA
HETATM   22  C   UNK     0     150.814 151.690 144.245  0.00  0.00     0.057 C 
BRANCH   5  23
HETATM   23  C   UNK     0     152.175 153.952 149.718  0.00  0.00     0.084 C 
HETATM   24  C   UNK     0     152.032 155.400 149.221  0.00  0.00     0.049 C 
BRANCH  23  25
HETATM   25  O   UNK     0     151.607 153.893 151.033  0.00  0.00    -0.387 OA
HETATM   26  H   UNK     0     150.928 153.198 151.051  0.00  0.00     0.210 HD
ENDBRANCH  23  25
BRANCH  23  27
HETATM   27  C   UNK     0     153.672 153.551 149.818  0.00  0.00     0.152 C 
BRANCH  27  28
HETATM   28  O   UNK     0     153.883 152.783 151.007  0.00  0.00    -0.393 OA
HETATM   29  H   UNK     0     154.250 153.383 151.680  0.00  0.00     0.210 HD
ENDBRANCH  27  28
BRANCH  27  30
HETATM   30  C   UNK     0     154.646 154.744 149.833  0.00  0.00     0.037 C 
BRANCH  30  31
HETATM   31  C   UNK     0     155.374 154.879 151.184  0.00  0.00     0.040 C 
BRANCH  31  32
HETATM   32  C   UNK     0     155.009 156.148 151.983  0.00  0.00     0.051 C 
HETATM   33  C   UNK     0     154.709 157.296 151.012  0.00  0.00     0.045 C 
HETATM   34  C   UNK     0     153.817 155.931 152.917  0.00  0.00     0.045 C 
BRANCH  32  35
HETATM   35  O   UNK     0     156.140 156.524 152.770  0.00  0.00    -0.391 OA
HETATM   36  H   UNK     0     156.019 157.448 153.045  0.00  0.00     0.210 HD
ENDBRANCH  32  35
ENDBRANCH  31  32
ENDBRANCH  30  31
ENDBRANCH  27  30
ENDBRANCH  23  27
ENDBRANCH   5  23
BRANCH  19  37
HETATM   37  O   UNK     0     152.473 146.920 142.154  0.00  0.00    -0.393 OA
HETATM   38  H   UNK     0     153.437 146.967 142.265  0.00  0.00     0.210 HD
ENDBRANCH  19  37
BRANCH  20  39
HETATM   39  O   UNK     0     153.761 146.116 144.468  0.00  0.00    -0.393 OA
HETATM   40  H   UNK     0     154.368 146.174 143.710  0.00  0.00     0.210 HD
ENDBRANCH  20  39
ENDBRANCH   1   3
TORSDOF 11
ENDMDL
MODEL 10
REMARK VINA RESULT:      -8.2      2.621      9.251
REMARK  11 active torsions:
REMARK  status: ('A' for Active; 'I' for Inactive)
REMARK    1  A    between atoms: O_1  and  C_9 
REMARK    2  A    between atoms: O_2  and  C_19 
REMARK    3  A    between atoms: O_3  and  C_26 
REMARK    4  A    between atoms: O_4  and  C_27 
REMARK    5  A    between atoms: O_6  and  C_28 
REMARK    6  A    between atoms: O_7  and  C_32 
REMARK    7  A    between atoms: C_10  and  C_19 
REMARK    8  A    between atoms: C_19  and  C_27 
REMARK    9  A    between atoms: C_27  and  C_30 
REMARK   10  A    between atoms: C_30  and  C_31 
REMARK   11  A    between atoms: C_31  and  C_32 
ROOT
HETATM    1  O   UNK     0     151.703 150.877 142.102  0.00  0.00    -0.384 OA
HETATM    2  H   UNK     0     151.915 150.472 141.243  0.00  0.00     0.211 HD
ENDROOT
BRANCH   1   3
HETATM    3  C   UNK     0     152.051 149.928 143.136  0.00  0.00     0.089 C 
HETATM    4  C   UNK     0     151.692 150.524 144.523  0.00  0.00    -0.002 C 
HETATM    5  C   UNK     0     152.660 151.733 144.577  0.00  0.00     0.034 C 
HETATM    6  C   UNK     0     150.204 150.916 144.518  0.00  0.00     0.014 C 
HETATM    7  C   UNK     0     151.969 149.541 145.693  0.00  0.00     0.019 C 
HETATM    8  C   UNK     0     153.967 151.186 143.959  0.00  0.00     0.012 C 
HETATM    9  C   UNK     0     153.587 149.909 143.178  0.00  0.00     0.044 C 
HETATM   10  C   UNK     0     149.313 149.697 144.226  0.00  0.00     0.011 C 
HETATM   11  C   UNK     0     149.722 148.862 142.973  0.00  0.00     0.027 C 
HETATM   12  C   UNK     0     148.924 147.503 142.870  0.00  0.00    -0.023 C 
HETATM   13  C   UNK     0     151.242 148.684 142.836  0.00  0.00    -0.037 C 
HETATM   14  C   UNK     0     149.508 146.628 141.726  0.00  0.00     0.071 C 
HETATM   15  C   UNK     0     147.415 147.746 142.583  0.00  0.00     0.044 C 
HETATM   16  C   UNK     0     149.009 146.689 144.190  0.00  0.00     0.016 C 
HETATM   17  C   UNK     0     149.225 147.185 140.320  0.00  0.00     0.047 C 
HETATM   18  C   UNK     0     151.002 146.426 141.898  0.00  0.00     0.154 C 
HETATM   19  C   UNK     0     147.731 147.407 140.090  0.00  0.00     0.147 C 
HETATM   20  C   UNK     0     147.136 148.298 141.181  0.00  0.00     0.147 C 
HETATM   21  O   UNK     0     151.554 145.376 141.573  0.00  0.00    -0.293 OA
HETATM   22  C   UNK     0     151.819 147.557 142.393  0.00  0.00     0.057 C 
BRANCH   5  23
HETATM   23  C   UNK     0     152.875 152.373 145.943  0.00  0.00     0.084 C 
HETATM   24  C   UNK     0     153.939 151.585 146.726  0.00  0.00     0.049 C 
BRANCH  23  25
HETATM   25  O   UNK     0     153.383 153.699 145.748  0.00  0.00    -0.387 OA
HETATM   26  H   UNK     0     153.554 154.102 146.616  0.00  0.00     0.210 HD
ENDBRANCH  23  25
BRANCH  23  27
HETATM   27  C   UNK     0     151.557 152.474 146.758  0.00  0.00     0.152 C 
BRANCH  27  28
HETATM   28  O   UNK     0     151.028 153.800 146.653  0.00  0.00    -0.393 OA
HETATM   29  H   UNK     0     150.947 154.006 145.705  0.00  0.00     0.210 HD
ENDBRANCH  27  28
BRANCH  27  30
HETATM   30  C   UNK     0     151.709 152.131 148.253  0.00  0.00     0.037 C 
BRANCH  30  31
HETATM   31  C   UNK     0     151.285 153.301 149.160  0.00  0.00     0.040 C 
BRANCH  31  32
HETATM   32  C   UNK     0     151.623 153.108 150.653  0.00  0.00     0.051 C 
HETATM   33  C   UNK     0     152.823 152.164 150.789  0.00  0.00     0.045 C 
HETATM   34  C   UNK     0     151.917 154.430 151.364  0.00  0.00     0.045 C 
BRANCH  32  35
HETATM   35  O   UNK     0     150.504 152.489 151.291  0.00  0.00    -0.391 OA
HETATM   36  H   UNK     0     150.729 152.355 152.227  0.00  0.00     0.210 HD
ENDBRANCH  32  35
ENDBRANCH  31  32
ENDBRANCH  30  31
ENDBRANCH  27  30
ENDBRANCH  23  27
ENDBRANCH   5  23
BRANCH  19  37
HETATM   37  O   UNK     0     147.063 146.144 140.098  0.00  0.00    -0.393 OA
HETATM   38  H   UNK     0     146.188 146.277 140.500  0.00  0.00     0.210 HD
ENDBRANCH  19  37
BRANCH  20  39
HETATM   39  O   UNK     0     145.729 148.403 140.979  0.00  0.00    -0.393 OA
HETATM   40  H   UNK     0     145.492 147.800 140.253  0.00  0.00     0.210 HD
ENDBRANCH  20  39
ENDBRANCH   1   3
TORSDOF 11
ENDMDL
