REMARK  Name = 5280343
REMARK                            x       y       z     vdW  Elec       q    Type
REMARK                         _______ _______ _______ _____ _____    ______ ____
ROOT
ATOM      1  O   LIG    1       -0.326  -0.866  -0.125  0.00  0.00    -0.451 OA
ATOM      2  C   LIG    1        0.442   0.288  -0.110  0.00  0.00    +0.181 A 
ATOM      3  C   LIG    1       -0.058   1.536  -0.049  0.00  0.00    +0.208 A 
ATOM      4  C   LIG    1       -1.528   1.715   0.026  0.00  0.00    +0.238 A 
ATOM      5  C   LIG    1       -2.336   0.486   0.023  0.00  0.00    +0.109 A 
ATOM      6  C   LIG    1       -3.730   0.547   0.094  0.00  0.00    +0.135 A 
ATOM      7  C   LIG    1       -4.472  -0.634   0.088  0.00  0.00    +0.091 A 
ATOM      8  C   LIG    1       -3.826  -1.869   0.012  0.00  0.00    +0.124 A 
ATOM      9  C   LIG    1       -2.434  -1.926  -0.059  0.00  0.00    +0.092 A 
ATOM     14  O   LIG    1       -2.041   2.825   0.085  0.00  0.00    -0.283 OA
ATOM     27  C   LIG    1       -1.689  -0.746  -0.052  0.00  0.00    +0.147 A 
ENDROOT
BRANCH   2  17
ATOM     17  C   LIG    1        1.888   0.018  -0.193  0.00  0.00    +0.025 A 
ATOM     18  C   LIG    1        2.509  -0.077  -1.439  0.00  0.00    +0.015 A 
ATOM     19  C   LIG    1        3.878  -0.333  -1.518  0.00  0.00    +0.050 A 
ATOM     20  C   LIG    1        4.626  -0.494  -0.352  0.00  0.00    +0.158 A 
ATOM     21  C   LIG    1        4.005  -0.400   0.894  0.00  0.00    +0.159 A 
ATOM     26  C   LIG    1        2.636  -0.143   0.973  0.00  0.00    +0.060 A 
BRANCH  21  22
ATOM     22  O   LIG    1        4.726  -0.554   2.039  0.00  0.00    -0.503 OA
ATOM     23  H   LIG    1        5.664  -0.375   1.863  0.00  0.00    +0.292 HD
ENDBRANCH  21  22
BRANCH  20  24
ATOM     24  O   LIG    1        5.962  -0.746  -0.442  0.00  0.00    -0.503 OA
ATOM     25  H   LIG    1        6.271  -1.170   0.374  0.00  0.00    +0.292 HD
ENDBRANCH  20  24
ENDBRANCH   2  17
BRANCH   8  10
ATOM     10  O   LIG    1       -4.554  -3.019   0.006  0.00  0.00    -0.507 OA
ATOM     11  H   LIG    1       -5.499  -2.794   0.060  0.00  0.00    +0.292 HD
ENDBRANCH   8  10
BRANCH   6  12
ATOM     12  O   LIG    1       -4.411   1.725   0.169  0.00  0.00    -0.506 OA
ATOM     13  H   LIG    1       -3.796   2.474   0.170  0.00  0.00    +0.292 HD
ENDBRANCH   6  12
BRANCH   3  15
ATOM     15  O   LIG    1        0.732   2.665  -0.069  0.00  0.00    -0.501 OA
ATOM     16  H   LIG    1        1.668   2.412  -0.123  0.00  0.00    +0.292 HD
ENDBRANCH   3  15
TORSDOF 6
