REMARK VINA RESULT:      -8.0      2.749      6.503
REMARK  16 active torsions:
REMARK  status: ('A' for Active; 'I' for Inactive)
REMARK    1  A    between atoms: O_2  and  C_22 
REMARK    2  A    between atoms: O_2  and  C_26 
REMARK    3  A    between atoms: O_4  and  C_18 
REMARK    4  A    between atoms: O_5  and  C_19 
REMARK    5  A    between atoms: O_6  and  C_25 
REMARK    6  A    between atoms: O_6  and  C_29 
REMARK    7  A    between atoms: O_7  and  C_20 
REMARK    8  A    between atoms: O_8  and  C_21 
REMARK    9  A    between atoms: O_9  and  C_23 
REMARK   10  A    between atoms: O_10  and  C_24 
REMARK   11  A    between atoms: O_13  and  C_35 
REMARK   12  A    between atoms: O_14  and  C_40 
REMARK   13  A    between atoms: O_15  and  C_41 
REMARK   14  A    between atoms: O_16  and  C_43 
REMARK   15  A    between atoms: C_17  and  C_26 
REMARK   16  A    between atoms: C_30  and  C_33 
ROOT
HETATM    1  O   UNK     0     184.264 185.558 172.964  0.00  0.00    -0.348 OA
HETATM    2  C   UNK     0     184.191 184.511 173.933  0.00  0.00     0.180 C 
HETATM    3  C   UNK     0     184.555 185.055 175.317  0.00  0.00     0.180 C 
HETATM    4  C   UNK     0     185.934 185.714 175.295  0.00  0.00     0.183 C 
HETATM    5  C   UNK     0     186.058 186.703 174.136  0.00  0.00     0.205 C 
HETATM    6  C   UNK     0     185.583 186.081 172.822  0.00  0.00     0.298 C 
ENDROOT
BRANCH   2   7
HETATM    7  C   UNK     0     182.771 183.954 173.901  0.00  0.00     0.205 C 
BRANCH   7   8
HETATM    8  O   UNK     0     182.828 182.557 173.650  0.00  0.00    -0.356 OA
BRANCH   8   9
HETATM    9  C   UNK     0     182.676 182.271 172.263  0.00  0.00     0.291 C 
HETATM   10  O   UNK     0     181.331 181.920 171.923  0.00  0.00    -0.351 OA
HETATM   11  C   UNK     0     180.869 180.710 172.533  0.00  0.00     0.152 C 
HETATM   12  C   UNK     0     181.752 179.519 172.132  0.00  0.00     0.178 C 
HETATM   13  C   UNK     0     179.418 180.517 172.098  0.00  0.00     0.042 C 
HETATM   14  C   UNK     0     183.216 179.819 172.453  0.00  0.00     0.183 C 
HETATM   15  C   UNK     0     183.644 181.161 171.856  0.00  0.00     0.204 C 
BRANCH  12  16
HETATM   16  O   UNK     0     181.368 178.354 172.859  0.00  0.00    -0.390 OA
HETATM   17  H   UNK     0     181.786 177.586 172.434  0.00  0.00     0.210 HD
ENDBRANCH  12  16
BRANCH  14  18
HETATM   18  O   UNK     0     184.034 178.774 171.933  0.00  0.00    -0.390 OA
HETATM   19  H   UNK     0     184.892 179.163 171.686  0.00  0.00     0.210 HD
ENDBRANCH  14  18
BRANCH  15  20
HETATM   20  O   UNK     0     183.640 181.083 170.430  0.00  0.00    -0.388 OA
HETATM   21  H   UNK     0     184.326 180.450 170.155  0.00  0.00     0.210 HD
ENDBRANCH  15  20
ENDBRANCH   8   9
ENDBRANCH   7   8
ENDBRANCH   2   7
BRANCH   6  22
HETATM   22  O   UNK     0     185.592 187.100 171.824  0.00  0.00    -0.311 OA
BRANCH  22  23
HETATM   23  C   UNK     0     186.007 186.612 170.604  0.00  0.00     0.157 A 
HETATM   24  C   UNK     0     185.158 186.331 169.599  0.00  0.00     0.124 A 
HETATM   25  O   UNK     0     185.538 185.808 168.372  0.00  0.00    -0.306 OA
HETATM   26  C   UNK     0     186.870 185.576 168.145  0.00  0.00     0.096 A 
HETATM   27  C   UNK     0     187.854 185.831 169.097  0.00  0.00     0.084 A 
HETATM   28  C   UNK     0     187.222 185.059 166.897  0.00  0.00     0.075 A 
HETATM   29  C   UNK     0     187.456 186.373 170.405  0.00  0.00     0.223 A 
HETATM   30  C   UNK     0     189.198 185.573 168.810  0.00  0.00     0.085 A 
HETATM   31  O   UNK     0     188.276 186.611 171.282  0.00  0.00    -0.284 OA
HETATM   32  C   UNK     0     189.547 185.056 167.561  0.00  0.00     0.074 A 
HETATM   33  C   UNK     0     188.562 184.800 166.607  0.00  0.00     0.071 A 
BRANCH  24  34
HETATM   34  C   UNK     0     183.703 186.531 169.711  0.00  0.00     0.004 A 
HETATM   35  C   UNK     0     182.882 185.479 170.116  0.00  0.00     0.053 A 
HETATM   36  C   UNK     0     181.505 185.669 170.224  0.00  0.00     0.099 A 
HETATM   37  C   UNK     0     180.947 186.911 169.926  0.00  0.00     0.098 A 
HETATM   38  C   UNK     0     181.767 187.964 169.519  0.00  0.00     0.040 A 
HETATM   39  C   UNK     0     183.144 187.774 169.413  0.00  0.00     0.017 A 
BRANCH  36  40
HETATM   40  O   UNK     0     180.713 184.632 170.620  0.00  0.00    -0.358 OA
HETATM   41  H   UNK     0     180.952 183.832 170.124  0.00  0.00     0.217 HD
ENDBRANCH  36  40
BRANCH  37  42
HETATM   42  O   UNK     0     179.603 187.109 170.028  0.00  0.00    -0.358 OA
HETATM   43  H   UNK     0     179.329 187.025 170.954  0.00  0.00     0.217 HD
ENDBRANCH  37  42
ENDBRANCH  24  34
BRANCH  30  44
HETATM   44  O   UNK     0     190.198 185.803 169.704  0.00  0.00    -0.360 OA
HETATM   45  H   UNK     0     190.766 185.016 169.767  0.00  0.00     0.217 HD
ENDBRANCH  30  44
BRANCH  33  46
HETATM   46  O   UNK     0     188.908 184.297 165.391  0.00  0.00    -0.361 OA
HETATM   47  H   UNK     0     189.611 184.849 165.008  0.00  0.00     0.217 HD
ENDBRANCH  33  46
ENDBRANCH  22  23
ENDBRANCH   6  22
BRANCH   3  48
HETATM   48  O   UNK     0     184.559 183.985 176.258  0.00  0.00    -0.390 OA
HETATM   49  H   UNK     0     183.688 183.959 176.688  0.00  0.00     0.210 HD
ENDBRANCH   3  48
BRANCH   5  50
HETATM   50  O   UNK     0     187.424 187.086 173.982  0.00  0.00    -0.388 OA
HETATM   51  H   UNK     0     187.532 187.467 173.095  0.00  0.00     0.210 HD
ENDBRANCH   5  50
BRANCH   4  52
HETATM   52  O   UNK     0     186.112 186.408 176.532  0.00  0.00    -0.390 OA
HETATM   53  H   UNK     0     186.400 185.755 177.193  0.00  0.00     0.210 HD
ENDBRANCH   4  52
TORSDOF 16
