REMARK  Name = 525
REMARK                            x       y       z     vdW  Elec       q    Type
REMARK                         _______ _______ _______ _____ _____    ______ ____
ROOT
ATOM      3  C   LIG    1        0.501  -0.312  -0.367  0.00  0.00    +0.233 C 
ENDROOT
BRANCH   3   1
ATOM      1  O   LIG    1        0.337  -1.612   0.184  0.00  0.00    -0.380 OA
ATOM      2  H   LIG    1        0.943  -2.208  -0.288  0.00  0.00    +0.211 HD
ENDBRANCH   3   1
BRANCH   3   4
ATOM      4  C   LIG    1        1.904   0.163  -0.042  0.00  0.00    +0.334 C 
ATOM      5  O   LIG    1        2.712  -0.459   0.634  0.00  0.00    -0.248 OA
BRANCH   4   6
ATOM      6  O   LIG    1        2.168   1.384  -0.574  0.00  0.00    -0.479 OA
ATOM      7  H   LIG    1        3.073   1.691  -0.352  0.00  0.00    +0.295 HD
ENDBRANCH   4   6
ENDBRANCH   3   4
BRANCH   3   8
ATOM      8  C   LIG    1       -0.547   0.610   0.254  0.00  0.00    +0.163 C 
BRANCH   8   9
ATOM      9  C   LIG    1       -1.954   0.126  -0.009  0.00  0.00    +0.308 C 
ATOM     10  O   LIG    1       -2.271  -0.860  -0.657  0.00  0.00    -0.251 OA
BRANCH   9  11
ATOM     11  O   LIG    1       -2.850   0.962   0.577  0.00  0.00    -0.481 OA
ATOM     12  H   LIG    1       -3.775   0.675   0.418  0.00  0.00    +0.295 HD
ENDBRANCH   9  11
ENDBRANCH   8   9
ENDBRANCH   3   8
TORSDOF 6
