REMARK VINA RESULT:      -8.8      8.997     14.043
REMARK  13 active torsions:
REMARK  status: ('A' for Active; 'I' for Inactive)
REMARK    1  A    between atoms: C_4  and  O_5 
REMARK    2  A    between atoms: C_17  and  O_18 
REMARK    3  A    between atoms: C_30  and  O_31 
REMARK    4  A    between atoms: C_43  and  C_44 
REMARK    5  A    between atoms: O_5  and  C_6 
REMARK    6  A    between atoms: C_6  and  C_8 
REMARK    7  A    between atoms: O_18  and  C_19 
REMARK    8  A    between atoms: C_19  and  C_21 
REMARK    9  A    between atoms: O_31  and  C_32 
REMARK   10  A    between atoms: C_32  and  C_34 
REMARK   11  A    between atoms: C_44  and  O_45 
REMARK   12  A    between atoms: O_45  and  C_46 
REMARK   13  A    between atoms: C_46  and  C_48 
ROOT
ATOM      1  O   LIG     1     182.352 181.520 174.008  0.00  0.00    -0.320 OA
ATOM      2  C   LIG     1     182.972 182.702 174.552  0.00  0.00     0.313 C 
ATOM      3  O   LIG     1     183.841 182.259 175.586  0.00  0.00    -0.186 OA
ATOM      4  C   LIG     1     183.758 183.483 173.459  0.00  0.00     0.271 C 
ATOM      5  C   LIG     1     182.802 183.798 172.270  0.00  0.00     0.256 C 
ATOM      6  C   LIG     1     182.082 182.511 171.766  0.00  0.00     0.243 C 
ATOM      7  C   LIG     1     181.392 181.771 172.958  0.00  0.00     0.205 C 
ENDROOT
BRANCH   7   8
ATOM      8  C   LIG     1     180.779 180.412 172.531  0.00  0.00     0.242 C 
BRANCH   8   9
ATOM      9  O   LIG     1     181.557 179.295 172.996  0.00  0.00    -0.443 OA
BRANCH   9  10
ATOM     10  C   LIG     1     182.300 178.444 172.213  0.00  0.00     0.341 C 
ATOM     11  O   LIG     1     183.323 178.892 171.639  0.00  0.00    -0.245 OA
BRANCH  10  12
ATOM     12  C   LIG     1     181.931 177.075 172.066  0.00  0.00     0.082 A 
ATOM     13  C   LIG     1     180.965 176.491 172.921  0.00  0.00     0.052 A 
ATOM     14  C   LIG     1     180.613 175.132 172.806  0.00  0.00     0.238 A 
ATOM     15  O   LIG     1     179.701 174.623 173.673  0.00  0.00    -0.283 OA
ATOM     16  C   LIG     1     181.207 174.329 171.809  0.00  0.00     0.273 A 
ATOM     17  O   LIG     1     180.850 173.022 171.697  0.00  0.00    -0.280 OA
ATOM     18  C   LIG     1     182.165 174.893 170.942  0.00  0.00     0.238 A 
ATOM     19  O   LIG     1     182.743 174.125 169.983  0.00  0.00    -0.283 OA
ATOM     20  C   LIG     1     182.523 176.250 171.076  0.00  0.00     0.052 A 
ENDBRANCH  10  12
ENDBRANCH   9  10
ENDBRANCH   8   9
ENDBRANCH   7   8
BRANCH   6  21
ATOM     21  O   LIG     1     181.093 182.880 170.786  0.00  0.00    -0.443 OA
BRANCH  21  22
ATOM     22  C   LIG     1     180.931 182.456 169.496  0.00  0.00     0.341 C 
ATOM     23  O   LIG     1     179.832 181.898 169.276  0.00  0.00    -0.245 OA
BRANCH  22  24
ATOM     24  C   LIG     1     181.894 182.535 168.454  0.00  0.00     0.082 A 
ATOM     25  C   LIG     1     181.903 183.616 167.545  0.00  0.00     0.052 A 
ATOM     26  C   LIG     1     182.885 183.724 166.541  0.00  0.00     0.238 A 
ATOM     27  C   LIG     1     183.893 182.748 166.449  0.00  0.00     0.273 A 
ATOM     28  O   LIG     1     182.869 184.765 165.666  0.00  0.00    -0.283 OA
ATOM     29  C   LIG     1     183.896 181.653 167.336  0.00  0.00     0.238 A 
ATOM     30  O   LIG     1     184.860 182.868 165.508  0.00  0.00    -0.280 OA
ATOM     31  O   LIG     1     184.854 180.698 167.232  0.00  0.00    -0.283 OA
ATOM     32  C   LIG     1     182.902 181.549 168.329  0.00  0.00     0.052 A 
ENDBRANCH  22  24
ENDBRANCH  21  22
ENDBRANCH   6  21
BRANCH   5  33
ATOM     33  O   LIG     1     183.510 184.363 171.152  0.00  0.00    -0.441 OA
BRANCH  33  34
ATOM     34  C   LIG     1     183.500 185.665 170.747  0.00  0.00     0.342 C 
ATOM     35  O   LIG     1     182.588 186.368 171.240  0.00  0.00    -0.245 OA
BRANCH  34  36
ATOM     36  C   LIG     1     184.510 186.252 169.936  0.00  0.00     0.082 A 
ATOM     37  C   LIG     1     185.099 187.510 170.377  0.00  0.00     0.052 A 
ATOM     38  C   LIG     1     186.163 188.051 169.625  0.00  0.00     0.238 A 
ATOM     39  O   LIG     1     186.731 189.212 170.038  0.00  0.00    -0.283 OA
ATOM     40  C   LIG     1     186.662 187.420 168.463  0.00  0.00     0.273 A 
ATOM     41  O   LIG     1     187.699 187.982 167.790  0.00  0.00    -0.280 OA
ATOM     42  C   LIG     1     186.030 186.185 168.028  0.00  0.00     0.238 A 
ATOM     43  C   LIG     1     184.918 185.536 168.741  0.00  0.00     0.052 A 
ATOM     44  O   LIG     1     186.589 185.671 166.855  0.00  0.00    -0.283 OA
ENDBRANCH  34  36
ENDBRANCH  33  34
ENDBRANCH   5  33
BRANCH   4  45
ATOM     45  O   LIG     1     184.300 184.719 173.963  0.00  0.00    -0.440 OA
BRANCH  45  46
ATOM     46  C   LIG     1     185.613 185.008 174.215  0.00  0.00     0.342 C 
ATOM     47  O   LIG     1     185.906 185.110 175.428  0.00  0.00    -0.245 OA
BRANCH  46  48
ATOM     48  C   LIG     1     186.578 185.291 173.207  0.00  0.00     0.082 A 
ATOM     49  C   LIG     1     187.411 186.432 173.285  0.00  0.00     0.052 A 
ATOM     50  C   LIG     1     188.389 186.698 172.306  0.00  0.00     0.238 A 
ATOM     51  O   LIG     1     189.174 187.799 172.419  0.00  0.00    -0.283 OA
ATOM     52  C   LIG     1     188.552 185.816 171.217  0.00  0.00     0.273 A 
ATOM     53  O   LIG     1     189.510 186.029 170.276  0.00  0.00    -0.280 OA
ATOM     54  C   LIG     1     187.718 184.687 171.106  0.00  0.00     0.238 A 
ATOM     55  O   LIG     1     187.831 183.834 170.055  0.00  0.00    -0.283 OA
ATOM     56  C   LIG     1     186.750 184.426 172.096  0.00  0.00     0.052 A 
ENDBRANCH  46  48
ENDBRANCH  45  46
ENDBRANCH   4  45
TORSDOF 13
