REMARK  Name = 5281702
REMARK                            x       y       z     vdW  Elec       q    Type
REMARK                         _______ _______ _______ _____ _____    ______ ____
ROOT
ATOM      1  O   LIG    1       -0.850   0.722   0.116  0.00  0.00    -0.454 OA
ATOM      2  C   LIG    1       -2.217   0.605   0.123  0.00  0.00    +0.146 A 
ATOM      3  C   LIG    1       -2.954   1.760   0.384  0.00  0.00    +0.092 A 
ATOM      4  C   LIG    1       -4.348   1.703   0.404  0.00  0.00    +0.124 A 
ATOM      5  C   LIG    1       -5.003   0.495   0.162  0.00  0.00    +0.091 A 
ATOM      6  C   LIG    1       -4.268  -0.662  -0.101  0.00  0.00    +0.135 A 
ATOM     11  C   LIG    1       -2.873  -0.601  -0.119  0.00  0.00    +0.105 A 
ATOM     12  C   LIG    1       -2.071  -1.803  -0.394  0.00  0.00    +0.197 A 
ATOM     13  C   LIG    1       -0.605  -1.625  -0.388  0.00  0.00    +0.098 A 
ATOM     14  O   LIG    1       -2.581  -2.892  -0.618  0.00  0.00    -0.287 OA
ATOM     15  C   LIG    1       -0.090  -0.411  -0.135  0.00  0.00    +0.139 A 
ENDROOT
BRANCH  15  16
ATOM     16  C   LIG    1        1.367  -0.171  -0.124  0.00  0.00    +0.025 A 
ATOM     17  C   LIG    1        2.244  -1.193   0.246  0.00  0.00    +0.061 A 
ATOM     18  C   LIG    1        3.620  -0.965   0.258  0.00  0.00    +0.166 A 
ATOM     19  C   LIG    1        4.123   0.286  -0.100  0.00  0.00    +0.201 A 
ATOM     20  C   LIG    1        3.250   1.309  -0.469  0.00  0.00    +0.166 A 
ATOM     27  C   LIG    1        1.874   1.081  -0.481  0.00  0.00    +0.061 A 
BRANCH  20  21
ATOM     21  O   LIG    1        3.728   2.535  -0.821  0.00  0.00    -0.491 OA
ATOM     22  C   LIG    1        3.883   3.494   0.223  0.00  0.00    +0.277 C 
ENDBRANCH  20  21
BRANCH  19  23
ATOM     23  O   LIG    1        5.468   0.509  -0.087  0.00  0.00    -0.501 OA
ATOM     24  H   LIG    1        5.636   1.414  -0.403  0.00  0.00    +0.292 HD
ENDBRANCH  19  23
BRANCH  18  25
ATOM     25  O   LIG    1        4.463  -1.972   0.621  0.00  0.00    -0.491 OA
ATOM     26  C   LIG    1        3.868  -3.220   0.972  0.00  0.00    +0.277 C 
ENDBRANCH  18  25
ENDBRANCH  15  16
BRANCH   6   7
ATOM      7  O   LIG    1       -4.956  -1.815  -0.331  0.00  0.00    -0.506 OA
ATOM      8  H   LIG    1       -4.344  -2.548  -0.498  0.00  0.00    +0.292 HD
ENDBRANCH   6   7
BRANCH   4   9
ATOM      9  O   LIG    1       -5.070   2.829   0.659  0.00  0.00    -0.507 OA
ATOM     10  H   LIG    1       -6.017   2.609   0.633  0.00  0.00    +0.292 HD
ENDBRANCH   4   9
TORSDOF 6
