REMARK  Name = 5281643
REMARK                            x       y       z     vdW  Elec       q    Type
REMARK                         _______ _______ _______ _____ _____    ______ ____
ROOT
ATOM     13  C   LIG    1        0.581   0.002   0.781  0.00  0.00    +0.214 A 
ATOM     14  C   LIG    1        1.751   0.912   0.826  0.00  0.00    +0.238 A 
ATOM     15  C   LIG    1        3.021   0.367   0.323  0.00  0.00    +0.109 A 
ATOM     16  C   LIG    1        4.181   1.146   0.319  0.00  0.00    +0.135 A 
ATOM     17  C   LIG    1        5.373   0.603  -0.161  0.00  0.00    +0.091 A 
ATOM     18  C   LIG    1        5.406  -0.709  -0.634  0.00  0.00    +0.124 A 
ATOM     19  C   LIG    1        4.246  -1.484  -0.628  0.00  0.00    +0.092 A 
ATOM     24  C   LIG    1        3.053  -0.943  -0.149  0.00  0.00    +0.147 A 
ATOM     25  O   LIG    1        1.947  -1.753  -0.167  0.00  0.00    -0.451 OA
ATOM     26  O   LIG    1        1.664   2.053   1.259  0.00  0.00    -0.283 OA
ATOM     27  C   LIG    1        0.744  -1.241   0.292  0.00  0.00    +0.181 A 
ENDROOT
BRANCH  27  28
ATOM     28  C   LIG    1       -0.361  -2.214   0.219  0.00  0.00    +0.025 A 
ATOM     29  C   LIG    1       -0.607  -3.073   1.290  0.00  0.00    +0.015 A 
ATOM     30  C   LIG    1       -1.652  -3.994   1.220  0.00  0.00    +0.050 A 
ATOM     31  C   LIG    1       -2.452  -4.056   0.079  0.00  0.00    +0.158 A 
ATOM     32  C   LIG    1       -2.206  -3.197  -0.993  0.00  0.00    +0.159 A 
ATOM     37  C   LIG    1       -1.161  -2.276  -0.923  0.00  0.00    +0.060 A 
BRANCH  32  33
ATOM     33  O   LIG    1       -2.981  -3.248  -2.112  0.00  0.00    -0.503 OA
ATOM     34  H   LIG    1       -3.654  -3.940  -1.987  0.00  0.00    +0.292 HD
ENDBRANCH  32  33
BRANCH  31  35
ATOM     35  O   LIG    1       -3.469  -4.960   0.022  0.00  0.00    -0.503 OA
ATOM     36  H   LIG    1       -3.488  -5.468   0.852  0.00  0.00    +0.292 HD
ENDBRANCH  31  35
ENDBRANCH  27  28
BRANCH  18  20
ATOM     20  O   LIG    1        6.572  -1.235  -1.098  0.00  0.00    -0.507 OA
ATOM     21  H   LIG    1        6.414  -2.151  -1.384  0.00  0.00    +0.292 HD
ENDBRANCH  18  20
BRANCH  16  22
ATOM     22  O   LIG    1        4.204   2.431   0.770  0.00  0.00    -0.506 OA
ATOM     23  H   LIG    1        3.323   2.704   1.069  0.00  0.00    +0.292 HD
ENDBRANCH  16  22
BRANCH  13  12
ATOM     12  O   LIG    1       -0.623   0.470   1.261  0.00  0.00    -0.453 OA
BRANCH  12   2
ATOM      1  O   LIG    1       -1.068   2.470   0.141  0.00  0.00    -0.331 OA
ATOM      2  C   LIG    1       -1.396   1.084   0.230  0.00  0.00    +0.340 C 
ATOM      3  C   LIG    1       -2.875   0.891   0.574  0.00  0.00    +0.214 C 
ATOM      4  C   LIG    1       -3.763   1.657  -0.406  0.00  0.00    +0.180 C 
ATOM      5  C   LIG    1       -3.309   3.111  -0.538  0.00  0.00    +0.177 C 
ATOM     38  C   LIG    1       -1.814   3.160  -0.869  0.00  0.00    +0.179 C 
BRANCH   5   6
ATOM      6  O   LIG    1       -3.536   3.797   0.696  0.00  0.00    -0.386 OA
ATOM      7  H   LIG    1       -4.482   3.714   0.903  0.00  0.00    +0.210 HD
ENDBRANCH   5   6
BRANCH   4   8
ATOM      8  O   LIG    1       -5.114   1.603   0.044  0.00  0.00    -0.386 OA
ATOM      9  H   LIG    1       -5.354   0.665   0.132  0.00  0.00    +0.210 HD
ENDBRANCH   4   8
BRANCH   3  10
ATOM     10  O   LIG    1       -3.181  -0.501   0.496  0.00  0.00    -0.383 OA
ATOM     11  H   LIG    1       -2.707  -0.938   1.224  0.00  0.00    +0.210 HD
ENDBRANCH   3  10
BRANCH  38  39
ATOM     39  C   LIG    1       -1.280   4.587  -0.933  0.00  0.00    +0.190 C 
BRANCH  39  40
ATOM     40  O   LIG    1        0.103   4.539  -1.232  0.00  0.00    -0.392 OA
ATOM     41  H   LIG    1        0.536   4.013  -0.538  0.00  0.00    +0.210 HD
ENDBRANCH  39  40
ENDBRANCH  38  39
ENDBRANCH  12   2
ENDBRANCH  13  12
TORSDOF 12
