REMARK  Name = 1794427
REMARK                            x       y       z     vdW  Elec       q    Type
REMARK                         _______ _______ _______ _____ _____    ______ ____
ROOT
ATOM     16  C   LIG    1       -2.360   1.022   0.274  0.00  0.00    +0.211 C 
ATOM     17  C   LIG    1       -3.244   1.761  -0.735  0.00  0.00    +0.184 C 
ATOM     18  C   LIG    1       -4.681   1.229  -0.735  0.00  0.00    +0.150 C 
ATOM     19  C   LIG    1       -4.710  -0.285  -0.979  0.00  0.00    +0.080 C 
ATOM     20  C   LIG    1       -3.807  -1.045  -0.004  0.00  0.00    +0.168 C 
ATOM     31  C   LIG    1       -2.387  -0.489   0.022  0.00  0.00    +0.093 C 
ENDROOT
BRANCH  20  21
ATOM     21  C   LIG    1       -3.766  -2.487  -0.481  0.00  0.00    +0.337 C 
ATOM     22  O   LIG    1       -4.131  -3.453   0.173  0.00  0.00    -0.248 OA
BRANCH  21  23
ATOM     23  O   LIG    1       -3.266  -2.562  -1.738  0.00  0.00    -0.479 OA
ATOM     24  H   LIG    1       -3.230  -3.487  -2.064  0.00  0.00    +0.295 HD
ENDBRANCH  21  23
ENDBRANCH  20  21
BRANCH  20  25
ATOM     25  O   LIG    1       -4.376  -1.040   1.298  0.00  0.00    -0.377 OA
ATOM     26  H   LIG    1       -3.757  -1.485   1.901  0.00  0.00    +0.211 HD
ENDBRANCH  20  25
BRANCH  18  27
ATOM     27  O   LIG    1       -5.293   1.526   0.521  0.00  0.00    -0.389 OA
ATOM     28  H   LIG    1       -6.204   1.187   0.490  0.00  0.00    +0.210 HD
ENDBRANCH  18  27
BRANCH  17  29
ATOM     29  O   LIG    1       -3.279   3.154  -0.427  0.00  0.00    -0.386 OA
ATOM     30  H   LIG    1       -2.360   3.469  -0.405  0.00  0.00    +0.210 HD
ENDBRANCH  17  29
BRANCH  16   1
ATOM      1  O   LIG    1       -1.008   1.457   0.139  0.00  0.00    -0.455 OA
BRANCH   1   2
ATOM      2  C   LIG    1       -0.111   0.873   0.984  0.00  0.00    +0.332 C 
ATOM     15  O   LIG    1       -0.335   0.451   2.107  0.00  0.00    -0.246 OA
BRANCH   2   3
ATOM      3  C   LIG    1        1.202   0.838   0.300  0.00  0.00    +0.092 C 
ATOM      4  C   LIG    1        2.257   0.295   0.923  0.00  0.00    +0.015 C 
BRANCH   4   5
ATOM      5  C   LIG    1        3.608   0.192   0.344  0.00  0.00    -0.021 A 
ATOM      6  C   LIG    1        3.958   1.017  -0.713  0.00  0.00    +0.012 A 
ATOM      7  C   LIG    1        5.238   0.919  -1.261  0.00  0.00    +0.050 A 
ATOM      8  C   LIG    1        6.149  -0.002  -0.744  0.00  0.00    +0.158 A 
ATOM      9  C   LIG    1        5.781  -0.826   0.320  0.00  0.00    +0.159 A 
ATOM     14  C   LIG    1        4.502  -0.728   0.868  0.00  0.00    +0.057 A 
BRANCH   9  10
ATOM     10  O   LIG    1        6.663  -1.729   0.833  0.00  0.00    -0.503 OA
ATOM     11  H   LIG    1        7.570  -1.459   0.618  0.00  0.00    +0.292 HD
ENDBRANCH   9  10
BRANCH   8  12
ATOM     12  O   LIG    1        7.395  -0.088  -1.288  0.00  0.00    -0.503 OA
ATOM     13  H   LIG    1        7.779  -0.958  -1.091  0.00  0.00    +0.292 HD
ENDBRANCH   8  12
ENDBRANCH   4   5
ENDBRANCH   2   3
ENDBRANCH   1   2
ENDBRANCH  16   1
TORSDOF 11
