REMARK VINA RESULT:      -7.7      2.997      3.734
REMARK  Name = 9823887
REMARK                            x       y       z     vdW  Elec       q    Type
REMARK                         _______ _______ _______ _____ _____    ______ ____
ROOT
ATOM      1  O   LIG    1      182.545 181.098 173.460  0.00  0.00    -0.341 OA
ATOM      2  C   LIG    1      181.433 180.941 172.582  0.00  0.00    +0.282 C 
ATOM      3  C   LIG    1      180.273 181.837 173.020  0.00  0.00    +0.201 C 
ATOM      4  C   LIG    1      180.716 183.292 173.160  0.00  0.00    +0.179 C 
ATOM      5  C   LIG    1      182.003 183.404 173.976  0.00  0.00    +0.177 C 
ATOM     22  C   LIG    1      183.063 182.429 173.456  0.00  0.00    +0.178 C 
ENDROOT
BRANCH   5   6
ATOM      6  O   LIG    1      182.504 184.736 173.889  0.00  0.00    -0.386 OA
ATOM      7  H   LIG    1      182.920 184.956 174.740  0.00  0.00    +0.210 HD
ENDBRANCH   5   6
BRANCH   4   8
ATOM      8  O   LIG    1      179.700 184.037 173.834  0.00  0.00    -0.386 OA
ATOM      9  H   LIG    1      178.949 184.123 173.222  0.00  0.00    +0.210 HD
ENDBRANCH   4   8
BRANCH   3  10
ATOM     10  O   LIG    1      179.242 181.746 172.037  0.00  0.00    -0.384 OA
ATOM     11  H   LIG    1      179.317 182.518 171.451  0.00  0.00    +0.210 HD
ENDBRANCH   3  10
BRANCH   2  12
ATOM     12  O   LIG    1      180.981 179.589 172.613  0.00  0.00    -0.345 OA
BRANCH  12  13
ATOM     13  C   LIG    1      181.287 178.913 171.403  0.00  0.00    +0.190 C 
BRANCH  13  14
ATOM     14  C   LIG    1      180.073 178.917 170.530  0.00  0.00    +0.001 C 
ATOM     15  C   LIG    1      178.863 178.515 170.949  0.00  0.00    +0.006 C 
BRANCH  15  16
ATOM     16  C   LIG    1      177.638 178.514 170.130  0.00  0.00    -0.025 A 
ATOM     17  C   LIG    1      177.381 177.440 169.294  0.00  0.00    +0.008 A 
ATOM     18  C   LIG    1      176.222 177.440 168.519  0.00  0.00    +0.001 A 
ATOM     19  C   LIG    1      175.335 178.514 168.589  0.00  0.00    +0.000 A 
ATOM     20  C   LIG    1      175.607 179.589 169.435  0.00  0.00    +0.001 A 
ATOM     21  C   LIG    1      176.767 179.589 170.210  0.00  0.00    +0.008 A 
ENDBRANCH  15  16
ENDBRANCH  13  14
ENDBRANCH  12  13
ENDBRANCH   2  12
BRANCH  22  23
ATOM     23  C   LIG    1      184.316 182.439 174.327  0.00  0.00    +0.197 C 
BRANCH  23  24
ATOM     24  O   LIG    1      185.184 183.454 173.857  0.00  0.00    -0.346 OA
BRANCH  24  25
ATOM     25  C   LIG    1      185.702 184.241 174.923  0.00  0.00    +0.281 C 
ATOM     26  C   LIG    1      187.238 184.233 174.881  0.00  0.00    +0.201 C 
ATOM     27  C   LIG    1      187.788 185.104 173.746  0.00  0.00    +0.178 C 
ATOM     28  C   LIG    1      187.123 186.481 173.770  0.00  0.00    +0.171 C 
ATOM     29  C   LIG    1      185.606 186.345 173.785  0.00  0.00    +0.197 C 
ATOM     36  O   LIG    1      185.182 185.575 174.908  0.00  0.00    -0.346 OA
BRANCH  28  30
ATOM     30  O   LIG    1      187.541 187.239 172.642  0.00  0.00    -0.387 OA
ATOM     31  H   LIG    1      188.056 187.995 172.971  0.00  0.00    +0.210 HD
ENDBRANCH  28  30
BRANCH  27  32
ATOM     32  O   LIG    1      187.526 184.476 172.492  0.00  0.00    -0.386 OA
ATOM     33  H   LIG    1      188.290 184.646 171.914  0.00  0.00    +0.210 HD
ENDBRANCH  27  32
BRANCH  26  34
ATOM     34  O   LIG    1      187.716 184.728 176.129  0.00  0.00    -0.384 OA
ATOM     35  H   LIG    1      187.837 183.975 176.732  0.00  0.00    +0.210 HD
ENDBRANCH  26  34
ENDBRANCH  24  25
ENDBRANCH  23  24
ENDBRANCH  22  23
TORSDOF 13
