REMARK  Name = 5281769
REMARK                            x       y       z     vdW  Elec       q    Type
REMARK                         _______ _______ _______ _____ _____    ______ ____
ROOT
ATOM     16  C   LIG    1        4.028  -0.986   0.010  0.00  0.00    +0.215 C 
ATOM     21  C   LIG    1        4.919  -0.680   1.215  0.00  0.00    +0.094 C 
ATOM     22  C   LIG    1        4.683   0.723   1.782  0.00  0.00    +0.151 C 
ATOM     23  C   LIG    1        4.819   1.787   0.690  0.00  0.00    +0.184 C 
ATOM     24  C   LIG    1        3.892   1.513  -0.497  0.00  0.00    +0.212 C 
ATOM     44  C   LIG    1        4.120   0.108  -1.064  0.00  0.00    +0.107 C 
ENDROOT
BRANCH  16  17
ATOM     17  C   LIG    1        4.390  -2.316  -0.585  0.00  0.00    +0.349 C 
ATOM     18  O   LIG    1        4.775  -2.490  -1.732  0.00  0.00    -0.246 OA
BRANCH  17  19
ATOM     19  O   LIG    1        4.229  -3.307   0.325  0.00  0.00    -0.478 OA
ATOM     20  H   LIG    1        4.459  -4.186  -0.046  0.00  0.00    +0.295 HD
ENDBRANCH  17  19
ENDBRANCH  16  17
BRANCH  23  40
ATOM     40  O   LIG    1        4.514   3.064   1.250  0.00  0.00    -0.386 OA
ATOM     41  H   LIG    1        4.609   3.724   0.543  0.00  0.00    +0.210 HD
ENDBRANCH  23  40
BRANCH  22  42
ATOM     42  O   LIG    1        5.659   0.981   2.791  0.00  0.00    -0.389 OA
ATOM     43  H   LIG    1        5.556   0.300   3.478  0.00  0.00    +0.210 HD
ENDBRANCH  22  42
BRANCH  16   1
ATOM      1  O   LIG    1        2.674  -1.136   0.421  0.00  0.00    -0.443 OA
BRANCH   1   2
ATOM      2  C   LIG    1        1.789  -1.439  -0.569  0.00  0.00    +0.333 C 
ATOM     15  O   LIG    1        2.041  -1.591  -1.754  0.00  0.00    -0.246 OA
BRANCH   2   3
ATOM      3  C   LIG    1        0.446  -1.553   0.045  0.00  0.00    +0.092 C 
ATOM      4  C   LIG    1       -0.610  -1.846  -0.726  0.00  0.00    +0.015 C 
BRANCH   4   5
ATOM      5  C   LIG    1       -1.991  -1.996  -0.233  0.00  0.00    -0.021 A 
ATOM      6  C   LIG    1       -2.931  -2.692  -0.992  0.00  0.00    +0.012 A 
ATOM      7  C   LIG    1       -4.238  -2.834  -0.525  0.00  0.00    +0.050 A 
ATOM      8  C   LIG    1       -4.604  -2.280   0.702  0.00  0.00    +0.158 A 
ATOM      9  C   LIG    1       -3.664  -1.584   1.461  0.00  0.00    +0.159 A 
ATOM     14  C   LIG    1       -2.357  -1.442   0.994  0.00  0.00    +0.057 A 
BRANCH   9  10
ATOM     10  O   LIG    1       -4.010  -1.040   2.661  0.00  0.00    -0.503 OA
ATOM     11  H   LIG    1       -3.236  -0.589   3.041  0.00  0.00    +0.292 HD
ENDBRANCH   9  10
BRANCH   8  12
ATOM     12  O   LIG    1       -5.884  -2.424   1.146  0.00  0.00    -0.503 OA
ATOM     13  H   LIG    1       -6.392  -2.931   0.490  0.00  0.00    +0.292 HD
ENDBRANCH   8  12
ENDBRANCH   4   5
ENDBRANCH   2   3
ENDBRANCH   1   2
ENDBRANCH  16   1
BRANCH  24  25
ATOM     25  O   LIG    1        2.535   1.647  -0.074  0.00  0.00    -0.455 OA
BRANCH  25  26
ATOM     26  C   LIG    1        1.659   2.084  -1.024  0.00  0.00    +0.332 C 
ATOM     39  O   LIG    1        1.922   2.366  -2.182  0.00  0.00    -0.246 OA
BRANCH  26  27
ATOM     27  C   LIG    1        0.317   2.160  -0.403  0.00  0.00    +0.092 C 
ATOM     28  C   LIG    1       -0.772   1.967  -1.160  0.00  0.00    +0.015 C 
BRANCH  28  29
ATOM     29  C   LIG    1       -2.157   2.007  -0.659  0.00  0.00    -0.021 A 
ATOM     30  C   LIG    1       -2.445   2.651   0.544  0.00  0.00    +0.012 A 
ATOM     31  C   LIG    1       -3.756   2.689   1.019  0.00  0.00    +0.050 A 
ATOM     32  C   LIG    1       -4.780   2.082   0.290  0.00  0.00    +0.158 A 
ATOM     33  C   LIG    1       -4.492   1.438  -0.913  0.00  0.00    +0.159 A 
ATOM     38  C   LIG    1       -3.181   1.400  -1.388  0.00  0.00    +0.057 A 
BRANCH  33  34
ATOM     34  O   LIG    1       -5.483   0.843  -1.633  0.00  0.00    -0.503 OA
ATOM     35  H   LIG    1       -5.098   0.439  -2.430  0.00  0.00    +0.292 HD
ENDBRANCH  33  34
BRANCH  32  36
ATOM     36  O   LIG    1       -6.056   2.125   0.765  0.00  0.00    -0.503 OA
ATOM     37  H   LIG    1       -6.064   2.609   1.609  0.00  0.00    +0.292 HD
ENDBRANCH  32  36
ENDBRANCH  28  29
ENDBRANCH  26  27
ENDBRANCH  25  26
ENDBRANCH  24  25
TORSDOF 16
