REMARK VINA RESULT:      -4.8      3.273      4.204
REMARK  4 active torsions:
REMARK  status: ('A' for Active; 'I' for Inactive)
REMARK    1  A    between atoms: O_1  and  C_10 
REMARK    2  A    between atoms: O_1  and  C_11 
REMARK    3  A    between atoms: N_3  and  C_7 
REMARK    4  A    between atoms: C_4  and  C_10 
ROOT
HETATM    1  O   UNK     0     182.616 183.191 162.446  0.00  0.00    -0.318 OA
ENDROOT
BRANCH   1   2
HETATM    2  C   UNK     0     181.612 183.438 163.343  0.00  0.00     0.293 C 
HETATM    3  O   UNK     0     181.341 182.699 164.298  0.00  0.00    -0.259 OA
BRANCH   2   4
HETATM    4  C   UNK     0     180.908 184.671 163.030  0.00  0.00     0.039 A 
HETATM    5  C   UNK     0     179.599 184.623 162.548  0.00  0.00     0.020 A 
HETATM    6  C   UNK     0     178.924 185.807 162.248  0.00  0.00     0.030 A 
HETATM    7  C   UNK     0     179.556 187.037 162.429  0.00  0.00     0.025 A 
HETATM    8  C   UNK     0     180.864 187.084 162.910  0.00  0.00     0.030 A 
HETATM    9  C   UNK     0     181.540 185.901 163.210  0.00  0.00     0.020 A 
BRANCH   7  10
HETATM   10  N   UNK     0     178.873 188.232 162.125  0.00  0.00    -0.399 N 
HETATM   11  H   UNK     0     178.615 188.439 161.169  0.00  0.00     0.156 HD
HETATM   12  H   UNK     0     178.642 188.885 162.863  0.00  0.00     0.156 HD
ENDBRANCH   7  10
ENDBRANCH   2   4
ENDBRANCH   1   2
BRANCH   1  13
HETATM   13  C   UNK     0     183.880 182.789 162.985  0.00  0.00     0.174 C 
HETATM   14  C   UNK     0     184.987 183.387 162.144  0.00  0.00     0.034 C 
ENDBRANCH   1  13
TORSDOF 4
