REMARK  Name = 6508
REMARK                            x       y       z     vdW  Elec       q    Type
REMARK                         _______ _______ _______ _____ _____    ______ ____
ROOT
ATOM      3  C   LIG    1       -0.979   0.086   0.191  0.00  0.00    +0.167 C 
ATOM      8  C   LIG    1       -0.383   1.066  -0.830  0.00  0.00    +0.080 C 
ATOM      9  C   LIG    1        1.123   1.283  -0.635  0.00  0.00    +0.149 C 
ATOM     10  C   LIG    1        1.880  -0.048  -0.575  0.00  0.00    +0.171 C 
ATOM     11  C   LIG    1        1.303  -1.004   0.471  0.00  0.00    +0.149 C 
ATOM     18  C   LIG    1       -0.195  -1.226   0.247  0.00  0.00    +0.080 C 
ENDROOT
BRANCH   3   1
ATOM      1  O   LIG    1       -1.006   0.698   1.475  0.00  0.00    -0.377 OA
ATOM      2  H   LIG    1       -1.305   0.036   2.122  0.00  0.00    +0.211 HD
ENDBRANCH   3   1
BRANCH   3   4
ATOM      4  C   LIG    1       -2.416  -0.170  -0.161  0.00  0.00    +0.337 C 
ATOM      5  O   LIG    1       -3.373   0.122   0.541  0.00  0.00    -0.248 OA
BRANCH   4   6
ATOM      6  O   LIG    1       -2.513  -0.776  -1.369  0.00  0.00    -0.479 OA
ATOM      7  H   LIG    1       -3.445  -0.954  -1.617  0.00  0.00    +0.295 HD
ENDBRANCH   4   6
ENDBRANCH   3   4
BRANCH  11  12
ATOM     12  O   LIG    1        1.953  -2.270   0.365  0.00  0.00    -0.389 OA
ATOM     13  H   LIG    1        1.579  -2.851   1.050  0.00  0.00    +0.210 HD
ENDBRANCH  11  12
BRANCH  10  14
ATOM     14  O   LIG    1        3.253   0.195  -0.270  0.00  0.00    -0.387 OA
ATOM     15  H   LIG    1        3.602   0.797  -0.949  0.00  0.00    +0.210 HD
ENDBRANCH  10  14
BRANCH   9  16
ATOM     16  O   LIG    1        1.353   2.043   0.551  0.00  0.00    -0.389 OA
ATOM     17  H   LIG    1        0.964   1.567   1.303  0.00  0.00    +0.210 HD
ENDBRANCH   9  16
TORSDOF 6
