MODEL 1
REMARK VINA RESULT:    -9.131      0.000      0.000
REMARK INTER + INTRA:         -13.566
REMARK INTER:                 -12.334
REMARK INTRA:                  -1.232
REMARK UNBOUND:                -1.232
REMARK  Name = 14749097
REMARK  9 active torsions:
REMARK  status: ('A' for Active; 'I' for Inactive)
REMARK    1  A    between atoms: O_2  and  C_14
REMARK    2  A    between atoms: O_2  and  C_16
REMARK    3  A    between atoms: O_3  and  C_11
REMARK    4  A    between atoms: O_4  and  C_12
REMARK    5  A    between atoms: O_5  and  C_13
REMARK    6  A    between atoms: O_8  and  C_22
REMARK    7  A    between atoms: O_9  and  C_27
REMARK    8  A    between atoms: O_10  and  C_30
REMARK    9  A    between atoms: C_17  and  C_21
REMARK                            x       y       z     vdW  Elec       q    Type
REMARK                         _______ _______ _______ _____ _____    ______ ____
ROOT
ATOM      1  O   UNL     1     119.518 148.652 146.343  0.00  0.00    +0.000 OA
ATOM      2  O   UNL     1     121.000 150.910 143.292  0.00  0.00    +0.000 OA
ATOM      3  C   UNL     1     119.145 149.784 144.239  0.00  0.00    +0.000 A 
ATOM      4  C   UNL     1     118.723 149.034 145.275  0.00  0.00    +0.000 A 
ATOM      5  C   UNL     1     120.559 150.229 144.208  0.00  0.00    +0.000 A 
ATOM      6  C   UNL     1     121.401 149.809 145.339  0.00  0.00    +0.000 A 
ATOM      7  C   UNL     1     120.834 149.038 146.351  0.00  0.00    +0.000 A 
ATOM      8  C   UNL     1     122.748 150.174 145.400  0.00  0.00    +0.000 A 
ATOM      9  C   UNL     1     121.610 148.629 147.435  0.00  0.00    +0.000 A 
ATOM     10  C   UNL     1     123.524 149.763 146.486  0.00  0.00    +0.000 A 
ATOM     11  C   UNL     1     122.956 148.992 147.501  0.00  0.00    +0.000 A 
ENDROOT
BRANCH   4  12
ATOM     12  C   UNL     1     117.334 148.555 145.390  0.00  0.00    +0.000 A 
ATOM     13  C   UNL     1     116.450 149.182 146.269  0.00  0.00    +0.000 A 
ATOM     14  C   UNL     1     116.903 147.474 144.621  0.00  0.00    +0.000 A 
ATOM     15  C   UNL     1     115.136 148.729 146.378  0.00  0.00    +0.000 A 
ATOM     16  C   UNL     1     115.588 147.020 144.730  0.00  0.00    +0.000 A 
ATOM     17  C   UNL     1     114.705 147.648 145.608  0.00  0.00    +0.000 A 
BRANCH  17  18
ATOM     18  O   UNL     1     113.422 147.207 145.715  0.00  0.00    +0.000 OA
ATOM     19  H   UNL     1     113.410 146.241 145.604  0.00  0.00    +0.000 HD
ENDBRANCH  17  18
ENDBRANCH   4  12
BRANCH   8  20
ATOM     20  O   UNL     1     123.351 150.926 144.437  0.00  0.00    +0.000 OA
ATOM     21  H   UNL     1     122.788 151.674 144.189  0.00  0.00    +0.000 HD
ENDBRANCH   8  20
BRANCH  11  22
ATOM     22  O   UNL     1     123.717 148.593 148.557  0.00  0.00    +0.000 OA
ATOM     23  H   UNL     1     124.647 148.542 148.274  0.00  0.00    +0.000 HD
ENDBRANCH  11  22
BRANCH   3  24
ATOM     24  O   UNL     1     118.319 150.175 143.208  0.00  0.00    +0.000 OA
BRANCH  24  29
ATOM     25  O   UNL     1     116.614 151.598 144.024  0.00  0.00    +0.000 OA
ATOM     26  C   UNL     1     116.708 151.628 141.146  0.00  0.00    +0.000 C 
ATOM     27  C   UNL     1     117.822 152.226 142.009  0.00  0.00    +0.000 C 
ATOM     28  C   UNL     1     115.384 151.630 141.913  0.00  0.00    +0.000 C 
ATOM     29  C   UNL     1     117.882 151.525 143.369  0.00  0.00    +0.000 C 
ATOM     30  C   UNL     1     115.552 150.983 143.284  0.00  0.00    +0.000 C 
BRANCH  26  31
ATOM     31  O   UNL     1     116.550 152.378 139.946  0.00  0.00    +0.000 OA
ATOM     32  H   UNL     1     117.045 151.916 139.248  0.00  0.00    +0.000 HD
ENDBRANCH  26  31
BRANCH  27  33
ATOM     33  O   UNL     1     119.082 152.093 141.361  0.00  0.00    +0.000 OA
ATOM     34  H   UNL     1     119.628 152.856 141.614  0.00  0.00    +0.000 HD
ENDBRANCH  27  33
BRANCH  28  35
ATOM     35  O   UNL     1     114.951 152.981 142.099  0.00  0.00    +0.000 OA
ATOM     36  H   UNL     1     113.982 152.968 142.184  0.00  0.00    +0.000 HD
ENDBRANCH  28  35
ENDBRANCH  24  29
ENDBRANCH   3  24
TORSDOF 9
ENDMDL
MODEL 2
REMARK VINA RESULT:    -8.757     21.357     25.125
REMARK INTER + INTRA:         -13.060
REMARK INTER:                 -11.834
REMARK INTRA:                  -1.226
REMARK UNBOUND:                -1.232
REMARK  Name = 14749097
REMARK  9 active torsions:
REMARK  status: ('A' for Active; 'I' for Inactive)
REMARK    1  A    between atoms: O_2  and  C_14
REMARK    2  A    between atoms: O_2  and  C_16
REMARK    3  A    between atoms: O_3  and  C_11
REMARK    4  A    between atoms: O_4  and  C_12
REMARK    5  A    between atoms: O_5  and  C_13
REMARK    6  A    between atoms: O_8  and  C_22
REMARK    7  A    between atoms: O_9  and  C_27
REMARK    8  A    between atoms: O_10  and  C_30
REMARK    9  A    between atoms: C_17  and  C_21
REMARK                            x       y       z     vdW  Elec       q    Type
REMARK                         _______ _______ _______ _____ _____    ______ ____
ROOT
ATOM      1  O   UNL     1     107.808 144.353 164.747  0.00  0.00    +0.000 OA
ATOM      2  O   UNL     1     104.980 142.689 167.163  0.00  0.00    +0.000 OA
ATOM      3  C   UNL     1     105.474 143.915 165.198  0.00  0.00    +0.000 A 
ATOM      4  C   UNL     1     106.458 144.446 164.450  0.00  0.00    +0.000 A 
ATOM      5  C   UNL     1     105.832 143.191 166.441  0.00  0.00    +0.000 A 
ATOM      6  C   UNL     1     107.266 143.107 166.757  0.00  0.00    +0.000 A 
ATOM      7  C   UNL     1     108.183 143.696 165.890  0.00  0.00    +0.000 A 
ATOM      8  C   UNL     1     107.706 142.449 167.909  0.00  0.00    +0.000 A 
ATOM      9  C   UNL     1     109.548 143.628 166.167  0.00  0.00    +0.000 A 
ATOM     10  C   UNL     1     109.073 142.383 168.184  0.00  0.00    +0.000 A 
ATOM     11  C   UNL     1     109.992 142.971 167.315  0.00  0.00    +0.000 A 
ENDROOT
BRANCH   4  12
ATOM     12  C   UNL     1     106.194 145.175 163.196  0.00  0.00    +0.000 A 
ATOM     13  C   UNL     1     105.578 146.427 163.233  0.00  0.00    +0.000 A 
ATOM     14  C   UNL     1     106.559 144.614 161.973  0.00  0.00    +0.000 A 
ATOM     15  C   UNL     1     105.329 147.116 162.047  0.00  0.00    +0.000 A 
ATOM     16  C   UNL     1     106.310 145.304 160.786  0.00  0.00    +0.000 A 
ATOM     17  C   UNL     1     105.695 146.555 160.823  0.00  0.00    +0.000 A 
BRANCH  17  18
ATOM     18  O   UNL     1     105.451 147.229 159.666  0.00  0.00    +0.000 OA
ATOM     19  H   UNL     1     104.823 146.718 159.129  0.00  0.00    +0.000 HD
ENDBRANCH  17  18
ENDBRANCH   4  12
BRANCH   8  20
ATOM     20  O   UNL     1     106.852 141.856 168.789  0.00  0.00    +0.000 OA
ATOM     21  H   UNL     1     106.896 140.892 168.709  0.00  0.00    +0.000 HD
ENDBRANCH   8  20
BRANCH  11  22
ATOM     22  O   UNL     1     111.324 142.905 167.588  0.00  0.00    +0.000 OA
ATOM     23  H   UNL     1     111.527 142.028 167.958  0.00  0.00    +0.000 HD
ENDBRANCH  11  22
BRANCH   3  24
ATOM     24  O   UNL     1     104.141 143.997 164.857  0.00  0.00    +0.000 OA
BRANCH  24  29
ATOM     25  O   UNL     1     103.774 142.634 162.957  0.00  0.00    +0.000 OA
ATOM     26  C   UNL     1     101.287 143.566 164.067  0.00  0.00    +0.000 C 
ATOM     27  C   UNL     1     102.183 142.563 164.795  0.00  0.00    +0.000 C 
ATOM     28  C   UNL     1     101.521 143.489 162.557  0.00  0.00    +0.000 C 
ATOM     29  C   UNL     1     103.645 142.747 164.376  0.00  0.00    +0.000 C 
ATOM     30  C   UNL     1     103.007 143.604 162.234  0.00  0.00    +0.000 C 
BRANCH  26  31
ATOM     31  O   UNL     1      99.914 143.297 164.337  0.00  0.00    +0.000 OA
ATOM     32  H   UNL     1      99.655 142.536 163.790  0.00  0.00    +0.000 HD
ENDBRANCH  26  31
BRANCH  27  33
ATOM     33  O   UNL     1     102.080 142.731 166.204  0.00  0.00    +0.000 OA
ATOM     34  H   UNL     1     101.769 141.890 166.581  0.00  0.00    +0.000 HD
ENDBRANCH  27  33
BRANCH  28  35
ATOM     35  O   UNL     1     101.048 142.230 162.072  0.00  0.00    +0.000 OA
ATOM     36  H   UNL     1     100.677 142.379 161.185  0.00  0.00    +0.000 HD
ENDBRANCH  28  35
ENDBRANCH  24  29
ENDBRANCH   3  24
TORSDOF 9
ENDMDL
MODEL 3
REMARK VINA RESULT:    -8.427     21.703     25.388
REMARK INTER + INTRA:         -12.616
REMARK INTER:                 -11.744
REMARK INTRA:                  -0.872
REMARK UNBOUND:                -1.232
REMARK  Name = 14749097
REMARK  9 active torsions:
REMARK  status: ('A' for Active; 'I' for Inactive)
REMARK    1  A    between atoms: O_2  and  C_14
REMARK    2  A    between atoms: O_2  and  C_16
REMARK    3  A    between atoms: O_3  and  C_11
REMARK    4  A    between atoms: O_4  and  C_12
REMARK    5  A    between atoms: O_5  and  C_13
REMARK    6  A    between atoms: O_8  and  C_22
REMARK    7  A    between atoms: O_9  and  C_27
REMARK    8  A    between atoms: O_10  and  C_30
REMARK    9  A    between atoms: C_17  and  C_21
REMARK                            x       y       z     vdW  Elec       q    Type
REMARK                         _______ _______ _______ _____ _____    ______ ____
ROOT
ATOM      1  O   UNL     1     107.960 144.084 164.781  0.00  0.00    +0.000 OA
ATOM      2  O   UNL     1     105.350 142.107 167.206  0.00  0.00    +0.000 OA
ATOM      3  C   UNL     1     105.695 143.371 165.233  0.00  0.00    +0.000 A 
ATOM      4  C   UNL     1     106.609 144.012 164.482  0.00  0.00    +0.000 A 
ATOM      5  C   UNL     1     106.135 142.703 166.482  0.00  0.00    +0.000 A 
ATOM      6  C   UNL     1     107.569 142.795 166.800  0.00  0.00    +0.000 A 
ATOM      7  C   UNL     1     108.409 143.484 165.929  0.00  0.00    +0.000 A 
ATOM      8  C   UNL     1     108.083 142.202 167.956  0.00  0.00    +0.000 A 
ATOM      9  C   UNL     1     109.773 143.583 166.207  0.00  0.00    +0.000 A 
ATOM     10  C   UNL     1     109.448 142.303 168.233  0.00  0.00    +0.000 A 
ATOM     11  C   UNL     1     110.290 142.992 167.360  0.00  0.00    +0.000 A 
ENDROOT
BRANCH   4  12
ATOM     12  C   UNL     1     106.261 144.696 163.224  0.00  0.00    +0.000 A 
ATOM     13  C   UNL     1     106.163 143.968 162.038  0.00  0.00    +0.000 A 
ATOM     14  C   UNL     1     106.029 146.071 163.219  0.00  0.00    +0.000 A 
ATOM     15  C   UNL     1     105.833 144.615 160.848  0.00  0.00    +0.000 A 
ATOM     16  C   UNL     1     105.699 146.719 162.028  0.00  0.00    +0.000 A 
ATOM     17  C   UNL     1     105.600 145.991 160.842  0.00  0.00    +0.000 A 
BRANCH  17  18
ATOM     18  O   UNL     1     105.278 146.621 159.680  0.00  0.00    +0.000 OA
ATOM     19  H   UNL     1     105.612 147.534 159.712  0.00  0.00    +0.000 HD
ENDBRANCH  17  18
ENDBRANCH   4  12
BRANCH   8  20
ATOM     20  O   UNL     1     107.305 141.517 168.840  0.00  0.00    +0.000 OA
ATOM     21  H   UNL     1     107.769 141.402 169.683  0.00  0.00    +0.000 HD
ENDBRANCH   8  20
BRANCH  11  22
ATOM     22  O   UNL     1     111.620 143.089 167.635  0.00  0.00    +0.000 OA
ATOM     23  H   UNL     1     112.121 142.995 166.807  0.00  0.00    +0.000 HD
ENDBRANCH  11  22
BRANCH   3  24
ATOM     24  O   UNL     1     104.362 143.289 164.890  0.00  0.00    +0.000 OA
BRANCH  24  29
ATOM     25  O   UNL     1     103.339 144.710 166.481  0.00  0.00    +0.000 OA
ATOM     26  C   UNL     1     101.392 143.591 164.679  0.00  0.00    +0.000 C 
ATOM     27  C   UNL     1     102.439 144.611 164.224  0.00  0.00    +0.000 C 
ATOM     28  C   UNL     1     101.115 143.748 166.176  0.00  0.00    +0.000 C 
ATOM     29  C   UNL     1     103.688 144.528 165.107  0.00  0.00    +0.000 C 
ATOM     30  C   UNL     1     102.416 143.731 166.972  0.00  0.00    +0.000 C 
BRANCH  26  31
ATOM     31  O   UNL     1     100.176 143.771 163.961  0.00  0.00    +0.000 OA
ATOM     32  H   UNL     1      99.712 142.916 163.958  0.00  0.00    +0.000 HD
ENDBRANCH  26  31
BRANCH  27  33
ATOM     33  O   UNL     1     102.810 144.376 162.871  0.00  0.00    +0.000 OA
ATOM     34  H   UNL     1     103.176 143.477 162.815  0.00  0.00    +0.000 HD
ENDBRANCH  27  33
BRANCH  28  35
ATOM     35  O   UNL     1     100.460 144.998 166.404  0.00  0.00    +0.000 OA
ATOM     36  H   UNL     1      99.504 144.852 166.297  0.00  0.00    +0.000 HD
ENDBRANCH  28  35
ENDBRANCH  24  29
ENDBRANCH   3  24
TORSDOF 9
ENDMDL
MODEL 4
REMARK VINA RESULT:    -8.189     20.699     24.477
REMARK INTER + INTRA:         -12.294
REMARK INTER:                 -11.091
REMARK INTRA:                  -1.202
REMARK UNBOUND:                -1.232
REMARK  Name = 14749097
REMARK  9 active torsions:
REMARK  status: ('A' for Active; 'I' for Inactive)
REMARK    1  A    between atoms: O_2  and  C_14
REMARK    2  A    between atoms: O_2  and  C_16
REMARK    3  A    between atoms: O_3  and  C_11
REMARK    4  A    between atoms: O_4  and  C_12
REMARK    5  A    between atoms: O_5  and  C_13
REMARK    6  A    between atoms: O_8  and  C_22
REMARK    7  A    between atoms: O_9  and  C_27
REMARK    8  A    between atoms: O_10  and  C_30
REMARK    9  A    between atoms: C_17  and  C_21
REMARK                            x       y       z     vdW  Elec       q    Type
REMARK                         _______ _______ _______ _____ _____    ______ ____
ROOT
ATOM      1  O   UNL     1     108.369 145.083 164.069  0.00  0.00    +0.000 OA
ATOM      2  O   UNL     1     104.986 145.583 161.852  0.00  0.00    +0.000 OA
ATOM      3  C   UNL     1     106.095 144.417 163.590  0.00  0.00    +0.000 A 
ATOM      4  C   UNL     1     107.245 144.301 164.279  0.00  0.00    +0.000 A 
ATOM      5  C   UNL     1     106.004 145.432 162.513  0.00  0.00    +0.000 A 
ATOM      6  C   UNL     1     107.206 146.251 162.287  0.00  0.00    +0.000 A 
ATOM      7  C   UNL     1     108.330 146.032 163.080  0.00  0.00    +0.000 A 
ATOM      8  C   UNL     1     107.223 147.233 161.293  0.00  0.00    +0.000 A 
ATOM      9  C   UNL     1     109.480 146.797 162.886  0.00  0.00    +0.000 A 
ATOM     10  C   UNL     1     108.376 147.997 161.101  0.00  0.00    +0.000 A 
ATOM     11  C   UNL     1     109.502 147.779 161.895  0.00  0.00    +0.000 A 
ENDROOT
BRANCH   4  12
ATOM     12  C   UNL     1     107.420 143.324 165.368  0.00  0.00    +0.000 A 
ATOM     13  C   UNL     1     107.676 143.765 166.667  0.00  0.00    +0.000 A 
ATOM     14  C   UNL     1     107.328 141.958 165.101  0.00  0.00    +0.000 A 
ATOM     15  C   UNL     1     107.840 142.840 167.698  0.00  0.00    +0.000 A 
ATOM     16  C   UNL     1     107.493 141.032 166.133  0.00  0.00    +0.000 A 
ATOM     17  C   UNL     1     107.748 141.474 167.431  0.00  0.00    +0.000 A 
BRANCH  17  18
ATOM     18  O   UNL     1     107.909 140.572 168.438  0.00  0.00    +0.000 OA
ATOM     19  H   UNL     1     107.398 140.868 169.211  0.00  0.00    +0.000 HD
ENDBRANCH  17  18
ENDBRANCH   4  12
BRANCH   8  20
ATOM     20  O   UNL     1     106.152 147.488 160.492  0.00  0.00    +0.000 OA
ATOM     21  H   UNL     1     105.480 147.993 160.974  0.00  0.00    +0.000 HD
ENDBRANCH   8  20
BRANCH  11  22
ATOM     22  O   UNL     1     110.624 148.526 161.703  0.00  0.00    +0.000 OA
ATOM     23  H   UNL     1     111.159 148.116 161.001  0.00  0.00    +0.000 HD
ENDBRANCH  11  22
BRANCH   3  24
ATOM     24  O   UNL     1     104.982 143.644 163.846  0.00  0.00    +0.000 OA
BRANCH  24  29
ATOM     25  O   UNL     1     104.150 143.799 166.055  0.00  0.00    +0.000 OA
ATOM     26  C   UNL     1     102.160 142.740 164.265  0.00  0.00    +0.000 C 
ATOM     27  C   UNL     1     102.642 144.190 164.188  0.00  0.00    +0.000 C 
ATOM     28  C   UNL     1     102.349 142.192 165.681  0.00  0.00    +0.000 C 
ATOM     29  C   UNL     1     104.072 144.309 164.722  0.00  0.00    +0.000 C 
ATOM     30  C   UNL     1     103.778 142.420 166.163  0.00  0.00    +0.000 C 
BRANCH  26  31
ATOM     31  O   UNL     1     100.783 142.652 163.913  0.00  0.00    +0.000 OA
ATOM     32  H   UNL     1     100.660 141.821 163.424  0.00  0.00    +0.000 HD
ENDBRANCH  26  31
BRANCH  27  33
ATOM     33  O   UNL     1     102.608 144.658 162.844  0.00  0.00    +0.000 OA
ATOM     34  H   UNL     1     103.480 145.037 162.640  0.00  0.00    +0.000 HD
ENDBRANCH  27  33
BRANCH  28  35
ATOM     35  O   UNL     1     101.457 142.870 166.569  0.00  0.00    +0.000 OA
ATOM     36  H   UNL     1     100.565 142.513 166.417  0.00  0.00    +0.000 HD
ENDBRANCH  28  35
ENDBRANCH  24  29
ENDBRANCH   3  24
TORSDOF 9
ENDMDL
MODEL 5
REMARK VINA RESULT:    -8.098     20.673     24.782
REMARK INTER + INTRA:         -12.170
REMARK INTER:                 -11.292
REMARK INTRA:                  -0.878
REMARK UNBOUND:                -1.232
REMARK  Name = 14749097
REMARK  9 active torsions:
REMARK  status: ('A' for Active; 'I' for Inactive)
REMARK    1  A    between atoms: O_2  and  C_14
REMARK    2  A    between atoms: O_2  and  C_16
REMARK    3  A    between atoms: O_3  and  C_11
REMARK    4  A    between atoms: O_4  and  C_12
REMARK    5  A    between atoms: O_5  and  C_13
REMARK    6  A    between atoms: O_8  and  C_22
REMARK    7  A    between atoms: O_9  and  C_27
REMARK    8  A    between atoms: O_10  and  C_30
REMARK    9  A    between atoms: C_17  and  C_21
REMARK                            x       y       z     vdW  Elec       q    Type
REMARK                         _______ _______ _______ _____ _____    ______ ____
ROOT
ATOM      1  O   UNL     1     106.844 144.777 162.159  0.00  0.00    +0.000 OA
ATOM      2  O   UNL     1     103.406 146.897 162.700  0.00  0.00    +0.000 OA
ATOM      3  C   UNL     1     104.968 145.347 163.574  0.00  0.00    +0.000 A 
ATOM      4  C   UNL     1     106.106 144.671 163.327  0.00  0.00    +0.000 A 
ATOM      5  C   UNL     1     104.437 146.259 162.533  0.00  0.00    +0.000 A 
ATOM      6  C   UNL     1     105.218 146.356 161.290  0.00  0.00    +0.000 A 
ATOM      7  C   UNL     1     106.385 145.606 161.168  0.00  0.00    +0.000 A 
ATOM      8  C   UNL     1     104.799 147.186 160.247  0.00  0.00    +0.000 A 
ATOM      9  C   UNL     1     107.145 145.683 160.000  0.00  0.00    +0.000 A 
ATOM     10  C   UNL     1     105.561 147.260 159.079  0.00  0.00    +0.000 A 
ATOM     11  C   UNL     1     106.731 146.510 158.956  0.00  0.00    +0.000 A 
ENDROOT
BRANCH   4  12
ATOM     12  C   UNL     1     106.709 143.750 164.307  0.00  0.00    +0.000 A 
ATOM     13  C   UNL     1     107.577 144.239 165.283  0.00  0.00    +0.000 A 
ATOM     14  C   UNL     1     106.409 142.389 164.259  0.00  0.00    +0.000 A 
ATOM     15  C   UNL     1     108.147 143.368 166.210  0.00  0.00    +0.000 A 
ATOM     16  C   UNL     1     106.979 141.516 165.187  0.00  0.00    +0.000 A 
ATOM     17  C   UNL     1     107.847 142.006 166.163  0.00  0.00    +0.000 A 
BRANCH  17  18
ATOM     18  O   UNL     1     108.403 141.156 167.068  0.00  0.00    +0.000 OA
ATOM     19  H   UNL     1     108.568 141.639 167.896  0.00  0.00    +0.000 HD
ENDBRANCH  17  18
ENDBRANCH   4  12
BRANCH   8  20
ATOM     20  O   UNL     1     103.667 147.940 160.316  0.00  0.00    +0.000 OA
ATOM     21  H   UNL     1     102.930 147.486 159.880  0.00  0.00    +0.000 HD
ENDBRANCH   8  20
BRANCH  11  22
ATOM     22  O   UNL     1     107.469 146.586 157.815  0.00  0.00    +0.000 OA
ATOM     23  H   UNL     1     108.038 145.799 157.755  0.00  0.00    +0.000 HD
ENDBRANCH  11  22
BRANCH   3  24
ATOM     24  O   UNL     1     104.275 145.245 164.761  0.00  0.00    +0.000 OA
BRANCH  24  29
ATOM     25  O   UNL     1     102.304 144.096 164.136  0.00  0.00    +0.000 OA
ATOM     26  C   UNL     1     102.346 144.630 166.965  0.00  0.00    +0.000 C 
ATOM     27  C   UNL     1     103.308 143.640 166.304  0.00  0.00    +0.000 C 
ATOM     28  C   UNL     1     101.068 144.763 166.135  0.00  0.00    +0.000 C 
ATOM     29  C   UNL     1     103.546 144.020 164.839  0.00  0.00    +0.000 C 
ATOM     30  C   UNL     1     101.398 145.065 164.677  0.00  0.00    +0.000 C 
BRANCH  26  31
ATOM     31  O   UNL     1     102.004 144.193 168.277  0.00  0.00    +0.000 OA
ATOM     32  H   UNL     1     102.356 143.293 168.384  0.00  0.00    +0.000 HD
ENDBRANCH  26  31
BRANCH  27  33
ATOM     33  O   UNL     1     104.555 143.623 166.988  0.00  0.00    +0.000 OA
ATOM     34  H   UNL     1     105.109 144.328 166.613  0.00  0.00    +0.000 HD
ENDBRANCH  27  33
BRANCH  28  35
ATOM     35  O   UNL     1     100.342 143.531 166.189  0.00  0.00    +0.000 OA
ATOM     36  H   UNL     1     100.276 143.191 165.281  0.00  0.00    +0.000 HD
ENDBRANCH  28  35
ENDBRANCH  24  29
ENDBRANCH   3  24
TORSDOF 9
ENDMDL
MODEL 6
REMARK VINA RESULT:    -8.092     20.425     24.814
REMARK INTER + INTRA:         -12.162
REMARK INTER:                 -11.454
REMARK INTRA:                  -0.708
REMARK UNBOUND:                -1.232
REMARK  Name = 14749097
REMARK  9 active torsions:
REMARK  status: ('A' for Active; 'I' for Inactive)
REMARK    1  A    between atoms: O_2  and  C_14
REMARK    2  A    between atoms: O_2  and  C_16
REMARK    3  A    between atoms: O_3  and  C_11
REMARK    4  A    between atoms: O_4  and  C_12
REMARK    5  A    between atoms: O_5  and  C_13
REMARK    6  A    between atoms: O_8  and  C_22
REMARK    7  A    between atoms: O_9  and  C_27
REMARK    8  A    between atoms: O_10  and  C_30
REMARK    9  A    between atoms: C_17  and  C_21
REMARK                            x       y       z     vdW  Elec       q    Type
REMARK                         _______ _______ _______ _____ _____    ______ ____
ROOT
ATOM      1  O   UNL     1     105.301 146.072 161.016  0.00  0.00    +0.000 OA
ATOM      2  O   UNL     1     101.911 147.397 162.849  0.00  0.00    +0.000 OA
ATOM      3  C   UNL     1     103.931 146.171 163.006  0.00  0.00    +0.000 A 
ATOM      4  C   UNL     1     105.025 145.761 162.337  0.00  0.00    +0.000 A 
ATOM      5  C   UNL     1     102.926 146.997 162.295  0.00  0.00    +0.000 A 
ATOM      6  C   UNL     1     103.219 147.312 160.888  0.00  0.00    +0.000 A 
ATOM      7  C   UNL     1     104.396 146.830 160.319  0.00  0.00    +0.000 A 
ATOM      8  C   UNL     1     102.332 148.082 160.130  0.00  0.00    +0.000 A 
ATOM      9  C   UNL     1     104.696 147.117 158.988  0.00  0.00    +0.000 A 
ATOM     10  C   UNL     1     102.636 148.367 158.797  0.00  0.00    +0.000 A 
ATOM     11  C   UNL     1     103.814 147.886 158.228  0.00  0.00    +0.000 A 
ENDROOT
BRANCH   4  12
ATOM     12  C   UNL     1     106.078 144.944 162.967  0.00  0.00    +0.000 A 
ATOM     13  C   UNL     1     107.165 145.561 163.586  0.00  0.00    +0.000 A 
ATOM     14  C   UNL     1     105.985 143.552 162.946  0.00  0.00    +0.000 A 
ATOM     15  C   UNL     1     108.160 144.787 164.182  0.00  0.00    +0.000 A 
ATOM     16  C   UNL     1     106.981 142.777 163.543  0.00  0.00    +0.000 A 
ATOM     17  C   UNL     1     108.068 143.395 164.161  0.00  0.00    +0.000 A 
BRANCH  17  18
ATOM     18  O   UNL     1     109.039 142.641 164.744  0.00  0.00    +0.000 OA
ATOM     19  H   UNL     1     108.656 141.791 165.021  0.00  0.00    +0.000 HD
ENDBRANCH  17  18
ENDBRANCH   4  12
BRANCH   8  20
ATOM     20  O   UNL     1     101.169 148.578 160.637  0.00  0.00    +0.000 OA
ATOM     21  H   UNL     1     100.416 148.295 160.097  0.00  0.00    +0.000 HD
ENDBRANCH   8  20
BRANCH  11  22
ATOM     22  O   UNL     1     104.105 148.166 156.927  0.00  0.00    +0.000 OA
ATOM     23  H   UNL     1     103.279 148.377 156.458  0.00  0.00    +0.000 HD
ENDBRANCH  11  22
BRANCH   3  24
ATOM     24  O   UNL     1     103.703 145.872 164.332  0.00  0.00    +0.000 OA
BRANCH  24  29
ATOM     25  O   UNL     1     102.027 144.208 164.197  0.00  0.00    +0.000 OA
ATOM     26  C   UNL     1     102.752 144.738 166.933  0.00  0.00    +0.000 C 
ATOM     27  C   UNL     1     103.708 144.062 165.948  0.00  0.00    +0.000 C 
ATOM     28  C   UNL     1     101.300 144.499 166.512  0.00  0.00    +0.000 C 
ATOM     29  C   UNL     1     103.392 144.491 164.512  0.00  0.00    +0.000 C 
ATOM     30  C   UNL     1     101.092 144.881 165.049  0.00  0.00    +0.000 C 
BRANCH  26  31
ATOM     31  O   UNL     1     102.943 144.224 168.247  0.00  0.00    +0.000 OA
ATOM     32  H   UNL     1     102.077 144.226 168.689  0.00  0.00    +0.000 HD
ENDBRANCH  26  31
BRANCH  27  33
ATOM     33  O   UNL     1     105.057 144.401 166.248  0.00  0.00    +0.000 OA
ATOM     34  H   UNL     1     105.291 145.182 165.718  0.00  0.00    +0.000 HD
ENDBRANCH  27  33
BRANCH  28  35
ATOM     35  O   UNL     1     100.988 143.113 166.667  0.00  0.00    +0.000 OA
ATOM     36  H   UNL     1     100.243 142.913 166.075  0.00  0.00    +0.000 HD
ENDBRANCH  28  35
ENDBRANCH  24  29
ENDBRANCH   3  24
TORSDOF 9
ENDMDL
MODEL 7
REMARK VINA RESULT:    -7.987     12.372     14.634
REMARK INTER + INTRA:         -12.020
REMARK INTER:                 -10.880
REMARK INTRA:                  -1.140
REMARK UNBOUND:                -1.232
REMARK  Name = 14749097
REMARK  9 active torsions:
REMARK  status: ('A' for Active; 'I' for Inactive)
REMARK    1  A    between atoms: O_2  and  C_14
REMARK    2  A    between atoms: O_2  and  C_16
REMARK    3  A    between atoms: O_3  and  C_11
REMARK    4  A    between atoms: O_4  and  C_12
REMARK    5  A    between atoms: O_5  and  C_13
REMARK    6  A    between atoms: O_8  and  C_22
REMARK    7  A    between atoms: O_9  and  C_27
REMARK    8  A    between atoms: O_10  and  C_30
REMARK    9  A    between atoms: C_17  and  C_21
REMARK                            x       y       z     vdW  Elec       q    Type
REMARK                         _______ _______ _______ _____ _____    ______ ____
ROOT
ATOM      1  O   UNL     1     130.890 149.474 141.786  0.00  0.00    +0.000 OA
ATOM      2  O   UNL     1     131.103 146.835 144.884  0.00  0.00    +0.000 OA
ATOM      3  C   UNL     1     131.566 149.007 144.060  0.00  0.00    +0.000 A 
ATOM      4  C   UNL     1     131.469 149.824 142.995  0.00  0.00    +0.000 A 
ATOM      5  C   UNL     1     131.041 147.624 143.951  0.00  0.00    +0.000 A 
ATOM      6  C   UNL     1     130.439 147.255 142.661  0.00  0.00    +0.000 A 
ATOM      7  C   UNL     1     130.395 148.204 141.641  0.00  0.00    +0.000 A 
ATOM      8  C   UNL     1     129.919 145.975 142.456  0.00  0.00    +0.000 A 
ATOM      9  C   UNL     1     129.828 147.879 140.410  0.00  0.00    +0.000 A 
ATOM     10  C   UNL     1     129.351 145.652 141.222  0.00  0.00    +0.000 A 
ATOM     11  C   UNL     1     129.306 146.601 140.201  0.00  0.00    +0.000 A 
ENDROOT
BRANCH   4  12
ATOM     12  C   UNL     1     131.958 151.215 143.018  0.00  0.00    +0.000 A 
ATOM     13  C   UNL     1     133.281 151.496 142.674  0.00  0.00    +0.000 A 
ATOM     14  C   UNL     1     131.097 152.250 143.383  0.00  0.00    +0.000 A 
ATOM     15  C   UNL     1     133.742 152.811 142.695  0.00  0.00    +0.000 A 
ATOM     16  C   UNL     1     131.559 153.566 143.404  0.00  0.00    +0.000 A 
ATOM     17  C   UNL     1     132.881 153.847 143.060  0.00  0.00    +0.000 A 
BRANCH  17  18
ATOM     18  O   UNL     1     133.333 155.131 143.080  0.00  0.00    +0.000 OA
ATOM     19  H   UNL     1     133.007 155.593 142.288  0.00  0.00    +0.000 HD
ENDBRANCH  17  18
ENDBRANCH   4  12
BRANCH   8  20
ATOM     20  O   UNL     1     129.936 145.011 143.419  0.00  0.00    +0.000 OA
ATOM     21  H   UNL     1     129.939 144.129 143.016  0.00  0.00    +0.000 HD
ENDBRANCH   8  20
BRANCH  11  22
ATOM     22  O   UNL     1     128.753 146.281 138.999  0.00  0.00    +0.000 OA
ATOM     23  H   UNL     1     128.513 145.338 139.003  0.00  0.00    +0.000 HD
ENDBRANCH  11  22
BRANCH   3  24
ATOM     24  O   UNL     1     132.119 149.397 145.261  0.00  0.00    +0.000 OA
BRANCH  24  29
ATOM     25  O   UNL     1     130.984 151.173 146.335  0.00  0.00    +0.000 OA
ATOM     26  C   UNL     1     132.679 149.753 148.179  0.00  0.00    +0.000 C 
ATOM     27  C   UNL     1     131.424 149.125 147.570  0.00  0.00    +0.000 C 
ATOM     28  C   UNL     1     132.549 151.277 148.209  0.00  0.00    +0.000 C 
ATOM     29  C   UNL     1     131.114 149.755 146.209  0.00  0.00    +0.000 C 
ATOM     30  C   UNL     1     132.165 151.814 146.833  0.00  0.00    +0.000 C 
BRANCH  26  31
ATOM     31  O   UNL     1     132.880 149.279 149.507  0.00  0.00    +0.000 OA
ATOM     32  H   UNL     1     132.098 149.532 150.027  0.00  0.00    +0.000 HD
ENDBRANCH  26  31
BRANCH  27  33
ATOM     33  O   UNL     1     131.597 147.722 147.404  0.00  0.00    +0.000 OA
ATOM     34  H   UNL     1     132.343 147.586 146.796  0.00  0.00    +0.000 HD
ENDBRANCH  27  33
BRANCH  28  35
ATOM     35  O   UNL     1     131.527 151.643 149.140  0.00  0.00    +0.000 OA
ATOM     36  H   UNL     1     130.919 150.889 149.218  0.00  0.00    +0.000 HD
ENDBRANCH  28  35
ENDBRANCH  24  29
ENDBRANCH   3  24
TORSDOF 9
ENDMDL
MODEL 8
REMARK VINA RESULT:    -7.951     19.558     21.948
REMARK INTER + INTRA:         -11.972
REMARK INTER:                 -10.801
REMARK INTRA:                  -1.171
REMARK UNBOUND:                -1.232
REMARK  Name = 14749097
REMARK  9 active torsions:
REMARK  status: ('A' for Active; 'I' for Inactive)
REMARK    1  A    between atoms: O_2  and  C_14
REMARK    2  A    between atoms: O_2  and  C_16
REMARK    3  A    between atoms: O_3  and  C_11
REMARK    4  A    between atoms: O_4  and  C_12
REMARK    5  A    between atoms: O_5  and  C_13
REMARK    6  A    between atoms: O_8  and  C_22
REMARK    7  A    between atoms: O_9  and  C_27
REMARK    8  A    between atoms: O_10  and  C_30
REMARK    9  A    between atoms: C_17  and  C_21
REMARK                            x       y       z     vdW  Elec       q    Type
REMARK                         _______ _______ _______ _____ _____    ______ ____
ROOT
ATOM      1  O   UNL     1     117.645 154.890 166.760  0.00  0.00    +0.000 OA
ATOM      2  O   UNL     1     113.971 153.137 166.946  0.00  0.00    +0.000 OA
ATOM      3  C   UNL     1     115.775 153.883 165.605  0.00  0.00    +0.000 A 
ATOM      4  C   UNL     1     116.984 154.475 165.615  0.00  0.00    +0.000 A 
ATOM      5  C   UNL     1     115.073 153.667 166.893  0.00  0.00    +0.000 A 
ATOM      6  C   UNL     1     115.775 154.123 168.103  0.00  0.00    +0.000 A 
ATOM      7  C   UNL     1     117.029 154.714 167.972  0.00  0.00    +0.000 A 
ATOM      8  C   UNL     1     115.196 153.968 169.365  0.00  0.00    +0.000 A 
ATOM      9  C   UNL     1     117.716 155.152 169.104  0.00  0.00    +0.000 A 
ATOM     10  C   UNL     1     115.885 154.408 170.497  0.00  0.00    +0.000 A 
ATOM     11  C   UNL     1     117.142 154.998 170.367  0.00  0.00    +0.000 A 
ENDROOT
BRANCH   4  12
ATOM     12  C   UNL     1     117.755 154.722 164.384  0.00  0.00    +0.000 A 
ATOM     13  C   UNL     1     118.706 153.794 163.958  0.00  0.00    +0.000 A 
ATOM     14  C   UNL     1     117.532 155.883 163.643  0.00  0.00    +0.000 A 
ATOM     15  C   UNL     1     119.435 154.028 162.792  0.00  0.00    +0.000 A 
ATOM     16  C   UNL     1     118.261 156.117 162.477  0.00  0.00    +0.000 A 
ATOM     17  C   UNL     1     119.212 155.189 162.051  0.00  0.00    +0.000 A 
BRANCH  17  18
ATOM     18  O   UNL     1     119.924 155.416 160.913  0.00  0.00    +0.000 OA
ATOM     19  H   UNL     1     120.259 154.568 160.576  0.00  0.00    +0.000 HD
ENDBRANCH  17  18
ENDBRANCH   4  12
BRANCH   8  20
ATOM     20  O   UNL     1     113.972 153.397 169.548  0.00  0.00    +0.000 OA
ATOM     21  H   UNL     1     113.300 154.077 169.702  0.00  0.00    +0.000 HD
ENDBRANCH   8  20
BRANCH  11  22
ATOM     22  O   UNL     1     117.809 155.427 171.474  0.00  0.00    +0.000 OA
ATOM     23  H   UNL     1     118.116 154.652 171.976  0.00  0.00    +0.000 HD
ENDBRANCH  11  22
BRANCH   3  24
ATOM     24  O   UNL     1     115.158 153.451 164.451  0.00  0.00    +0.000 OA
BRANCH  24  29
ATOM     25  O   UNL     1     116.148 151.480 163.592  0.00  0.00    +0.000 OA
ATOM     26  C   UNL     1     113.581 151.968 162.384  0.00  0.00    +0.000 C 
ATOM     27  C   UNL     1     113.732 151.579 163.856  0.00  0.00    +0.000 C 
ATOM     28  C   UNL     1     114.772 151.454 161.574  0.00  0.00    +0.000 C 
ATOM     29  C   UNL     1     115.096 152.026 164.392  0.00  0.00    +0.000 C 
ATOM     30  C   UNL     1     116.088 151.879 162.218  0.00  0.00    +0.000 C 
BRANCH  26  31
ATOM     31  O   UNL     1     112.382 151.420 161.844  0.00  0.00    +0.000 OA
ATOM     32  H   UNL     1     111.844 151.106 162.591  0.00  0.00    +0.000 HD
ENDBRANCH  26  31
BRANCH  27  33
ATOM     33  O   UNL     1     112.707 152.177 164.640  0.00  0.00    +0.000 OA
ATOM     34  H   UNL     1     111.943 151.576 164.640  0.00  0.00    +0.000 HD
ENDBRANCH  27  33
BRANCH  28  35
ATOM     35  O   UNL     1     114.729 150.026 161.530  0.00  0.00    +0.000 OA
ATOM     36  H   UNL     1     114.401 149.770 160.651  0.00  0.00    +0.000 HD
ENDBRANCH  28  35
ENDBRANCH  24  29
ENDBRANCH   3  24
TORSDOF 9
ENDMDL
MODEL 9
REMARK VINA RESULT:    -7.929      1.944      7.024
REMARK INTER + INTRA:         -11.942
REMARK INTER:                 -10.778
REMARK INTRA:                  -1.165
REMARK UNBOUND:                -1.232
REMARK  Name = 14749097
REMARK  9 active torsions:
REMARK  status: ('A' for Active; 'I' for Inactive)
REMARK    1  A    between atoms: O_2  and  C_14
REMARK    2  A    between atoms: O_2  and  C_16
REMARK    3  A    between atoms: O_3  and  C_11
REMARK    4  A    between atoms: O_4  and  C_12
REMARK    5  A    between atoms: O_5  and  C_13
REMARK    6  A    between atoms: O_8  and  C_22
REMARK    7  A    between atoms: O_9  and  C_27
REMARK    8  A    between atoms: O_10  and  C_30
REMARK    9  A    between atoms: C_17  and  C_21
REMARK                            x       y       z     vdW  Elec       q    Type
REMARK                         _______ _______ _______ _____ _____    ______ ____
ROOT
ATOM      1  O   UNL     1     118.865 149.555 147.000  0.00  0.00    +0.000 OA
ATOM      2  O   UNL     1     120.236 151.703 143.820  0.00  0.00    +0.000 OA
ATOM      3  C   UNL     1     120.683 150.745 145.939  0.00  0.00    +0.000 A 
ATOM      4  C   UNL     1     120.163 150.037 146.959  0.00  0.00    +0.000 A 
ATOM      5  C   UNL     1     119.821 151.061 144.775  0.00  0.00    +0.000 A 
ATOM      6  C   UNL     1     118.439 150.558 144.831  0.00  0.00    +0.000 A 
ATOM      7  C   UNL     1     118.032 149.829 145.946  0.00  0.00    +0.000 A 
ATOM      8  C   UNL     1     117.546 150.806 143.785  0.00  0.00    +0.000 A 
ATOM      9  C   UNL     1     116.728 149.339 146.021  0.00  0.00    +0.000 A 
ATOM     10  C   UNL     1     116.242 150.315 143.863  0.00  0.00    +0.000 A 
ATOM     11  C   UNL     1     115.834 149.584 144.978  0.00  0.00    +0.000 A 
ENDROOT
BRANCH   4  12
ATOM     12  C   UNL     1     120.950 149.672 148.151  0.00  0.00    +0.000 A 
ATOM     13  C   UNL     1     121.017 150.545 149.237  0.00  0.00    +0.000 A 
ATOM     14  C   UNL     1     121.627 148.453 148.193  0.00  0.00    +0.000 A 
ATOM     15  C   UNL     1     121.761 150.199 150.365  0.00  0.00    +0.000 A 
ATOM     16  C   UNL     1     122.371 148.107 149.321  0.00  0.00    +0.000 A 
ATOM     17  C   UNL     1     122.438 148.979 150.407  0.00  0.00    +0.000 A 
BRANCH  17  18
ATOM     18  O   UNL     1     123.163 148.643 151.508  0.00  0.00    +0.000 OA
ATOM     19  H   UNL     1     123.608 149.437 151.849  0.00  0.00    +0.000 HD
ENDBRANCH  17  18
ENDBRANCH   4  12
BRANCH   8  20
ATOM     20  O   UNL     1     117.894 151.513 142.673  0.00  0.00    +0.000 OA
ATOM     21  H   UNL     1     117.327 152.293 142.576  0.00  0.00    +0.000 HD
ENDBRANCH   8  20
BRANCH  11  22
ATOM     22  O   UNL     1     114.560 149.108 145.050  0.00  0.00    +0.000 OA
ATOM     23  H   UNL     1     114.536 148.211 144.674  0.00  0.00    +0.000 HD
ENDBRANCH  11  22
BRANCH   3  24
ATOM     24  O   UNL     1     121.990 151.181 145.915  0.00  0.00    +0.000 OA
BRANCH  24  29
ATOM     25  O   UNL     1     123.601 149.449 145.892  0.00  0.00    +0.000 OA
ATOM     26  C   UNL     1     124.744 151.945 145.026  0.00  0.00    +0.000 C 
ATOM     27  C   UNL     1     123.704 151.188 144.196  0.00  0.00    +0.000 C 
ATOM     28  C   UNL     1     125.507 150.977 145.932  0.00  0.00    +0.000 C 
ATOM     29  C   UNL     1     122.809 150.339 145.103  0.00  0.00    +0.000 C 
ATOM     30  C   UNL     1     124.540 150.119 146.742  0.00  0.00    +0.000 C 
BRANCH  26  31
ATOM     31  O   UNL     1     125.671 152.612 144.175  0.00  0.00    +0.000 OA
ATOM     32  H   UNL     1     125.953 153.423 144.632  0.00  0.00    +0.000 HD
ENDBRANCH  26  31
BRANCH  27  33
ATOM     33  O   UNL     1     122.892 152.097 143.462  0.00  0.00    +0.000 OA
ATOM     34  H   UNL     1     122.210 152.439 144.065  0.00  0.00    +0.000 HD
ENDBRANCH  27  33
BRANCH  28  35
ATOM     35  O   UNL     1     126.312 150.114 145.124  0.00  0.00    +0.000 OA
ATOM     36  H   UNL     1     125.742 149.752 144.424  0.00  0.00    +0.000 HD
ENDBRANCH  28  35
ENDBRANCH  24  29
ENDBRANCH   3  24
TORSDOF 9
ENDMDL
MODEL 10
REMARK VINA RESULT:    -7.901     21.549     24.726
REMARK INTER + INTRA:         -11.905
REMARK INTER:                 -10.722
REMARK INTRA:                  -1.184
REMARK UNBOUND:                -1.232
REMARK  Name = 14749097
REMARK  9 active torsions:
REMARK  status: ('A' for Active; 'I' for Inactive)
REMARK    1  A    between atoms: O_2  and  C_14
REMARK    2  A    between atoms: O_2  and  C_16
REMARK    3  A    between atoms: O_3  and  C_11
REMARK    4  A    between atoms: O_4  and  C_12
REMARK    5  A    between atoms: O_5  and  C_13
REMARK    6  A    between atoms: O_8  and  C_22
REMARK    7  A    between atoms: O_9  and  C_27
REMARK    8  A    between atoms: O_10  and  C_30
REMARK    9  A    between atoms: C_17  and  C_21
REMARK                            x       y       z     vdW  Elec       q    Type
REMARK                         _______ _______ _______ _____ _____    ______ ____
ROOT
ATOM      1  O   UNL     1     105.144 143.287 166.553  0.00  0.00    +0.000 OA
ATOM      2  O   UNL     1     107.779 144.054 163.540  0.00  0.00    +0.000 OA
ATOM      3  C   UNL     1     105.524 143.923 164.251  0.00  0.00    +0.000 A 
ATOM      4  C   UNL     1     104.710 143.649 165.288  0.00  0.00    +0.000 A 
ATOM      5  C   UNL     1     106.990 143.820 164.446  0.00  0.00    +0.000 A 
ATOM      6  C   UNL     1     107.443 143.423 165.788  0.00  0.00    +0.000 A 
ATOM      7  C   UNL     1     106.492 143.176 166.775  0.00  0.00    +0.000 A 
ATOM      8  C   UNL     1     108.805 143.293 166.072  0.00  0.00    +0.000 A 
ATOM      9  C   UNL     1     106.897 142.800 168.056  0.00  0.00    +0.000 A 
ATOM     10  C   UNL     1     109.208 142.916 167.355  0.00  0.00    +0.000 A 
ATOM     11  C   UNL     1     108.256 142.670 168.344  0.00  0.00    +0.000 A 
ENDROOT
BRANCH   4  12
ATOM     12  C   UNL     1     103.242 143.734 165.185  0.00  0.00    +0.000 A 
ATOM     13  C   UNL     1     102.541 144.662 165.954  0.00  0.00    +0.000 A 
ATOM     14  C   UNL     1     102.554 142.885 164.318  0.00  0.00    +0.000 A 
ATOM     15  C   UNL     1     101.152 144.742 165.856  0.00  0.00    +0.000 A 
ATOM     16  C   UNL     1     101.164 142.965 164.220  0.00  0.00    +0.000 A 
ATOM     17  C   UNL     1     100.464 143.894 164.989  0.00  0.00    +0.000 A 
BRANCH  17  18
ATOM     18  O   UNL     1      99.109 143.973 164.894  0.00  0.00    +0.000 OA
ATOM     19  H   UNL     1      98.769 144.488 165.645  0.00  0.00    +0.000 HD
ENDBRANCH  17  18
ENDBRANCH   4  12
BRANCH   8  20
ATOM     20  O   UNL     1     109.776 143.523 165.144  0.00  0.00    +0.000 OA
ATOM     21  H   UNL     1     109.523 143.146 164.287  0.00  0.00    +0.000 HD
ENDBRANCH   8  20
BRANCH  11  22
ATOM     22  O   UNL     1     108.654 142.302 169.593  0.00  0.00    +0.000 OA
ATOM     23  H   UNL     1     108.049 142.696 170.246  0.00  0.00    +0.000 HD
ENDBRANCH  11  22
BRANCH   3  24
ATOM     24  O   UNL     1     105.061 144.313 163.013  0.00  0.00    +0.000 OA
BRANCH  24  29
ATOM     25  O   UNL     1     104.164 146.495 163.199  0.00  0.00    +0.000 OA
ATOM     26  C   UNL     1     104.358 145.680 160.445  0.00  0.00    +0.000 C 
ATOM     27  C   UNL     1     105.592 145.955 161.306  0.00  0.00    +0.000 C 
ATOM     28  C   UNL     1     103.156 146.464 160.974  0.00  0.00    +0.000 C 
ATOM     29  C   UNL     1     105.281 145.705 162.785  0.00  0.00    +0.000 C 
ATOM     30  C   UNL     1     102.964 146.217 162.467  0.00  0.00    +0.000 C 
BRANCH  26  31
ATOM     31  O   UNL     1     104.599 146.058 159.093  0.00  0.00    +0.000 OA
ATOM     32  H   UNL     1     105.188 146.832 159.108  0.00  0.00    +0.000 HD
ENDBRANCH  26  31
BRANCH  27  33
ATOM     33  O   UNL     1     106.674 145.119 160.912  0.00  0.00    +0.000 OA
ATOM     34  H   UNL     1     107.110 144.796 161.719  0.00  0.00    +0.000 HD
ENDBRANCH  27  33
BRANCH  28  35
ATOM     35  O   UNL     1     103.379 147.861 160.771  0.00  0.00    +0.000 OA
ATOM     36  H   UNL     1     102.695 148.181 160.158  0.00  0.00    +0.000 HD
ENDBRANCH  28  35
ENDBRANCH  24  29
ENDBRANCH   3  24
TORSDOF 9
ENDMDL
