REMARK VINA RESULT:      -7.5      4.149      9.814
REMARK  13 active torsions:
REMARK  status: ('A' for Active; 'I' for Inactive)
REMARK    1  A    between atoms: O_2  and  C_16 
REMARK    2  A    between atoms: O_2  and  C_17 
REMARK    3  A    between atoms: O_4  and  C_12 
REMARK    4  A    between atoms: O_5  and  C_13 
REMARK    5  A    between atoms: O_6  and  C_15 
REMARK    6  A    between atoms: O_6  and  C_22 
REMARK    7  A    between atoms: O_7  and  C_14 
REMARK    8  A    between atoms: O_8  and  C_18 
REMARK    9  A    between atoms: O_9  and  C_19 
REMARK   10  A    between atoms: O_10  and  C_20 
REMARK   11  A    between atoms: C_11  and  C_16 
REMARK   12  A    between atoms: C_22  and  C_23 
REMARK   13  A    between atoms: C_24  and  C_25 
ROOT
HETATM    1  O   UNK     0     185.562 184.831 172.455  0.00  0.00    -0.348 OA
HETATM    2  C   UNK     0     185.934 183.677 173.210  0.00  0.00     0.180 C 
HETATM    3  C   UNK     0     185.881 183.993 174.707  0.00  0.00     0.180 C 
HETATM    4  C   UNK     0     186.761 185.197 175.039  0.00  0.00     0.183 C 
HETATM    5  C   UNK     0     186.475 186.368 174.098  0.00  0.00     0.204 C 
HETATM    6  C   UNK     0     186.466 185.918 172.638  0.00  0.00     0.291 C 
ENDROOT
BRANCH   2   7
HETATM    7  C   UNK     0     184.973 182.552 172.835  0.00  0.00     0.205 C 
BRANCH   7   8
HETATM    8  O   UNK     0     183.854 183.117 172.178  0.00  0.00    -0.356 OA
BRANCH   8   9
HETATM    9  C   UNK     0     182.817 182.160 171.985  0.00  0.00     0.290 C 
HETATM   10  O   UNK     0     181.752 182.678 171.180  0.00  0.00    -0.356 OA
HETATM   11  C   UNK     0     181.022 183.732 171.803  0.00  0.00     0.205 C 
HETATM   12  C   UNK     0     180.379 183.249 173.097  0.00  0.00     0.173 C 
HETATM   13  C   UNK     0     181.440 182.705 174.055  0.00  0.00     0.182 C 
HETATM   14  C   UNK     0     182.306 181.659 173.345  0.00  0.00     0.204 C 
BRANCH  12  15
HETATM   15  O   UNK     0     179.664 184.306 173.720  0.00  0.00    -0.391 OA
HETATM   16  H   UNK     0     179.334 183.975 174.574  0.00  0.00     0.210 HD
ENDBRANCH  12  15
BRANCH  13  17
HETATM   17  O   UNK     0     182.263 183.779 174.507  0.00  0.00    -0.390 OA
HETATM   18  H   UNK     0     181.909 184.600 174.123  0.00  0.00     0.210 HD
ENDBRANCH  13  17
BRANCH  14  19
HETATM   19  O   UNK     0     181.536 180.480 173.120  0.00  0.00    -0.388 OA
HETATM   20  H   UNK     0     181.967 179.961 172.420  0.00  0.00     0.210 HD
ENDBRANCH  14  19
ENDBRANCH   8   9
ENDBRANCH   7   8
ENDBRANCH   2   7
BRANCH   6  21
HETATM   21  O   UNK     0     186.054 187.027 171.839  0.00  0.00    -0.355 OA
BRANCH  21  22
HETATM   22  C   UNK     0     185.515 186.597 170.598  0.00  0.00     0.198 C 
BRANCH  22  23
HETATM   23  C   UNK     0     184.310 187.426 170.285  0.00  0.00     0.000 C 
HETATM   24  C   UNK     0     184.370 188.592 169.624  0.00  0.00     0.009 C 
BRANCH  24  25
HETATM   25  C   UNK     0     183.211 189.434 169.280  0.00  0.00    -0.036 A 
HETATM   26  C   UNK     0     182.004 188.832 168.963  0.00  0.00     0.011 A 
HETATM   27  C   UNK     0     180.906 189.629 168.638  0.00  0.00     0.001 A 
HETATM   28  C   UNK     0     181.030 191.018 168.635  0.00  0.00     0.000 A 
HETATM   29  C   UNK     0     182.251 191.610 168.956  0.00  0.00     0.001 A 
HETATM   30  C   UNK     0     183.349 190.813 169.282  0.00  0.00     0.011 A 
ENDBRANCH  24  25
ENDBRANCH  22  23
ENDBRANCH  21  22
ENDBRANCH   6  21
BRANCH   3  31
HETATM   31  O   UNK     0     186.333 182.860 175.444  0.00  0.00    -0.390 OA
HETATM   32  H   UNK     0     186.196 183.044 176.390  0.00  0.00     0.210 HD
ENDBRANCH   3  31
BRANCH   5  33
HETATM   33  O   UNK     0     187.490 187.360 174.255  0.00  0.00    -0.388 OA
HETATM   34  H   UNK     0     187.056 188.207 174.450  0.00  0.00     0.210 HD
ENDBRANCH   5  33
BRANCH   4  35
HETATM   35  O   UNK     0     186.484 185.589 176.385  0.00  0.00    -0.390 OA
HETATM   36  H   UNK     0     187.223 186.147 176.683  0.00  0.00     0.210 HD
ENDBRANCH   4  35
TORSDOF 13
