REMARK VINA RESULT:      -7.8      1.147      1.565
REMARK  13 active torsions:
REMARK  status: ('A' for Active; 'I' for Inactive)
REMARK    1  A    between atoms: O_2  and  C_16 
REMARK    2  A    between atoms: O_2  and  C_17 
REMARK    3  A    between atoms: O_4  and  C_12 
REMARK    4  A    between atoms: O_5  and  C_13 
REMARK    5  A    between atoms: O_6  and  C_15 
REMARK    6  A    between atoms: O_6  and  C_22 
REMARK    7  A    between atoms: O_7  and  C_14 
REMARK    8  A    between atoms: O_8  and  C_18 
REMARK    9  A    between atoms: O_9  and  C_19 
REMARK   10  A    between atoms: O_10  and  C_20 
REMARK   11  A    between atoms: C_11  and  C_16 
REMARK   12  A    between atoms: C_22  and  C_23 
REMARK   13  A    between atoms: C_24  and  C_25 
ROOT
HETATM    1  O   UNK     0     182.610 181.068 173.573  0.00  0.00    -0.348 OA
HETATM    2  C   UNK     0     183.125 182.391 173.422  0.00  0.00     0.180 C 
HETATM    3  C   UNK     0     182.066 183.415 173.839  0.00  0.00     0.180 C 
HETATM    4  C   UNK     0     180.775 183.213 173.047  0.00  0.00     0.183 C 
HETATM    5  C   UNK     0     180.335 181.748 173.069  0.00  0.00     0.204 C 
HETATM    6  C   UNK     0     181.494 180.815 172.724  0.00  0.00     0.291 C 
ENDROOT
BRANCH   2   7
HETATM    7  C   UNK     0     184.383 182.498 174.280  0.00  0.00     0.205 C 
BRANCH   7   8
HETATM    8  O   UNK     0     185.157 183.586 173.811  0.00  0.00    -0.356 OA
BRANCH   8   9
HETATM    9  C   UNK     0     185.676 184.365 174.884  0.00  0.00     0.290 C 
HETATM   10  O   UNK     0     185.213 185.720 174.837  0.00  0.00    -0.356 OA
HETATM   11  C   UNK     0     185.702 186.456 173.718  0.00  0.00     0.205 C 
HETATM   12  C   UNK     0     187.223 186.529 173.746  0.00  0.00     0.173 C 
HETATM   13  C   UNK     0     187.830 185.125 173.759  0.00  0.00     0.182 C 
HETATM   14  C   UNK     0     187.211 184.293 174.887  0.00  0.00     0.204 C 
BRANCH  12  15
HETATM   15  O   UNK     0     187.705 187.252 172.623  0.00  0.00    -0.391 OA
HETATM   16  H   UNK     0     187.999 188.124 172.939  0.00  0.00     0.210 HD
ENDBRANCH  12  15
BRANCH  13  17
HETATM   17  O   UNK     0     187.579 184.491 172.506  0.00  0.00    -0.390 OA
HETATM   18  H   UNK     0     187.051 185.106 171.968  0.00  0.00     0.210 HD
ENDBRANCH  13  17
BRANCH  14  19
HETATM   19  O   UNK     0     187.673 184.783 176.144  0.00  0.00    -0.388 OA
HETATM   20  H   UNK     0     188.283 185.522 175.981  0.00  0.00     0.210 HD
ENDBRANCH  14  19
ENDBRANCH   8   9
ENDBRANCH   7   8
ENDBRANCH   2   7
BRANCH   6  21
HETATM   21  O   UNK     0     181.046 179.472 172.904  0.00  0.00    -0.355 OA
BRANCH  21  22
HETATM   22  C   UNK     0     181.785 178.568 172.098  0.00  0.00     0.198 C 
BRANCH  22  23
HETATM   23  C   UNK     0     181.110 177.234 172.130  0.00  0.00     0.000 C 
HETATM   24  C   UNK     0     180.309 176.838 173.130  0.00  0.00     0.009 C 
BRANCH  24  25
HETATM   25  C   UNK     0     179.612 175.541 173.198  0.00  0.00    -0.036 A 
HETATM   26  C   UNK     0     180.294 174.385 172.852  0.00  0.00     0.011 A 
HETATM   27  C   UNK     0     179.634 173.157 172.916  0.00  0.00     0.001 A 
HETATM   28  C   UNK     0     178.302 173.103 173.326  0.00  0.00     0.000 A 
HETATM   29  C   UNK     0     177.629 174.274 173.671  0.00  0.00     0.001 A 
HETATM   30  C   UNK     0     178.289 175.502 173.607  0.00  0.00     0.011 A 
ENDBRANCH  24  25
ENDBRANCH  22  23
ENDBRANCH  21  22
ENDBRANCH   6  21
BRANCH   3  31
HETATM   31  O   UNK     0     182.563 184.730 173.605  0.00  0.00    -0.390 OA
HETATM   32  H   UNK     0     182.446 185.245 174.422  0.00  0.00     0.210 HD
ENDBRANCH   3  31
BRANCH   5  33
HETATM   33  O   UNK     0     179.299 181.552 172.108  0.00  0.00    -0.388 OA
HETATM   34  H   UNK     0     179.714 181.436 171.236  0.00  0.00     0.210 HD
ENDBRANCH   5  33
BRANCH   4  35
HETATM   35  O   UNK     0     179.760 184.024 173.642  0.00  0.00    -0.390 OA
HETATM   36  H   UNK     0     179.260 184.440 172.920  0.00  0.00     0.210 HD
ENDBRANCH   4  35
TORSDOF 13
