MODEL 1
REMARK VINA RESULT:      -9.1      0.000      0.000
REMARK  11 active torsions:
REMARK  status: ('A' for Active; 'I' for Inactive)
REMARK    1  A    between atoms: C_13  and  O_12 
REMARK    2  A    between atoms: C_15  and  O_33 
REMARK    3  A    between atoms: C_19  and  C_20 
REMARK    4  A    between atoms: C_23  and  O_27 
REMARK    5  A    between atoms: C_24  and  O_25 
REMARK    6  A    between atoms: O_12  and  C_2 
REMARK    7  A    between atoms: C_3  and  O_10 
REMARK    8  A    between atoms: C_4  and  O_8 
REMARK    9  A    between atoms: C_5  and  O_6 
REMARK   10  A    between atoms: C_36  and  C_37 
REMARK   11  A    between atoms: C_37  and  O_38 
ROOT
ATOM      1  C   LIG     1       4.096  44.083  21.790  0.00  0.00     0.131 A 
ATOM      2  C   LIG     1       3.270  43.167  21.140  0.00  0.00     0.092 A 
ATOM      3  C   LIG     1       2.654  42.143  21.861  0.00  0.00     0.135 A 
ATOM      4  C   LIG     1       2.870  42.044  23.237  0.00  0.00     0.105 A 
ATOM      5  C   LIG     1       2.236  40.975  24.024  0.00  0.00     0.197 A 
ATOM      6  C   LIG     1       2.534  40.966  25.471  0.00  0.00     0.098 A 
ATOM      7  C   LIG     1       3.342  41.908  25.982  0.00  0.00     0.139 A 
ATOM      8  O   LIG     1       3.945  42.909  25.237  0.00  0.00    -0.454 OA
ATOM      9  O   LIG     1       1.504  40.137  23.517  0.00  0.00    -0.287 OA
ATOM     10  C   LIG     1       3.696  42.960  23.888  0.00  0.00     0.146 A 
ATOM     11  C   LIG     1       4.311  43.981  23.165  0.00  0.00     0.093 A 
ENDROOT
BRANCH   1  12
ATOM     12  O   LIG     1       4.697  45.082  21.080  0.00  0.00    -0.461 OA
BRANCH  12  13
ATOM     13  C   LIG     1       5.989  44.797  20.546  0.00  0.00     0.339 C 
ATOM     14  C   LIG     1       5.992  45.212  19.075  0.00  0.00     0.214 C 
ATOM     15  C   LIG     1       7.387  45.081  18.462  0.00  0.00     0.180 C 
ATOM     16  C   LIG     1       8.445  45.732  19.352  0.00  0.00     0.177 C 
ATOM     17  C   LIG     1       8.303  45.259  20.801  0.00  0.00     0.179 C 
ATOM     18  O   LIG     1       6.980  45.521  21.271  0.00  0.00    -0.331 OA
BRANCH  14  19
ATOM     19  O   LIG     1       5.084  44.367  18.369  0.00  0.00    -0.383 OA
ATOM     20  H   LIG     1       4.198  44.491  18.751  0.00  0.00     0.210 HD
ENDBRANCH  14  19
BRANCH  15  21
ATOM     21  O   LIG     1       7.412  45.735  17.193  0.00  0.00    -0.386 OA
ATOM     22  H   LIG     1       6.543  46.153  17.064  0.00  0.00     0.210 HD
ENDBRANCH  15  21
BRANCH  16  23
ATOM     23  O   LIG     1       9.742  45.391  18.870  0.00  0.00    -0.386 OA
ATOM     24  H   LIG     1       9.994  44.539  19.264  0.00  0.00     0.210 HD
ENDBRANCH  16  23
BRANCH  17  25
ATOM     25  C   LIG     1       9.273  45.984  21.729  0.00  0.00     0.190 C 
BRANCH  25  26
ATOM     26  O   LIG     1       9.825  47.086  21.032  0.00  0.00    -0.392 OA
ATOM     27  H   LIG     1       9.139  47.433  20.436  0.00  0.00     0.210 HD
ENDBRANCH  25  26
ENDBRANCH  17  25
ENDBRANCH  12  13
ENDBRANCH   1  12
BRANCH   3  28
ATOM     28  O   LIG     1       1.856  41.274  21.180  0.00  0.00    -0.506 OA
ATOM     29  H   LIG     1       2.331  40.898  20.423  0.00  0.00     0.292 HD
ENDBRANCH   3  28
BRANCH   7  30
ATOM     30  C   LIG     1       3.682  41.943  27.420  0.00  0.00     0.021 A 
ATOM     31  C   LIG     1       2.801  41.409  28.362  0.00  0.00     0.015 A 
ATOM     32  C   LIG     1       3.121  41.444  29.719  0.00  0.00     0.050 A 
ATOM     33  C   LIG     1       4.325  42.012  30.137  0.00  0.00     0.158 A 
ATOM     34  C   LIG     1       5.207  42.546  29.198  0.00  0.00     0.159 A 
ATOM     35  C   LIG     1       4.886  42.512  27.841  0.00  0.00     0.060 A 
BRANCH  33  36
ATOM     36  O   LIG     1       4.625  42.040  31.465  0.00  0.00    -0.503 OA
ATOM     37  H   LIG     1       4.289  42.869  31.849  0.00  0.00     0.292 HD
ENDBRANCH  33  36
BRANCH  34  38
ATOM     38  O   LIG     1       6.386  43.102  29.596  0.00  0.00    -0.503 OA
ATOM     39  H   LIG     1       6.779  42.530  30.277  0.00  0.00     0.292 HD
ENDBRANCH  34  38
ENDBRANCH   7  30
TORSDOF 11
ENDMDL
MODEL 2
REMARK VINA RESULT:      -9.0      1.951      8.294
REMARK  11 active torsions:
REMARK  status: ('A' for Active; 'I' for Inactive)
REMARK    1  A    between atoms: C_13  and  O_12 
REMARK    2  A    between atoms: C_15  and  O_33 
REMARK    3  A    between atoms: C_19  and  C_20 
REMARK    4  A    between atoms: C_23  and  O_27 
REMARK    5  A    between atoms: C_24  and  O_25 
REMARK    6  A    between atoms: O_12  and  C_2 
REMARK    7  A    between atoms: C_3  and  O_10 
REMARK    8  A    between atoms: C_4  and  O_8 
REMARK    9  A    between atoms: C_5  and  O_6 
REMARK   10  A    between atoms: C_36  and  C_37 
REMARK   11  A    between atoms: C_37  and  O_38 
ROOT
ATOM      1  C   LIG     1       2.667  41.074  25.827  0.00  0.00     0.131 A 
ATOM      2  C   LIG     1       1.951  40.065  25.181  0.00  0.00     0.092 A 
ATOM      3  C   LIG     1       1.802  40.089  23.794  0.00  0.00     0.135 A 
ATOM      4  C   LIG     1       2.374  41.130  23.058  0.00  0.00     0.105 A 
ATOM      5  C   LIG     1       2.233  41.183  21.595  0.00  0.00     0.197 A 
ATOM      6  C   LIG     1       2.879  42.327  20.918  0.00  0.00     0.098 A 
ATOM      7  C   LIG     1       3.546  43.232  21.650  0.00  0.00     0.139 A 
ATOM      8  O   LIG     1       3.671  43.183  23.030  0.00  0.00    -0.454 OA
ATOM      9  O   LIG     1       1.616  40.334  20.966  0.00  0.00    -0.287 OA
ATOM     10  C   LIG     1       3.090  42.138  23.702  0.00  0.00     0.146 A 
ATOM     11  C   LIG     1       3.236  42.112  25.089  0.00  0.00     0.093 A 
ENDROOT
BRANCH   1  12
ATOM     12  O   LIG     1       2.809  41.046  27.184  0.00  0.00    -0.461 OA
BRANCH  12  13
ATOM     13  C   LIG     1       3.777  41.932  27.742  0.00  0.00     0.339 C 
ATOM     14  C   LIG     1       3.667  41.849  29.265  0.00  0.00     0.214 C 
ATOM     15  C   LIG     1       4.772  42.657  29.947  0.00  0.00     0.180 C 
ATOM     16  C   LIG     1       6.142  42.337  29.348  0.00  0.00     0.177 C 
ATOM     17  C   LIG     1       6.099  42.419  27.820  0.00  0.00     0.179 C 
ATOM     18  O   LIG     1       5.082  41.552  27.314  0.00  0.00    -0.331 OA
BRANCH  14  19
ATOM     19  O   LIG     1       2.395  42.368  29.651  0.00  0.00    -0.383 OA
ATOM     20  H   LIG     1       1.892  41.649  30.071  0.00  0.00     0.210 HD
ENDBRANCH  14  19
BRANCH  15  21
ATOM     21  O   LIG     1       4.810  42.331  31.337  0.00  0.00    -0.386 OA
ATOM     22  H   LIG     1       4.503  43.113  31.827  0.00  0.00     0.210 HD
ENDBRANCH  15  21
BRANCH  16  23
ATOM     23  O   LIG     1       7.102  43.267  29.843  0.00  0.00    -0.386 OA
ATOM     24  H   LIG     1       7.444  43.776  29.089  0.00  0.00     0.210 HD
ENDBRANCH  16  23
BRANCH  17  25
ATOM     25  C   LIG     1       7.423  41.990  27.195  0.00  0.00     0.190 C 
BRANCH  25  26
ATOM     26  O   LIG     1       8.245  43.134  27.052  0.00  0.00    -0.392 OA
ATOM     27  H   LIG     1       9.153  42.877  27.289  0.00  0.00     0.210 HD
ENDBRANCH  25  26
ENDBRANCH  17  25
ENDBRANCH  12  13
ENDBRANCH   1  12
BRANCH   3  28
ATOM     28  O   LIG     1       1.095  39.082  23.211  0.00  0.00    -0.506 OA
ATOM     29  H   LIG     1       0.143  39.225  23.323  0.00  0.00     0.292 HD
ENDBRANCH   3  28
BRANCH   7  30
ATOM     30  C   LIG     1       4.205  44.400  21.029  0.00  0.00     0.021 A 
ATOM     31  C   LIG     1       4.197  45.636  21.679  0.00  0.00     0.015 A 
ATOM     32  C   LIG     1       4.817  46.739  21.092  0.00  0.00     0.050 A 
ATOM     33  C   LIG     1       5.448  46.608  19.854  0.00  0.00     0.158 A 
ATOM     34  C   LIG     1       5.457  45.375  19.203  0.00  0.00     0.159 A 
ATOM     35  C   LIG     1       4.836  44.272  19.790  0.00  0.00     0.060 A 
BRANCH  33  36
ATOM     36  O   LIG     1       6.049  47.693  19.291  0.00  0.00    -0.503 OA
ATOM     37  H   LIG     1       6.932  47.437  18.974  0.00  0.00     0.292 HD
ENDBRANCH  33  36
BRANCH  34  38
ATOM     38  O   LIG     1       6.071  45.236  17.995  0.00  0.00    -0.503 OA
ATOM     39  H   LIG     1       6.000  44.306  17.721  0.00  0.00     0.292 HD
ENDBRANCH  34  38
ENDBRANCH   7  30
TORSDOF 11
ENDMDL
MODEL 3
REMARK VINA RESULT:      -8.8      2.626      5.237
REMARK  11 active torsions:
REMARK  status: ('A' for Active; 'I' for Inactive)
REMARK    1  A    between atoms: C_13  and  O_12 
REMARK    2  A    between atoms: C_15  and  O_33 
REMARK    3  A    between atoms: C_19  and  C_20 
REMARK    4  A    between atoms: C_23  and  O_27 
REMARK    5  A    between atoms: C_24  and  O_25 
REMARK    6  A    between atoms: O_12  and  C_2 
REMARK    7  A    between atoms: C_3  and  O_10 
REMARK    8  A    between atoms: C_4  and  O_8 
REMARK    9  A    between atoms: C_5  and  O_6 
REMARK   10  A    between atoms: C_36  and  C_37 
REMARK   11  A    between atoms: C_37  and  O_38 
ROOT
ATOM      1  C   LIG     1       3.679  43.555  22.264  0.00  0.00     0.131 A 
ATOM      2  C   LIG     1       4.080  43.920  23.549  0.00  0.00     0.092 A 
ATOM      3  C   LIG     1       3.762  43.109  24.639  0.00  0.00     0.135 A 
ATOM      4  C   LIG     1       3.041  41.931  24.435  0.00  0.00     0.105 A 
ATOM      5  C   LIG     1       2.690  41.057  25.565  0.00  0.00     0.197 A 
ATOM      6  C   LIG     1       1.927  39.837  25.233  0.00  0.00     0.098 A 
ATOM      7  C   LIG     1       1.603  39.590  23.953  0.00  0.00     0.139 A 
ATOM      8  O   LIG     1       1.929  40.420  22.892  0.00  0.00    -0.454 OA
ATOM      9  O   LIG     1       3.007  41.319  26.716  0.00  0.00    -0.287 OA
ATOM     10  C   LIG     1       2.639  41.565  23.151  0.00  0.00     0.146 A 
ATOM     11  C   LIG     1       2.957  42.377  22.063  0.00  0.00     0.093 A 
ENDROOT
BRANCH   1  12
ATOM     12  O   LIG     1       3.991  44.351  21.201  0.00  0.00    -0.461 OA
BRANCH  12  13
ATOM     13  C   LIG     1       5.239  44.096  20.558  0.00  0.00     0.339 C 
ATOM     14  C   LIG     1       5.023  44.219  19.049  0.00  0.00     0.214 C 
ATOM     15  C   LIG     1       6.345  44.109  18.288  0.00  0.00     0.180 C 
ATOM     16  C   LIG     1       7.412  45.018  18.896  0.00  0.00     0.177 C 
ATOM     17  C   LIG     1       7.495  44.820  20.412  0.00  0.00     0.179 C 
ATOM     18  O   LIG     1       6.212  45.038  21.002  0.00  0.00    -0.331 OA
BRANCH  14  19
ATOM     19  O   LIG     1       4.149  43.171  18.634  0.00  0.00    -0.383 OA
ATOM     20  H   LIG     1       3.822  43.386  17.743  0.00  0.00     0.210 HD
ENDBRANCH  14  19
BRANCH  15  21
ATOM     21  O   LIG     1       6.146  44.506  16.930  0.00  0.00    -0.386 OA
ATOM     22  H   LIG     1       5.353  45.070  16.905  0.00  0.00     0.210 HD
ENDBRANCH  15  21
BRANCH  16  23
ATOM     23  O   LIG     1       8.677  44.717  18.312  0.00  0.00    -0.386 OA
ATOM     24  H   LIG     1       9.262  44.389  19.016  0.00  0.00     0.210 HD
ENDBRANCH  16  23
BRANCH  17  25
ATOM     25  C   LIG     1       8.470  45.800  21.056  0.00  0.00     0.190 C 
BRANCH  25  26
ATOM     26  O   LIG     1       8.594  46.932  20.215  0.00  0.00    -0.392 OA
ATOM     27  H   LIG     1       9.508  46.954  19.882  0.00  0.00     0.210 HD
ENDBRANCH  25  26
ENDBRANCH  17  25
ENDBRANCH  12  13
ENDBRANCH   1  12
BRANCH   3  28
ATOM     28  O   LIG     1       4.176  43.510  25.874  0.00  0.00    -0.506 OA
ATOM     29  H   LIG     1       4.516  44.417  25.841  0.00  0.00     0.292 HD
ENDBRANCH   3  28
BRANCH   7  30
ATOM     30  C   LIG     1       0.834  38.391  23.563  0.00  0.00     0.021 A 
ATOM     31  C   LIG     1      -0.453  38.190  24.065  0.00  0.00     0.015 A 
ATOM     32  C   LIG     1      -1.179  37.057  23.698  0.00  0.00     0.050 A 
ATOM     33  C   LIG     1      -0.619  36.122  22.827  0.00  0.00     0.158 A 
ATOM     34  C   LIG     1       0.668  36.320  22.325  0.00  0.00     0.159 A 
ATOM     35  C   LIG     1       1.393  37.453  22.692  0.00  0.00     0.060 A 
BRANCH  33  36
ATOM     36  O   LIG     1      -1.337  35.018  22.477  0.00  0.00    -0.503 OA
ATOM     37  H   LIG     1      -1.688  35.141  21.577  0.00  0.00     0.292 HD
ENDBRANCH  33  36
BRANCH  34  38
ATOM     38  O   LIG     1       1.224  35.413  21.472  0.00  0.00    -0.503 OA
ATOM     39  H   LIG     1       0.825  34.544  21.647  0.00  0.00     0.292 HD
ENDBRANCH  34  38
ENDBRANCH   7  30
TORSDOF 11
ENDMDL
MODEL 4
REMARK VINA RESULT:      -8.7      2.063      3.014
REMARK  11 active torsions:
REMARK  status: ('A' for Active; 'I' for Inactive)
REMARK    1  A    between atoms: C_13  and  O_12 
REMARK    2  A    between atoms: C_15  and  O_33 
REMARK    3  A    between atoms: C_19  and  C_20 
REMARK    4  A    between atoms: C_23  and  O_27 
REMARK    5  A    between atoms: C_24  and  O_25 
REMARK    6  A    between atoms: O_12  and  C_2 
REMARK    7  A    between atoms: C_3  and  O_10 
REMARK    8  A    between atoms: C_4  and  O_8 
REMARK    9  A    between atoms: C_5  and  O_6 
REMARK   10  A    between atoms: C_36  and  C_37 
REMARK   11  A    between atoms: C_37  and  O_38 
ROOT
ATOM      1  C   LIG     1       6.163  44.234  20.692  0.00  0.00     0.131 A 
ATOM      2  C   LIG     1       5.310  43.928  19.631  0.00  0.00     0.092 A 
ATOM      3  C   LIG     1       4.144  43.196  19.858  0.00  0.00     0.135 A 
ATOM      4  C   LIG     1       3.838  42.772  21.153  0.00  0.00     0.105 A 
ATOM      5  C   LIG     1       2.617  41.998  21.423  0.00  0.00     0.197 A 
ATOM      6  C   LIG     1       2.391  41.604  22.829  0.00  0.00     0.098 A 
ATOM      7  C   LIG     1       3.284  41.964  23.764  0.00  0.00     0.139 A 
ATOM      8  O   LIG     1       4.438  42.688  23.506  0.00  0.00    -0.454 OA
ATOM      9  O   LIG     1       1.828  41.692  20.540  0.00  0.00    -0.287 OA
ATOM     10  C   LIG     1       4.689  43.078  22.214  0.00  0.00     0.146 A 
ATOM     11  C   LIG     1       5.854  43.809  21.985  0.00  0.00     0.093 A 
ENDROOT
BRANCH   1  12
ATOM     12  O   LIG     1       7.303  44.949  20.465  0.00  0.00    -0.461 OA
BRANCH  12  13
ATOM     13  C   LIG     1       8.374  44.257  19.826  0.00  0.00     0.339 C 
ATOM     14  C   LIG     1       9.069  45.237  18.880  0.00  0.00     0.214 C 
ATOM     15  C   LIG     1      10.325  44.620  18.264  0.00  0.00     0.180 C 
ATOM     16  C   LIG     1      11.204  43.970  19.333  0.00  0.00     0.177 C 
ATOM     17  C   LIG     1      10.376  43.047  20.230  0.00  0.00     0.179 C 
ATOM     18  O   LIG     1       9.289  43.774  20.806  0.00  0.00    -0.331 OA
BRANCH  14  19
ATOM     19  O   LIG     1       8.153  45.583  17.841  0.00  0.00    -0.383 OA
ATOM     20  H   LIG     1       7.509  46.214  18.205  0.00  0.00     0.210 HD
ENDBRANCH  14  19
BRANCH  15  21
ATOM     21  O   LIG     1      11.090  45.640  17.621  0.00  0.00    -0.386 OA
ATOM     22  H   LIG     1      11.920  45.739  18.120  0.00  0.00     0.210 HD
ENDBRANCH  15  21
BRANCH  16  23
ATOM     23  O   LIG     1      12.234  43.214  18.701  0.00  0.00    -0.386 OA
ATOM     24  H   LIG     1      12.216  42.315  19.071  0.00  0.00     0.210 HD
ENDBRANCH  16  23
BRANCH  17  25
ATOM     25  C   LIG     1      11.208  42.480  21.376  0.00  0.00     0.190 C 
BRANCH  25  26
ATOM     26  O   LIG     1      11.951  41.377  20.889  0.00  0.00    -0.392 OA
ATOM     27  H   LIG     1      12.862  41.464  21.222  0.00  0.00     0.210 HD
ENDBRANCH  25  26
ENDBRANCH  17  25
ENDBRANCH  12  13
ENDBRANCH   1  12
BRANCH   3  28
ATOM     28  O   LIG     1       3.345  42.922  18.789  0.00  0.00    -0.506 OA
ATOM     29  H   LIG     1       2.710  42.224  19.009  0.00  0.00     0.292 HD
ENDBRANCH   3  28
BRANCH   7  30
ATOM     30  C   LIG     1       3.115  41.592  25.184  0.00  0.00     0.021 A 
ATOM     31  C   LIG     1       2.346  40.479  25.530  0.00  0.00     0.015 A 
ATOM     32  C   LIG     1       2.185  40.128  26.870  0.00  0.00     0.050 A 
ATOM     33  C   LIG     1       2.796  40.888  27.868  0.00  0.00     0.158 A 
ATOM     34  C   LIG     1       3.565  42.001  27.525  0.00  0.00     0.159 A 
ATOM     35  C   LIG     1       3.725  42.352  26.185  0.00  0.00     0.060 A 
BRANCH  33  36
ATOM     36  O   LIG     1       2.631  40.536  29.174  0.00  0.00    -0.503 OA
ATOM     37  H   LIG     1       2.976  41.247  29.740  0.00  0.00     0.292 HD
ENDBRANCH  33  36
BRANCH  34  38
ATOM     38  O   LIG     1       4.166  42.749  28.492  0.00  0.00    -0.503 OA
ATOM     39  H   LIG     1       3.511  43.372  28.850  0.00  0.00     0.292 HD
ENDBRANCH  34  38
ENDBRANCH   7  30
TORSDOF 11
ENDMDL
MODEL 5
REMARK VINA RESULT:      -8.7      3.582      9.564
REMARK  11 active torsions:
REMARK  status: ('A' for Active; 'I' for Inactive)
REMARK    1  A    between atoms: C_13  and  O_12 
REMARK    2  A    between atoms: C_15  and  O_33 
REMARK    3  A    between atoms: C_19  and  C_20 
REMARK    4  A    between atoms: C_23  and  O_27 
REMARK    5  A    between atoms: C_24  and  O_25 
REMARK    6  A    between atoms: O_12  and  C_2 
REMARK    7  A    between atoms: C_3  and  O_10 
REMARK    8  A    between atoms: C_4  and  O_8 
REMARK    9  A    between atoms: C_5  and  O_6 
REMARK   10  A    between atoms: C_36  and  C_37 
REMARK   11  A    between atoms: C_37  and  O_38 
ROOT
ATOM      1  C   LIG     1       1.768  39.592  22.842  0.00  0.00     0.131 A 
ATOM      2  C   LIG     1       1.748  39.731  24.230  0.00  0.00     0.092 A 
ATOM      3  C   LIG     1       2.412  40.798  24.837  0.00  0.00     0.135 A 
ATOM      4  C   LIG     1       3.094  41.725  24.046  0.00  0.00     0.105 A 
ATOM      5  C   LIG     1       3.803  42.859  24.656  0.00  0.00     0.197 A 
ATOM      6  C   LIG     1       4.489  43.778  23.725  0.00  0.00     0.098 A 
ATOM      7  C   LIG     1       4.431  43.541  22.405  0.00  0.00     0.139 A 
ATOM      8  O   LIG     1       3.768  42.466  21.832  0.00  0.00    -0.454 OA
ATOM      9  O   LIG     1       3.830  43.039  25.866  0.00  0.00    -0.287 OA
ATOM     10  C   LIG     1       3.113  41.587  22.658  0.00  0.00     0.146 A 
ATOM     11  C   LIG     1       2.450  40.519  22.054  0.00  0.00     0.093 A 
ENDROOT
BRANCH   1  12
ATOM     12  O   LIG     1       1.118  38.546  22.254  0.00  0.00    -0.461 OA
BRANCH  12  13
ATOM     13  C   LIG     1       0.767  37.454  23.102  0.00  0.00     0.339 C 
ATOM     14  C   LIG     1      -0.424  36.733  22.471  0.00  0.00     0.214 C 
ATOM     15  C   LIG     1      -0.772  35.457  23.239  0.00  0.00     0.180 C 
ATOM     16  C   LIG     1       0.474  34.609  23.497  0.00  0.00     0.177 C 
ATOM     17  C   LIG     1       1.597  35.462  24.091  0.00  0.00     0.179 C 
ATOM     18  O   LIG     1       1.877  36.568  23.231  0.00  0.00    -0.331 OA
BRANCH  14  19
ATOM     19  O   LIG     1      -1.544  37.617  22.490  0.00  0.00    -0.383 OA
ATOM     20  H   LIG     1      -2.088  37.398  23.266  0.00  0.00     0.210 HD
ENDBRANCH  14  19
BRANCH  15  21
ATOM     21  O   LIG     1      -1.688  34.675  22.471  0.00  0.00    -0.386 OA
ATOM     22  H   LIG     1      -1.267  34.493  21.613  0.00  0.00     0.210 HD
ENDBRANCH  15  21
BRANCH  16  23
ATOM     23  O   LIG     1       0.149  33.558  24.404  0.00  0.00    -0.386 OA
ATOM     24  H   LIG     1      -0.477  32.962  23.960  0.00  0.00     0.210 HD
ENDBRANCH  16  23
BRANCH  17  25
ATOM     25  C   LIG     1       2.888  34.664  24.248  0.00  0.00     0.190 C 
BRANCH  25  26
ATOM     26  O   LIG     1       2.994  33.760  23.163  0.00  0.00    -0.392 OA
ATOM     27  H   LIG     1       3.765  33.191  23.327  0.00  0.00     0.210 HD
ENDBRANCH  25  26
ENDBRANCH  17  25
ENDBRANCH  12  13
ENDBRANCH   1  12
BRANCH   3  28
ATOM     28  O   LIG     1       2.363  40.889  26.195  0.00  0.00    -0.506 OA
ATOM     29  H   LIG     1       1.602  41.419  26.474  0.00  0.00     0.292 HD
ENDBRANCH   3  28
BRANCH   7  30
ATOM     30  C   LIG     1       5.104  44.420  21.427  0.00  0.00     0.021 A 
ATOM     31  C   LIG     1       6.041  43.891  20.538  0.00  0.00     0.015 A 
ATOM     32  C   LIG     1       6.678  44.721  19.615  0.00  0.00     0.050 A 
ATOM     33  C   LIG     1       6.378  46.083  19.579  0.00  0.00     0.158 A 
ATOM     34  C   LIG     1       5.443  46.614  20.467  0.00  0.00     0.159 A 
ATOM     35  C   LIG     1       4.806  45.784  21.390  0.00  0.00     0.060 A 
BRANCH  33  36
ATOM     36  O   LIG     1       7.008  46.883  18.675  0.00  0.00    -0.503 OA
ATOM     37  H   LIG     1       7.750  47.335  19.113  0.00  0.00     0.292 HD
ENDBRANCH  33  36
BRANCH  34  38
ATOM     38  O   LIG     1       5.142  47.943  20.440  0.00  0.00    -0.503 OA
ATOM     39  H   LIG     1       5.557  48.335  19.653  0.00  0.00     0.292 HD
ENDBRANCH  34  38
ENDBRANCH   7  30
TORSDOF 11
ENDMDL
MODEL 6
REMARK VINA RESULT:      -8.3      3.118      6.470
REMARK  11 active torsions:
REMARK  status: ('A' for Active; 'I' for Inactive)
REMARK    1  A    between atoms: C_13  and  O_12 
REMARK    2  A    between atoms: C_15  and  O_33 
REMARK    3  A    between atoms: C_19  and  C_20 
REMARK    4  A    between atoms: C_23  and  O_27 
REMARK    5  A    between atoms: C_24  and  O_25 
REMARK    6  A    between atoms: O_12  and  C_2 
REMARK    7  A    between atoms: C_3  and  O_10 
REMARK    8  A    between atoms: C_4  and  O_8 
REMARK    9  A    between atoms: C_5  and  O_6 
REMARK   10  A    between atoms: C_36  and  C_37 
REMARK   11  A    between atoms: C_37  and  O_38 
ROOT
ATOM      1  C   LIG     1       9.313  44.378  19.842  0.00  0.00     0.131 A 
ATOM      2  C   LIG     1       9.063  45.707  19.497  0.00  0.00     0.092 A 
ATOM      3  C   LIG     1       7.801  46.262  19.715  0.00  0.00     0.135 A 
ATOM      4  C   LIG     1       6.792  45.479  20.280  0.00  0.00     0.105 A 
ATOM      5  C   LIG     1       5.452  46.036  20.520  0.00  0.00     0.197 A 
ATOM      6  C   LIG     1       4.463  45.119  21.123  0.00  0.00     0.098 A 
ATOM      7  C   LIG     1       4.826  43.861  21.417  0.00  0.00     0.139 A 
ATOM      8  O   LIG     1       6.088  43.336  21.182  0.00  0.00    -0.454 OA
ATOM      9  O   LIG     1       5.164  47.191  20.239  0.00  0.00    -0.287 OA
ATOM     10  C   LIG     1       7.041  44.151  20.625  0.00  0.00     0.146 A 
ATOM     11  C   LIG     1       8.302  43.598  20.406  0.00  0.00     0.093 A 
ENDROOT
BRANCH   1  12
ATOM     12  O   LIG     1      10.548  43.840  19.626  0.00  0.00    -0.461 OA
BRANCH  12  13
ATOM     13  C   LIG     1      11.286  43.454  20.784  0.00  0.00     0.339 C 
ATOM     14  C   LIG     1      12.648  42.935  20.321  0.00  0.00     0.214 C 
ATOM     15  C   LIG     1      13.564  42.639  21.509  0.00  0.00     0.180 C 
ATOM     16  C   LIG     1      13.583  43.805  22.498  0.00  0.00     0.177 C 
ATOM     17  C   LIG     1      12.159  44.247  22.844  0.00  0.00     0.179 C 
ATOM     18  O   LIG     1      11.446  44.575  21.650  0.00  0.00    -0.331 OA
BRANCH  14  19
ATOM     19  O   LIG     1      12.441  41.738  19.573  0.00  0.00    -0.383 OA
ATOM     20  H   LIG     1      12.433  40.991  20.196  0.00  0.00     0.210 HD
ENDBRANCH  14  19
BRANCH  15  21
ATOM     21  O   LIG     1      14.898  42.433  21.042  0.00  0.00    -0.386 OA
ATOM     22  H   LIG     1      15.052  41.473  21.019  0.00  0.00     0.210 HD
ENDBRANCH  15  21
BRANCH  16  23
ATOM     23  O   LIG     1      14.254  43.403  23.689  0.00  0.00    -0.386 OA
ATOM     24  H   LIG     1      15.050  43.954  23.785  0.00  0.00     0.210 HD
ENDBRANCH  16  23
BRANCH  17  25
ATOM     25  C   LIG     1      12.154  45.484  23.737  0.00  0.00     0.190 C 
BRANCH  25  26
ATOM     26  O   LIG     1      12.374  45.075  25.074  0.00  0.00    -0.392 OA
ATOM     27  H   LIG     1      11.580  44.600  25.373  0.00  0.00     0.210 HD
ENDBRANCH  25  26
ENDBRANCH  17  25
ENDBRANCH  12  13
ENDBRANCH   1  12
BRANCH   3  28
ATOM     28  O   LIG     1       7.608  47.563  19.361  0.00  0.00    -0.506 OA
ATOM     29  H   LIG     1       6.664  47.745  19.233  0.00  0.00     0.292 HD
ENDBRANCH   3  28
BRANCH   7  30
ATOM     30  C   LIG     1       3.877  42.897  22.013  0.00  0.00     0.021 A 
ATOM     31  C   LIG     1       3.069  42.110  21.191  0.00  0.00     0.015 A 
ATOM     32  C   LIG     1       2.173  41.201  21.753  0.00  0.00     0.050 A 
ATOM     33  C   LIG     1       2.083  41.077  23.140  0.00  0.00     0.158 A 
ATOM     34  C   LIG     1       2.889  41.863  23.963  0.00  0.00     0.159 A 
ATOM     35  C   LIG     1       3.786  42.772  23.401  0.00  0.00     0.060 A 
BRANCH  33  36
ATOM     36  O   LIG     1       1.203  40.187  23.677  0.00  0.00    -0.503 OA
ATOM     37  H   LIG     1       0.304  40.554  23.617  0.00  0.00     0.292 HD
ENDBRANCH  33  36
BRANCH  34  38
ATOM     38  O   LIG     1       2.811  41.749  25.319  0.00  0.00    -0.503 OA
ATOM     39  H   LIG     1       3.052  40.839  25.564  0.00  0.00     0.292 HD
ENDBRANCH  34  38
ENDBRANCH   7  30
TORSDOF 11
ENDMDL
MODEL 7
REMARK VINA RESULT:      -8.1      3.661     10.106
REMARK  11 active torsions:
REMARK  status: ('A' for Active; 'I' for Inactive)
REMARK    1  A    between atoms: C_13  and  O_12 
REMARK    2  A    between atoms: C_15  and  O_33 
REMARK    3  A    between atoms: C_19  and  C_20 
REMARK    4  A    between atoms: C_23  and  O_27 
REMARK    5  A    between atoms: C_24  and  O_25 
REMARK    6  A    between atoms: O_12  and  C_2 
REMARK    7  A    between atoms: C_3  and  O_10 
REMARK    8  A    between atoms: C_4  and  O_8 
REMARK    9  A    between atoms: C_5  and  O_6 
REMARK   10  A    between atoms: C_36  and  C_37 
REMARK   11  A    between atoms: C_37  and  O_38 
ROOT
ATOM      1  C   LIG     1       1.554  39.225  24.306  0.00  0.00     0.131 A 
ATOM      2  C   LIG     1       1.770  39.496  25.657  0.00  0.00     0.092 A 
ATOM      3  C   LIG     1       2.468  40.643  26.038  0.00  0.00     0.135 A 
ATOM      4  C   LIG     1       2.947  41.516  25.059  0.00  0.00     0.105 A 
ATOM      5  C   LIG     1       3.687  42.732  25.430  0.00  0.00     0.197 A 
ATOM      6  C   LIG     1       4.146  43.583  24.313  0.00  0.00     0.098 A 
ATOM      7  C   LIG     1       3.870  43.217  23.051  0.00  0.00     0.139 A 
ATOM      8  O   LIG     1       3.179  42.067  22.704  0.00  0.00    -0.454 OA
ATOM      9  O   LIG     1       3.915  43.028  26.594  0.00  0.00    -0.287 OA
ATOM     10  C   LIG     1       2.731  41.245  23.708  0.00  0.00     0.146 A 
ATOM     11  C   LIG     1       2.034  40.099  23.329  0.00  0.00     0.093 A 
ENDROOT
BRANCH   1  12
ATOM     12  O   LIG     1       0.872  38.102  23.938  0.00  0.00    -0.461 OA
BRANCH  12  13
ATOM     13  C   LIG     1      -0.461  37.975  24.430  0.00  0.00     0.339 C 
ATOM     14  C   LIG     1      -1.151  36.865  23.637  0.00  0.00     0.214 C 
ATOM     15  C   LIG     1      -2.539  36.559  24.201  0.00  0.00     0.180 C 
ATOM     16  C   LIG     1      -2.493  36.379  25.718  0.00  0.00     0.177 C 
ATOM     17  C   LIG     1      -1.743  37.537  26.380  0.00  0.00     0.179 C 
ATOM     18  O   LIG     1      -0.434  37.654  25.819  0.00  0.00    -0.331 OA
BRANCH  14  19
ATOM     19  O   LIG     1      -1.275  37.294  22.281  0.00  0.00    -0.383 OA
ATOM     20  H   LIG     1      -0.711  36.724  21.732  0.00  0.00     0.210 HD
ENDBRANCH  14  19
BRANCH  15  21
ATOM     21  O   LIG     1      -3.029  35.346  23.626  0.00  0.00    -0.386 OA
ATOM     22  H   LIG     1      -2.627  34.609  24.117  0.00  0.00     0.210 HD
ENDBRANCH  15  21
BRANCH  16  23
ATOM     23  O   LIG     1      -3.823  36.326  26.228  0.00  0.00    -0.386 OA
ATOM     24  H   LIG     1      -4.173  35.434  26.061  0.00  0.00     0.210 HD
ENDBRANCH  16  23
BRANCH  17  25
ATOM     25  C   LIG     1      -1.581  37.320  27.881  0.00  0.00     0.190 C 
BRANCH  25  26
ATOM     26  O   LIG     1      -2.686  37.909  28.543  0.00  0.00    -0.392 OA
ATOM     27  H   LIG     1      -3.349  38.133  27.868  0.00  0.00     0.210 HD
ENDBRANCH  25  26
ENDBRANCH  17  25
ENDBRANCH  12  13
ENDBRANCH   1  12
BRANCH   3  28
ATOM     28  O   LIG     1       2.653  40.863  27.370  0.00  0.00    -0.506 OA
ATOM     29  H   LIG     1       1.825  40.731  27.855  0.00  0.00     0.292 HD
ENDBRANCH   3  28
BRANCH   7  30
ATOM     30  C   LIG     1       4.311  44.024  21.895  0.00  0.00     0.021 A 
ATOM     31  C   LIG     1       4.608  43.404  20.680  0.00  0.00     0.015 A 
ATOM     32  C   LIG     1       5.025  44.166  19.588  0.00  0.00     0.050 A 
ATOM     33  C   LIG     1       5.146  45.550  19.709  0.00  0.00     0.158 A 
ATOM     34  C   LIG     1       4.851  46.172  20.923  0.00  0.00     0.159 A 
ATOM     35  C   LIG     1       4.433  45.410  22.014  0.00  0.00     0.060 A 
BRANCH  33  36
ATOM     36  O   LIG     1       5.555  46.283  18.637  0.00  0.00    -0.503 OA
ATOM     37  H   LIG     1       4.794  46.768  18.275  0.00  0.00     0.292 HD
ENDBRANCH  33  36
BRANCH  34  38
ATOM     38  O   LIG     1       4.964  47.524  21.051  0.00  0.00    -0.503 OA
ATOM     39  H   LIG     1       4.509  47.793  21.867  0.00  0.00     0.292 HD
ENDBRANCH  34  38
ENDBRANCH   7  30
TORSDOF 11
ENDMDL
MODEL 8
REMARK VINA RESULT:      -7.9      3.780      9.135
REMARK  11 active torsions:
REMARK  status: ('A' for Active; 'I' for Inactive)
REMARK    1  A    between atoms: C_13  and  O_12 
REMARK    2  A    between atoms: C_15  and  O_33 
REMARK    3  A    between atoms: C_19  and  C_20 
REMARK    4  A    between atoms: C_23  and  O_27 
REMARK    5  A    between atoms: C_24  and  O_25 
REMARK    6  A    between atoms: O_12  and  C_2 
REMARK    7  A    between atoms: C_3  and  O_10 
REMARK    8  A    between atoms: C_4  and  O_8 
REMARK    9  A    between atoms: C_5  and  O_6 
REMARK   10  A    between atoms: C_36  and  C_37 
REMARK   11  A    between atoms: C_37  and  O_38 
ROOT
ATOM      1  C   LIG     1       7.024  44.608  21.221  0.00  0.00     0.131 A 
ATOM      2  C   LIG     1       6.947  45.226  19.973  0.00  0.00     0.092 A 
ATOM      3  C   LIG     1       8.022  45.156  19.087  0.00  0.00     0.135 A 
ATOM      4  C   LIG     1       9.177  44.462  19.458  0.00  0.00     0.105 A 
ATOM      5  C   LIG     1      10.327  44.372  18.547  0.00  0.00     0.197 A 
ATOM      6  C   LIG     1      11.494  43.613  19.042  0.00  0.00     0.098 A 
ATOM      7  C   LIG     1      11.446  43.056  20.263  0.00  0.00     0.139 A 
ATOM      8  O   LIG     1      10.363  43.150  21.123  0.00  0.00    -0.454 OA
ATOM      9  O   LIG     1      10.327  44.893  17.441  0.00  0.00    -0.287 OA
ATOM     10  C   LIG     1       9.255  43.843  20.705  0.00  0.00     0.146 A 
ATOM     11  C   LIG     1       8.179  43.916  21.589  0.00  0.00     0.093 A 
ENDROOT
BRANCH   1  12
ATOM     12  O   LIG     1       5.970  44.681  22.083  0.00  0.00    -0.461 OA
BRANCH  12  13
ATOM     13  C   LIG     1       5.238  43.475  22.299  0.00  0.00     0.339 C 
ATOM     14  C   LIG     1       4.822  43.435  23.770  0.00  0.00     0.214 C 
ATOM     15  C   LIG     1       3.902  42.247  24.055  0.00  0.00     0.180 C 
ATOM     16  C   LIG     1       2.773  42.162  23.028  0.00  0.00     0.177 C 
ATOM     17  C   LIG     1       3.325  42.253  21.604  0.00  0.00     0.179 C 
ATOM     18  O   LIG     1       4.090  43.450  21.454  0.00  0.00    -0.331 OA
BRANCH  14  19
ATOM     19  O   LIG     1       6.001  43.323  24.566  0.00  0.00    -0.383 OA
ATOM     20  H   LIG     1       6.707  42.953  24.009  0.00  0.00     0.210 HD
ENDBRANCH  14  19
BRANCH  15  21
ATOM     21  O   LIG     1       3.315  42.400  25.348  0.00  0.00    -0.386 OA
ATOM     22  H   LIG     1       3.198  41.509  25.721  0.00  0.00     0.210 HD
ENDBRANCH  15  21
BRANCH  16  23
ATOM     23  O   LIG     1       2.082  40.925  23.188  0.00  0.00    -0.386 OA
ATOM     24  H   LIG     1       1.350  41.069  23.811  0.00  0.00     0.210 HD
ENDBRANCH  16  23
BRANCH  17  25
ATOM     25  C   LIG     1       2.207  42.289  20.567  0.00  0.00     0.190 C 
BRANCH  25  26
ATOM     26  O   LIG     1       1.011  42.694  21.207  0.00  0.00    -0.392 OA
ATOM     27  H   LIG     1       0.868  42.105  21.967  0.00  0.00     0.210 HD
ENDBRANCH  25  26
ENDBRANCH  17  25
ENDBRANCH  12  13
ENDBRANCH   1  12
BRANCH   3  28
ATOM     28  O   LIG     1       7.897  45.776  17.880  0.00  0.00    -0.506 OA
ATOM     29  H   LIG     1       8.724  46.220  17.638  0.00  0.00     0.292 HD
ENDBRANCH   3  28
BRANCH   7  30
ATOM     30  C   LIG     1      12.586  42.294  20.814  0.00  0.00     0.021 A 
ATOM     31  C   LIG     1      12.372  41.332  21.804  0.00  0.00     0.015 A 
ATOM     32  C   LIG     1      13.448  40.613  22.325  0.00  0.00     0.050 A 
ATOM     33  C   LIG     1      14.740  40.853  21.856  0.00  0.00     0.158 A 
ATOM     34  C   LIG     1      14.956  41.814  20.868  0.00  0.00     0.159 A 
ATOM     35  C   LIG     1      13.880  42.533  20.347  0.00  0.00     0.060 A 
BRANCH  33  36
ATOM     36  O   LIG     1      15.782  40.145  22.374  0.00  0.00    -0.503 OA
ATOM     37  H   LIG     1      15.509  39.751  23.220  0.00  0.00     0.292 HD
ENDBRANCH  33  36
BRANCH  34  38
ATOM     38  O   LIG     1      16.214  42.055  20.402  0.00  0.00    -0.503 OA
ATOM     39  H   LIG     1      16.466  42.959  20.656  0.00  0.00     0.292 HD
ENDBRANCH  34  38
ENDBRANCH   7  30
TORSDOF 11
ENDMDL
MODEL 9
REMARK VINA RESULT:      -7.8      3.853      9.115
REMARK  11 active torsions:
REMARK  status: ('A' for Active; 'I' for Inactive)
REMARK    1  A    between atoms: C_13  and  O_12 
REMARK    2  A    between atoms: C_15  and  O_33 
REMARK    3  A    between atoms: C_19  and  C_20 
REMARK    4  A    between atoms: C_23  and  O_27 
REMARK    5  A    between atoms: C_24  and  O_25 
REMARK    6  A    between atoms: O_12  and  C_2 
REMARK    7  A    between atoms: C_3  and  O_10 
REMARK    8  A    between atoms: C_4  and  O_8 
REMARK    9  A    between atoms: C_5  and  O_6 
REMARK   10  A    between atoms: C_36  and  C_37 
REMARK   11  A    between atoms: C_37  and  O_38 
ROOT
ATOM      1  C   LIG     1       7.490  43.057  22.416  0.00  0.00     0.131 A 
ATOM      2  C   LIG     1       7.073  44.111  23.228  0.00  0.00     0.092 A 
ATOM      3  C   LIG     1       8.006  45.014  23.739  0.00  0.00     0.135 A 
ATOM      4  C   LIG     1       9.359  44.855  23.432  0.00  0.00     0.105 A 
ATOM      5  C   LIG     1      10.365  45.790  23.957  0.00  0.00     0.197 A 
ATOM      6  C   LIG     1      11.766  45.528  23.566  0.00  0.00     0.098 A 
ATOM      7  C   LIG     1      12.042  44.482  22.772  0.00  0.00     0.139 A 
ATOM      8  O   LIG     1      11.092  43.598  22.285  0.00  0.00    -0.454 OA
ATOM      9  O   LIG     1      10.069  46.733  24.677  0.00  0.00    -0.287 OA
ATOM     10  C   LIG     1       9.777  43.802  22.619  0.00  0.00     0.146 A 
ATOM     11  C   LIG     1       8.843  42.901  22.110  0.00  0.00     0.093 A 
ENDROOT
BRANCH   1  12
ATOM     12  O   LIG     1       6.574  42.176  21.919  0.00  0.00    -0.461 OA
BRANCH  12  13
ATOM     13  C   LIG     1       5.238  42.656  21.781  0.00  0.00     0.339 C 
ATOM     14  C   LIG     1       4.859  42.573  20.302  0.00  0.00     0.214 C 
ATOM     15  C   LIG     1       3.388  42.927  20.084  0.00  0.00     0.180 C 
ATOM     16  C   LIG     1       2.486  42.169  21.058  0.00  0.00     0.177 C 
ATOM     17  C   LIG     1       3.000  42.304  22.492  0.00  0.00     0.179 C 
ATOM     18  O   LIG     1       4.356  41.859  22.568  0.00  0.00    -0.331 OA
BRANCH  14  19
ATOM     19  O   LIG     1       5.679  43.489  19.577  0.00  0.00    -0.383 OA
ATOM     20  H   LIG     1       6.416  42.990  19.186  0.00  0.00     0.210 HD
ENDBRANCH  14  19
BRANCH  15  21
ATOM     21  O   LIG     1       3.005  42.569  18.755  0.00  0.00    -0.386 OA
ATOM     22  H   LIG     1       3.653  42.967  18.148  0.00  0.00     0.210 HD
ENDBRANCH  15  21
BRANCH  16  23
ATOM     23  O   LIG     1       1.162  42.693  20.980  0.00  0.00    -0.386 OA
ATOM     24  H   LIG     1       0.911  42.736  20.041  0.00  0.00     0.210 HD
ENDBRANCH  16  23
BRANCH  17  25
ATOM     25  C   LIG     1       2.184  41.460  23.466  0.00  0.00     0.190 C 
BRANCH  25  26
ATOM     26  O   LIG     1       1.556  40.418  22.743  0.00  0.00    -0.392 OA
ATOM     27  H   LIG     1       0.624  40.386  23.019  0.00  0.00     0.210 HD
ENDBRANCH  25  26
ENDBRANCH  17  25
ENDBRANCH  12  13
ENDBRANCH   1  12
BRANCH   3  28
ATOM     28  O   LIG     1       7.547  46.026  24.528  0.00  0.00    -0.506 OA
ATOM     29  H   LIG     1       7.534  45.754  25.458  0.00  0.00     0.292 HD
ENDBRANCH   3  28
BRANCH   7  30
ATOM     30  C   LIG     1      13.425  44.166  22.356  0.00  0.00     0.021 A 
ATOM     31  C   LIG     1      14.506  44.659  23.088  0.00  0.00     0.015 A 
ATOM     32  C   LIG     1      15.811  44.362  22.695  0.00  0.00     0.050 A 
ATOM     33  C   LIG     1      16.037  43.570  21.569  0.00  0.00     0.158 A 
ATOM     34  C   LIG     1      14.958  43.077  20.836  0.00  0.00     0.159 A 
ATOM     35  C   LIG     1      13.653  43.374  21.229  0.00  0.00     0.060 A 
BRANCH  33  36
ATOM     36  O   LIG     1      17.316  43.288  21.195  0.00  0.00    -0.503 OA
ATOM     37  H   LIG     1      17.638  43.993  20.608  0.00  0.00     0.292 HD
ENDBRANCH  33  36
BRANCH  34  38
ATOM     38  O   LIG     1      15.168  42.301  19.735  0.00  0.00    -0.503 OA
ATOM     39  H   LIG     1      16.004  42.576  19.322  0.00  0.00     0.292 HD
ENDBRANCH  34  38
ENDBRANCH   7  30
TORSDOF 11
ENDMDL
