MODEL 1
REMARK VINA RESULT:    -9.298      0.000      0.000
REMARK INTER + INTRA:         -13.368
REMARK INTER:                 -12.559
REMARK INTRA:                  -0.809
REMARK UNBOUND:                -0.809
REMARK  Name = 5316673
REMARK  10 active torsions:
REMARK  status: ('A' for Active; 'I' for Inactive)
REMARK    1  A    between atoms: O_2  and  C_15
REMARK    2  A    between atoms: O_2  and  C_17
REMARK    3  A    between atoms: O_3  and  C_11
REMARK    4  A    between atoms: O_4  and  C_12
REMARK    5  A    between atoms: O_5  and  C_13
REMARK    6  A    between atoms: O_8  and  C_23
REMARK    7  A    between atoms: O_9  and  C_28
REMARK    8  A    between atoms: O_10  and  C_31
REMARK    9  A    between atoms: C_14  and  C_16
REMARK   10  A    between atoms: C_18  and  C_22
REMARK                            x       y       z     vdW  Elec       q    Type
REMARK                         _______ _______ _______ _____ _____    ______ ____
ROOT
ATOM      1  O   UNL     1     108.374 144.653 163.832  0.00  0.00    +0.000 OA
ATOM      2  O   UNL     1     104.795 146.330 162.836  0.00  0.00    +0.000 OA
ATOM      3  C   UNL     1     105.990 144.815 164.208  0.00  0.00    +0.000 A 
ATOM      4  C   UNL     1     107.202 144.297 164.481  0.00  0.00    +0.000 A 
ATOM      5  C   UNL     1     105.871 145.825 163.130  0.00  0.00    +0.000 A 
ATOM      6  C   UNL     1     107.115 146.189 162.435  0.00  0.00    +0.000 A 
ATOM      7  C   UNL     1     108.307 145.581 162.825  0.00  0.00    +0.000 A 
ATOM      8  C   UNL     1     107.108 147.129 161.402  0.00  0.00    +0.000 A 
ATOM      9  C   UNL     1     109.500 145.911 162.183  0.00  0.00    +0.000 A 
ATOM     10  C   UNL     1     108.303 147.457 160.761  0.00  0.00    +0.000 A 
ATOM     11  C   UNL     1     109.497 146.849 161.151  0.00  0.00    +0.000 A 
ENDROOT
BRANCH   4  12
ATOM     12  C   UNL     1     107.414 143.295 165.541  0.00  0.00    +0.000 A 
ATOM     13  C   UNL     1     107.281 141.936 165.252  0.00  0.00    +0.000 A 
ATOM     14  C   UNL     1     107.747 143.704 166.832  0.00  0.00    +0.000 A 
ATOM     15  C   UNL     1     107.482 140.987 166.256  0.00  0.00    +0.000 A 
ATOM     16  C   UNL     1     107.948 142.755 167.835  0.00  0.00    +0.000 A 
ATOM     17  C   UNL     1     107.816 141.397 167.547  0.00  0.00    +0.000 A 
BRANCH  17  18
ATOM     18  O   UNL     1     108.013 140.471 168.525  0.00  0.00    +0.000 OA
ATOM     19  H   UNL     1     108.356 139.655 168.121  0.00  0.00    +0.000 HD
ENDBRANCH  17  18
ENDBRANCH   4  12
BRANCH   8  20
ATOM     20  O   UNL     1     105.971 147.752 160.983  0.00  0.00    +0.000 OA
ATOM     21  H   UNL     1     105.937 148.650 161.355  0.00  0.00    +0.000 HD
ENDBRANCH   8  20
BRANCH  11  22
ATOM     22  O   UNL     1     110.661 147.172 160.522  0.00  0.00    +0.000 OA
ATOM     23  H   UNL     1     111.409 146.872 161.068  0.00  0.00    +0.000 HD
ENDBRANCH  11  22
BRANCH   3  24
ATOM     24  O   UNL     1     104.849 144.463 164.896  0.00  0.00    +0.000 OA
BRANCH  24  30
ATOM     25  O   UNL     1     102.709 144.304 163.884  0.00  0.00    +0.000 OA
ATOM     26  C   UNL     1     102.958 142.404 166.021  0.00  0.00    +0.000 C 
ATOM     27  C   UNL     1     101.651 143.153 165.766  0.00  0.00    +0.000 C 
ATOM     28  C   UNL     1     103.790 142.299 164.741  0.00  0.00    +0.000 C 
ATOM     29  C   UNL     1     101.939 144.494 165.075  0.00  0.00    +0.000 C 
ATOM     30  C   UNL     1     103.975 143.671 164.098  0.00  0.00    +0.000 C 
ATOM     31  C   UNL     1     100.657 145.214 164.666  0.00  0.00    +0.000 C 
BRANCH  26  32
ATOM     32  O   UNL     1     102.662 141.100 166.516  0.00  0.00    +0.000 OA
ATOM     33  H   UNL     1     101.928 141.182 167.148  0.00  0.00    +0.000 HD
ENDBRANCH  26  32
BRANCH  27  34
ATOM     34  O   UNL     1     101.012 143.372 167.021  0.00  0.00    +0.000 OA
ATOM     35  H   UNL     1     100.758 144.309 167.071  0.00  0.00    +0.000 HD
ENDBRANCH  27  34
BRANCH  28  36
ATOM     36  O   UNL     1     103.123 141.461 163.796  0.00  0.00    +0.000 OA
ATOM     37  H   UNL     1     103.697 141.387 163.014  0.00  0.00    +0.000 HD
ENDBRANCH  28  36
ENDBRANCH  24  30
ENDBRANCH   3  24
TORSDOF 9
ENDMDL
MODEL 2
REMARK VINA RESULT:    -9.167     21.190     25.009
REMARK INTER + INTRA:         -13.191
REMARK INTER:                 -12.723
REMARK INTRA:                  -0.468
REMARK UNBOUND:                -0.809
REMARK  Name = 5316673
REMARK  10 active torsions:
REMARK  status: ('A' for Active; 'I' for Inactive)
REMARK    1  A    between atoms: O_2  and  C_15
REMARK    2  A    between atoms: O_2  and  C_17
REMARK    3  A    between atoms: O_3  and  C_11
REMARK    4  A    between atoms: O_4  and  C_12
REMARK    5  A    between atoms: O_5  and  C_13
REMARK    6  A    between atoms: O_8  and  C_23
REMARK    7  A    between atoms: O_9  and  C_28
REMARK    8  A    between atoms: O_10  and  C_31
REMARK    9  A    between atoms: C_14  and  C_16
REMARK   10  A    between atoms: C_18  and  C_22
REMARK                            x       y       z     vdW  Elec       q    Type
REMARK                         _______ _______ _______ _____ _____    ______ ____
ROOT
ATOM      1  O   UNL     1     121.193 151.650 144.045  0.00  0.00    +0.000 OA
ATOM      2  O   UNL     1     121.030 148.191 146.194  0.00  0.00    +0.000 OA
ATOM      3  C   UNL     1     119.905 149.753 144.815  0.00  0.00    +0.000 A 
ATOM      4  C   UNL     1     120.027 150.905 144.130  0.00  0.00    +0.000 A 
ATOM      5  C   UNL     1     121.081 149.232 145.553  0.00  0.00    +0.000 A 
ATOM      6  C   UNL     1     122.311 150.034 145.470  0.00  0.00    +0.000 A 
ATOM      7  C   UNL     1     122.303 151.205 144.716  0.00  0.00    +0.000 A 
ATOM      8  C   UNL     1     123.474 149.630 146.133  0.00  0.00    +0.000 A 
ATOM      9  C   UNL     1     123.457 151.982 144.621  0.00  0.00    +0.000 A 
ATOM     10  C   UNL     1     124.627 150.408 146.035  0.00  0.00    +0.000 A 
ATOM     11  C   UNL     1     124.619 151.582 145.281  0.00  0.00    +0.000 A 
ENDROOT
BRANCH   4  12
ATOM     12  C   UNL     1     118.914 151.491 143.363  0.00  0.00    +0.000 A 
ATOM     13  C   UNL     1     118.604 150.998 142.095  0.00  0.00    +0.000 A 
ATOM     14  C   UNL     1     118.168 152.538 143.904  0.00  0.00    +0.000 A 
ATOM     15  C   UNL     1     117.549 151.553 141.368  0.00  0.00    +0.000 A 
ATOM     16  C   UNL     1     117.113 153.093 143.179  0.00  0.00    +0.000 A 
ATOM     17  C   UNL     1     116.804 152.600 141.911  0.00  0.00    +0.000 A 
BRANCH  17  18
ATOM     18  O   UNL     1     115.775 153.140 141.203  0.00  0.00    +0.000 OA
ATOM     19  H   UNL     1     115.664 152.638 140.377  0.00  0.00    +0.000 HD
ENDBRANCH  17  18
ENDBRANCH   4  12
BRANCH   8  20
ATOM     20  O   UNL     1     123.535 148.493 146.881  0.00  0.00    +0.000 OA
ATOM     21  H   UNL     1     123.140 148.658 147.755  0.00  0.00    +0.000 HD
ENDBRANCH   8  20
BRANCH  11  22
ATOM     22  O   UNL     1     125.748 152.339 145.189  0.00  0.00    +0.000 OA
ATOM     23  H   UNL     1     126.499 151.829 145.539  0.00  0.00    +0.000 HD
ENDBRANCH  11  22
BRANCH   3  24
ATOM     24  O   UNL     1     118.739 149.020 144.853  0.00  0.00    +0.000 OA
BRANCH  24  30
ATOM     25  O   UNL     1     117.391 148.219 146.633  0.00  0.00    +0.000 OA
ATOM     26  C   UNL     1     115.782 149.575 144.680  0.00  0.00    +0.000 C 
ATOM     27  C   UNL     1     115.288 148.314 145.387  0.00  0.00    +0.000 C 
ATOM     28  C   UNL     1     116.817 150.312 145.532  0.00  0.00    +0.000 C 
ATOM     29  C   UNL     1     116.482 147.457 145.833  0.00  0.00    +0.000 C 
ATOM     30  C   UNL     1     117.933 149.367 145.973  0.00  0.00    +0.000 C 
ATOM     31  C   UNL     1     116.044 146.260 146.673  0.00  0.00    +0.000 C 
BRANCH  26  32
ATOM     32  O   UNL     1     114.673 150.430 144.415  0.00  0.00    +0.000 OA
ATOM     33  H   UNL     1     113.996 149.904 143.956  0.00  0.00    +0.000 HD
ENDBRANCH  26  32
BRANCH  27  34
ATOM     34  O   UNL     1     114.470 147.585 144.475  0.00  0.00    +0.000 OA
ATOM     35  H   UNL     1     114.112 148.212 143.824  0.00  0.00    +0.000 HD
ENDBRANCH  27  34
BRANCH  28  36
ATOM     36  O   UNL     1     116.196 150.832 146.709  0.00  0.00    +0.000 OA
ATOM     37  H   UNL     1     115.235 150.734 146.601  0.00  0.00    +0.000 HD
ENDBRANCH  28  36
ENDBRANCH  24  30
ENDBRANCH   3  24
TORSDOF 9
ENDMDL
MODEL 3
REMARK VINA RESULT:    -9.128     18.716     23.541
REMARK INTER + INTRA:         -13.138
REMARK INTER:                 -12.144
REMARK INTRA:                  -0.994
REMARK UNBOUND:                -0.809
REMARK  Name = 5316673
REMARK  10 active torsions:
REMARK  status: ('A' for Active; 'I' for Inactive)
REMARK    1  A    between atoms: O_2  and  C_15
REMARK    2  A    between atoms: O_2  and  C_17
REMARK    3  A    between atoms: O_3  and  C_11
REMARK    4  A    between atoms: O_4  and  C_12
REMARK    5  A    between atoms: O_5  and  C_13
REMARK    6  A    between atoms: O_8  and  C_23
REMARK    7  A    between atoms: O_9  and  C_28
REMARK    8  A    between atoms: O_10  and  C_31
REMARK    9  A    between atoms: C_14  and  C_16
REMARK   10  A    between atoms: C_18  and  C_22
REMARK                            x       y       z     vdW  Elec       q    Type
REMARK                         _______ _______ _______ _____ _____    ______ ____
ROOT
ATOM      1  O   UNL     1     116.894 147.095 146.967  0.00  0.00    +0.000 OA
ATOM      2  O   UNL     1     114.501 147.651 143.715  0.00  0.00    +0.000 OA
ATOM      3  C   UNL     1     116.474 148.246 144.883  0.00  0.00    +0.000 A 
ATOM      4  C   UNL     1     117.214 148.017 145.983  0.00  0.00    +0.000 A 
ATOM      5  C   UNL     1     115.215 147.485 144.695  0.00  0.00    +0.000 A 
ATOM      6  C   UNL     1     114.875 146.517 145.749  0.00  0.00    +0.000 A 
ATOM      7  C   UNL     1     115.736 146.372 146.834  0.00  0.00    +0.000 A 
ATOM      8  C   UNL     1     113.708 145.752 145.667  0.00  0.00    +0.000 A 
ATOM      9  C   UNL     1     115.437 145.460 147.846  0.00  0.00    +0.000 A 
ATOM     10  C   UNL     1     113.411 144.840 146.680  0.00  0.00    +0.000 A 
ATOM     11  C   UNL     1     114.273 144.694 147.768  0.00  0.00    +0.000 A 
ENDROOT
BRANCH   4  12
ATOM     12  C   UNL     1     118.480 148.722 146.246  0.00  0.00    +0.000 A 
ATOM     13  C   UNL     1     119.667 148.261 145.674  0.00  0.00    +0.000 A 
ATOM     14  C   UNL     1     118.494 149.850 147.065  0.00  0.00    +0.000 A 
ATOM     15  C   UNL     1     120.867 148.929 145.923  0.00  0.00    +0.000 A 
ATOM     16  C   UNL     1     119.694 150.519 147.313  0.00  0.00    +0.000 A 
ATOM     17  C   UNL     1     120.880 150.059 146.742  0.00  0.00    +0.000 A 
BRANCH  17  18
ATOM     18  O   UNL     1     122.050 150.710 146.984  0.00  0.00    +0.000 OA
ATOM     19  H   UNL     1     122.727 150.058 147.234  0.00  0.00    +0.000 HD
ENDBRANCH  17  18
ENDBRANCH   4  12
BRANCH   8  20
ATOM     20  O   UNL     1     112.834 145.856 144.628  0.00  0.00    +0.000 OA
ATOM     21  H   UNL     1     111.976 145.477 144.887  0.00  0.00    +0.000 HD
ENDBRANCH   8  20
BRANCH  11  22
ATOM     22  O   UNL     1     113.978 143.803 148.754  0.00  0.00    +0.000 OA
ATOM     23  H   UNL     1     113.597 144.283 149.510  0.00  0.00    +0.000 HD
ENDBRANCH  11  22
BRANCH   3  24
ATOM     24  O   UNL     1     116.837 149.149 143.906  0.00  0.00    +0.000 OA
BRANCH  24  30
ATOM     25  O   UNL     1     115.245 150.791 143.277  0.00  0.00    +0.000 OA
ATOM     26  C   UNL     1     117.904 151.668 142.644  0.00  0.00    +0.000 C 
ATOM     27  C   UNL     1     116.725 151.957 141.716  0.00  0.00    +0.000 C 
ATOM     28  C   UNL     1     117.434 151.480 144.087  0.00  0.00    +0.000 C 
ATOM     29  C   UNL     1     115.634 150.892 141.903  0.00  0.00    +0.000 C 
ATOM     30  C   UNL     1     116.313 150.446 144.165  0.00  0.00    +0.000 C 
ATOM     31  C   UNL     1     114.374 151.219 141.106  0.00  0.00    +0.000 C 
BRANCH  26  32
ATOM     32  O   UNL     1     118.833 152.747 142.572  0.00  0.00    +0.000 OA
ATOM     33  H   UNL     1     119.694 152.418 142.882  0.00  0.00    +0.000 HD
ENDBRANCH  26  32
BRANCH  27  34
ATOM     34  O   UNL     1     117.202 151.944 140.373  0.00  0.00    +0.000 OA
ATOM     35  H   UNL     1     118.078 152.365 140.361  0.00  0.00    +0.000 HD
ENDBRANCH  27  34
BRANCH  28  36
ATOM     36  O   UNL     1     116.925 152.714 144.597  0.00  0.00    +0.000 OA
ATOM     37  H   UNL     1     115.985 152.766 144.354  0.00  0.00    +0.000 HD
ENDBRANCH  28  36
ENDBRANCH  24  30
ENDBRANCH   3  24
TORSDOF 9
ENDMDL
MODEL 4
REMARK VINA RESULT:    -9.096      1.916      5.528
REMARK INTER + INTRA:         -13.096
REMARK INTER:                 -12.316
REMARK INTRA:                  -0.780
REMARK UNBOUND:                -0.809
REMARK  Name = 5316673
REMARK  10 active torsions:
REMARK  status: ('A' for Active; 'I' for Inactive)
REMARK    1  A    between atoms: O_2  and  C_15
REMARK    2  A    between atoms: O_2  and  C_17
REMARK    3  A    between atoms: O_3  and  C_11
REMARK    4  A    between atoms: O_4  and  C_12
REMARK    5  A    between atoms: O_5  and  C_13
REMARK    6  A    between atoms: O_8  and  C_23
REMARK    7  A    between atoms: O_9  and  C_28
REMARK    8  A    between atoms: O_10  and  C_31
REMARK    9  A    between atoms: C_14  and  C_16
REMARK   10  A    between atoms: C_18  and  C_22
REMARK                            x       y       z     vdW  Elec       q    Type
REMARK                         _______ _______ _______ _____ _____    ______ ____
ROOT
ATOM      1  O   UNL     1     108.161 144.121 164.750  0.00  0.00    +0.000 OA
ATOM      2  O   UNL     1     105.163 142.586 167.044  0.00  0.00    +0.000 OA
ATOM      3  C   UNL     1     105.804 143.661 165.034  0.00  0.00    +0.000 A 
ATOM      4  C   UNL     1     106.840 144.154 164.331  0.00  0.00    +0.000 A 
ATOM      5  C   UNL     1     106.065 143.050 166.360  0.00  0.00    +0.000 A 
ATOM      6  C   UNL     1     107.467 143.030 166.805  0.00  0.00    +0.000 A 
ATOM      7  C   UNL     1     108.446 143.568 165.972  0.00  0.00    +0.000 A 
ATOM      8  C   UNL     1     107.816 142.479 168.040  0.00  0.00    +0.000 A 
ATOM      9  C   UNL     1     109.782 143.560 166.371  0.00  0.00    +0.000 A 
ATOM     10  C   UNL     1     109.154 142.471 168.436  0.00  0.00    +0.000 A 
ATOM     11  C   UNL     1     110.135 143.011 167.604  0.00  0.00    +0.000 A 
ENDROOT
BRANCH   4  12
ATOM     12  C   UNL     1     106.674 144.771 163.003  0.00  0.00    +0.000 A 
ATOM     13  C   UNL     1     106.310 143.984 161.909  0.00  0.00    +0.000 A 
ATOM     14  C   UNL     1     106.880 146.140 162.839  0.00  0.00    +0.000 A 
ATOM     15  C   UNL     1     106.152 144.568 160.651  0.00  0.00    +0.000 A 
ATOM     16  C   UNL     1     106.721 146.724 161.582  0.00  0.00    +0.000 A 
ATOM     17  C   UNL     1     106.358 145.939 160.488  0.00  0.00    +0.000 A 
BRANCH  17  18
ATOM     18  O   UNL     1     106.203 146.508 159.262  0.00  0.00    +0.000 OA
ATOM     19  H   UNL     1     106.810 147.264 159.188  0.00  0.00    +0.000 HD
ENDBRANCH  17  18
ENDBRANCH   4  12
BRANCH   8  20
ATOM     20  O   UNL     1     106.898 141.940 168.890  0.00  0.00    +0.000 OA
ATOM     21  H   UNL     1     106.155 141.578 168.377  0.00  0.00    +0.000 HD
ENDBRANCH   8  20
BRANCH  11  22
ATOM     22  O   UNL     1     111.439 143.001 167.995  0.00  0.00    +0.000 OA
ATOM     23  H   UNL     1     111.663 142.115 168.326  0.00  0.00    +0.000 HD
ENDBRANCH  11  22
BRANCH   3  24
ATOM     24  O   UNL     1     104.505 143.680 164.573  0.00  0.00    +0.000 OA
BRANCH  24  30
ATOM     25  O   UNL     1     103.485 145.355 165.908  0.00  0.00    +0.000 OA
ATOM     26  C   UNL     1     101.609 144.293 164.013  0.00  0.00    +0.000 C 
ATOM     27  C   UNL     1     101.189 144.655 165.437  0.00  0.00    +0.000 C 
ATOM     28  C   UNL     1     102.830 145.105 163.578  0.00  0.00    +0.000 C 
ATOM     29  C   UNL     1     102.395 144.559 166.383  0.00  0.00    +0.000 C 
ATOM     30  C   UNL     1     103.954 144.992 164.605  0.00  0.00    +0.000 C 
ATOM     31  C   UNL     1     102.061 145.052 167.788  0.00  0.00    +0.000 C 
BRANCH  26  32
ATOM     32  O   UNL     1     100.520 144.539 163.126  0.00  0.00    +0.000 OA
ATOM     33  H   UNL     1     100.510 145.491 162.927  0.00  0.00    +0.000 HD
ENDBRANCH  26  32
BRANCH  27  34
ATOM     34  O   UNL     1     100.169 143.746 165.845  0.00  0.00    +0.000 OA
ATOM     35  H   UNL     1      99.382 143.912 165.298  0.00  0.00    +0.000 HD
ENDBRANCH  27  34
BRANCH  28  36
ATOM     36  O   UNL     1     102.481 146.485 163.464  0.00  0.00    +0.000 OA
ATOM     37  H   UNL     1     103.149 146.911 162.901  0.00  0.00    +0.000 HD
ENDBRANCH  28  36
ENDBRANCH  24  30
ENDBRANCH   3  24
TORSDOF 9
ENDMDL
MODEL 5
REMARK VINA RESULT:    -9.009      2.052      2.450
REMARK INTER + INTRA:         -12.978
REMARK INTER:                 -12.185
REMARK INTRA:                  -0.793
REMARK UNBOUND:                -0.809
REMARK  Name = 5316673
REMARK  10 active torsions:
REMARK  status: ('A' for Active; 'I' for Inactive)
REMARK    1  A    between atoms: O_2  and  C_15
REMARK    2  A    between atoms: O_2  and  C_17
REMARK    3  A    between atoms: O_3  and  C_11
REMARK    4  A    between atoms: O_4  and  C_12
REMARK    5  A    between atoms: O_5  and  C_13
REMARK    6  A    between atoms: O_8  and  C_23
REMARK    7  A    between atoms: O_9  and  C_28
REMARK    8  A    between atoms: O_10  and  C_31
REMARK    9  A    between atoms: C_14  and  C_16
REMARK   10  A    between atoms: C_18  and  C_22
REMARK                            x       y       z     vdW  Elec       q    Type
REMARK                         _______ _______ _______ _____ _____    ______ ____
ROOT
ATOM      1  O   UNL     1     106.491 144.820 162.225  0.00  0.00    +0.000 OA
ATOM      2  O   UNL     1     103.233 147.126 163.049  0.00  0.00    +0.000 OA
ATOM      3  C   UNL     1     104.784 145.500 163.797  0.00  0.00    +0.000 A 
ATOM      4  C   UNL     1     105.857 144.763 163.456  0.00  0.00    +0.000 A 
ATOM      5  C   UNL     1     104.209 146.431 162.797  0.00  0.00    +0.000 A 
ATOM      6  C   UNL     1     104.877 146.477 161.488  0.00  0.00    +0.000 A 
ATOM      7  C   UNL     1     105.989 145.666 161.269  0.00  0.00    +0.000 A 
ATOM      8  C   UNL     1     104.410 147.321 160.476  0.00  0.00    +0.000 A 
ATOM      9  C   UNL     1     106.641 145.692 160.037  0.00  0.00    +0.000 A 
ATOM     10  C   UNL     1     105.065 147.346 159.244  0.00  0.00    +0.000 A 
ATOM     11  C   UNL     1     106.178 146.533 159.025  0.00  0.00    +0.000 A 
ENDROOT
BRANCH   4  12
ATOM     12  C   UNL     1     106.497 143.819 164.389  0.00  0.00    +0.000 A 
ATOM     13  C   UNL     1     106.212 142.455 164.307  0.00  0.00    +0.000 A 
ATOM     14  C   UNL     1     107.389 144.287 165.353  0.00  0.00    +0.000 A 
ATOM     15  C   UNL     1     106.819 141.561 165.191  0.00  0.00    +0.000 A 
ATOM     16  C   UNL     1     107.997 143.394 166.236  0.00  0.00    +0.000 A 
ATOM     17  C   UNL     1     107.711 142.031 166.155  0.00  0.00    +0.000 A 
BRANCH  17  18
ATOM     18  O   UNL     1     108.303 141.159 167.015  0.00  0.00    +0.000 OA
ATOM     19  H   UNL     1     109.234 141.046 166.757  0.00  0.00    +0.000 HD
ENDBRANCH  17  18
ENDBRANCH   4  12
BRANCH   8  20
ATOM     20  O   UNL     1     103.329 148.133 160.638  0.00  0.00    +0.000 OA
ATOM     21  H   UNL     1     102.542 147.705 160.261  0.00  0.00    +0.000 HD
ENDBRANCH   8  20
BRANCH  11  22
ATOM     22  O   UNL     1     106.813 146.560 157.820  0.00  0.00    +0.000 OA
ATOM     23  H   UNL     1     107.766 146.433 157.963  0.00  0.00    +0.000 HD
ENDBRANCH  11  22
BRANCH   3  24
ATOM     24  O   UNL     1     104.197 145.443 165.043  0.00  0.00    +0.000 OA
BRANCH  24  30
ATOM     25  O   UNL     1     102.133 144.301 164.791  0.00  0.00    +0.000 OA
ATOM     26  C   UNL     1     102.700 144.761 167.567  0.00  0.00    +0.000 C 
ATOM     27  C   UNL     1     101.281 144.876 167.011  0.00  0.00    +0.000 C 
ATOM     28  C   UNL     1     103.551 143.822 166.710  0.00  0.00    +0.000 C 
ATOM     29  C   UNL     1     101.328 145.234 165.518  0.00  0.00    +0.000 C 
ATOM     30  C   UNL     1     103.491 144.223 165.238  0.00  0.00    +0.000 C 
ATOM     31  C   UNL     1      99.941 145.216 164.882  0.00  0.00    +0.000 C 
BRANCH  26  32
ATOM     32  O   UNL     1     102.641 144.277 168.907  0.00  0.00    +0.000 OA
ATOM     33  H   UNL     1     102.861 145.016 169.499  0.00  0.00    +0.000 HD
ENDBRANCH  26  32
BRANCH  27  34
ATOM     34  O   UNL     1     100.599 145.893 167.741  0.00  0.00    +0.000 OA
ATOM     35  H   UNL     1      99.786 146.118 167.258  0.00  0.00    +0.000 HD
ENDBRANCH  27  34
BRANCH  28  36
ATOM     36  O   UNL     1     103.059 142.486 166.819  0.00  0.00    +0.000 OA
ATOM     37  H   UNL     1     102.102 142.538 166.986  0.00  0.00    +0.000 HD
ENDBRANCH  28  36
ENDBRANCH  24  30
ENDBRANCH   3  24
TORSDOF 9
ENDMDL
MODEL 6
REMARK VINA RESULT:    -9.007      2.117      5.017
REMARK INTER + INTRA:         -12.975
REMARK INTER:                 -11.742
REMARK INTRA:                  -1.233
REMARK UNBOUND:                -0.809
REMARK  Name = 5316673
REMARK  10 active torsions:
REMARK  status: ('A' for Active; 'I' for Inactive)
REMARK    1  A    between atoms: O_2  and  C_15
REMARK    2  A    between atoms: O_2  and  C_17
REMARK    3  A    between atoms: O_3  and  C_11
REMARK    4  A    between atoms: O_4  and  C_12
REMARK    5  A    between atoms: O_5  and  C_13
REMARK    6  A    between atoms: O_8  and  C_23
REMARK    7  A    between atoms: O_9  and  C_28
REMARK    8  A    between atoms: O_10  and  C_31
REMARK    9  A    between atoms: C_14  and  C_16
REMARK   10  A    between atoms: C_18  and  C_22
REMARK                            x       y       z     vdW  Elec       q    Type
REMARK                         _______ _______ _______ _____ _____    ______ ____
ROOT
ATOM      1  O   UNL     1     104.011 145.827 162.070  0.00  0.00    +0.000 OA
ATOM      2  O   UNL     1     108.085 145.901 162.168  0.00  0.00    +0.000 OA
ATOM      3  C   UNL     1     106.057 145.419 163.293  0.00  0.00    +0.000 A 
ATOM      4  C   UNL     1     104.715 145.426 163.195  0.00  0.00    +0.000 A 
ATOM      5  C   UNL     1     106.862 145.884 162.137  0.00  0.00    +0.000 A 
ATOM      6  C   UNL     1     106.109 146.320 160.952  0.00  0.00    +0.000 A 
ATOM      7  C   UNL     1     104.717 146.268 160.980  0.00  0.00    +0.000 A 
ATOM      8  C   UNL     1     106.774 146.779 159.811  0.00  0.00    +0.000 A 
ATOM      9  C   UNL     1     103.981 146.675 159.868  0.00  0.00    +0.000 A 
ATOM     10  C   UNL     1     106.035 147.184 158.700  0.00  0.00    +0.000 A 
ATOM     11  C   UNL     1     104.641 147.133 158.728  0.00  0.00    +0.000 A 
ENDROOT
BRANCH   4  12
ATOM     12  C   UNL     1     103.839 144.974 164.290  0.00  0.00    +0.000 A 
ATOM     13  C   UNL     1     103.873 145.625 165.524  0.00  0.00    +0.000 A 
ATOM     14  C   UNL     1     102.976 143.897 164.094  0.00  0.00    +0.000 A 
ATOM     15  C   UNL     1     103.043 145.197 166.562  0.00  0.00    +0.000 A 
ATOM     16  C   UNL     1     102.146 143.469 165.131  0.00  0.00    +0.000 A 
ATOM     17  C   UNL     1     102.179 144.119 166.364  0.00  0.00    +0.000 A 
BRANCH  17  18
ATOM     18  O   UNL     1     101.369 143.703 167.375  0.00  0.00    +0.000 OA
ATOM     19  H   UNL     1     101.916 143.293 168.068  0.00  0.00    +0.000 HD
ENDBRANCH  17  18
ENDBRANCH   4  12
BRANCH   8  20
ATOM     20  O   UNL     1     108.132 146.848 159.732  0.00  0.00    +0.000 OA
ATOM     21  H   UNL     1     108.432 146.425 158.910  0.00  0.00    +0.000 HD
ENDBRANCH   8  20
BRANCH  11  22
ATOM     22  O   UNL     1     103.924 147.531 157.640  0.00  0.00    +0.000 OA
ATOM     23  H   UNL     1     103.940 146.822 156.975  0.00  0.00    +0.000 HD
ENDBRANCH  11  22
BRANCH   3  24
ATOM     24  O   UNL     1     106.727 144.983 164.416  0.00  0.00    +0.000 OA
BRANCH  24  30
ATOM     25  O   UNL     1     106.128 142.831 165.216  0.00  0.00    +0.000 OA
ATOM     26  C   UNL     1     108.718 143.588 166.196  0.00  0.00    +0.000 C 
ATOM     27  C   UNL     1     107.723 142.825 167.071  0.00  0.00    +0.000 C 
ATOM     28  C   UNL     1     108.457 143.325 164.712  0.00  0.00    +0.000 C 
ATOM     29  C   UNL     1     106.287 143.114 166.610  0.00  0.00    +0.000 C 
ATOM     30  C   UNL     1     106.994 143.585 164.362  0.00  0.00    +0.000 C 
ATOM     31  C   UNL     1     105.265 142.262 167.358  0.00  0.00    +0.000 C 
BRANCH  26  32
ATOM     32  O   UNL     1     110.044 143.187 166.535  0.00  0.00    +0.000 OA
ATOM     33  H   UNL     1     110.463 142.839 165.729  0.00  0.00    +0.000 HD
ENDBRANCH  26  32
BRANCH  27  34
ATOM     34  O   UNL     1     107.903 143.248 168.420  0.00  0.00    +0.000 OA
ATOM     35  H   UNL     1     108.517 142.629 168.851  0.00  0.00    +0.000 HD
ENDBRANCH  27  34
BRANCH  28  36
ATOM     36  O   UNL     1     108.743 141.961 164.402  0.00  0.00    +0.000 OA
ATOM     37  H   UNL     1     108.832 141.892 163.436  0.00  0.00    +0.000 HD
ENDBRANCH  28  36
ENDBRANCH  24  30
ENDBRANCH   3  24
TORSDOF 9
ENDMDL
MODEL 7
REMARK VINA RESULT:    -8.975      2.004      5.600
REMARK INTER + INTRA:         -12.932
REMARK INTER:                 -11.592
REMARK INTRA:                  -1.340
REMARK UNBOUND:                -0.809
REMARK  Name = 5316673
REMARK  10 active torsions:
REMARK  status: ('A' for Active; 'I' for Inactive)
REMARK    1  A    between atoms: O_2  and  C_15
REMARK    2  A    between atoms: O_2  and  C_17
REMARK    3  A    between atoms: O_3  and  C_11
REMARK    4  A    between atoms: O_4  and  C_12
REMARK    5  A    between atoms: O_5  and  C_13
REMARK    6  A    between atoms: O_8  and  C_23
REMARK    7  A    between atoms: O_9  and  C_28
REMARK    8  A    between atoms: O_10  and  C_31
REMARK    9  A    between atoms: C_14  and  C_16
REMARK   10  A    between atoms: C_18  and  C_22
REMARK                            x       y       z     vdW  Elec       q    Type
REMARK                         _______ _______ _______ _____ _____    ______ ____
ROOT
ATOM      1  O   UNL     1     107.768 144.432 164.618  0.00  0.00    +0.000 OA
ATOM      2  O   UNL     1     104.630 143.219 166.918  0.00  0.00    +0.000 OA
ATOM      3  C   UNL     1     105.376 144.283 164.939  0.00  0.00    +0.000 A 
ATOM      4  C   UNL     1     106.457 144.662 164.232  0.00  0.00    +0.000 A 
ATOM      5  C   UNL     1     105.575 143.586 166.232  0.00  0.00    +0.000 A 
ATOM      6  C   UNL     1     106.968 143.357 166.643  0.00  0.00    +0.000 A 
ATOM      7  C   UNL     1     107.997 143.793 165.810  0.00  0.00    +0.000 A 
ATOM      8  C   UNL     1     107.261 142.710 167.846  0.00  0.00    +0.000 A 
ATOM      9  C   UNL     1     109.326 143.586 166.177  0.00  0.00    +0.000 A 
ATOM     10  C   UNL     1     108.593 142.504 168.210  0.00  0.00    +0.000 A 
ATOM     11  C   UNL     1     109.623 142.942 167.377  0.00  0.00    +0.000 A 
ENDROOT
BRANCH   4  12
ATOM     12  C   UNL     1     106.353 145.352 162.935  0.00  0.00    +0.000 A 
ATOM     13  C   UNL     1     106.734 144.697 161.763  0.00  0.00    +0.000 A 
ATOM     14  C   UNL     1     105.872 146.660 162.877  0.00  0.00    +0.000 A 
ATOM     15  C   UNL     1     106.635 145.351 160.534  0.00  0.00    +0.000 A 
ATOM     16  C   UNL     1     105.772 147.314 161.649  0.00  0.00    +0.000 A 
ATOM     17  C   UNL     1     106.153 146.660 160.477  0.00  0.00    +0.000 A 
BRANCH  17  18
ATOM     18  O   UNL     1     106.056 147.297 159.279  0.00  0.00    +0.000 OA
ATOM     19  H   UNL     1     105.236 147.014 158.838  0.00  0.00    +0.000 HD
ENDBRANCH  17  18
ENDBRANCH   4  12
BRANCH   8  20
ATOM     20  O   UNL     1     106.294 142.264 168.695  0.00  0.00    +0.000 OA
ATOM     21  H   UNL     1     106.097 141.331 168.500  0.00  0.00    +0.000 HD
ENDBRANCH   8  20
BRANCH  11  22
ATOM     22  O   UNL     1     110.921 142.739 167.737  0.00  0.00    +0.000 OA
ATOM     23  H   UNL     1     111.386 143.593 167.738  0.00  0.00    +0.000 HD
ENDBRANCH  11  22
BRANCH   3  24
ATOM     24  O   UNL     1     104.084 144.498 164.510  0.00  0.00    +0.000 OA
BRANCH  24  30
ATOM     25  O   UNL     1     103.593 143.601 162.369  0.00  0.00    +0.000 OA
ATOM     26  C   UNL     1     101.173 144.134 163.820  0.00  0.00    +0.000 C 
ATOM     27  C   UNL     1     101.278 144.390 162.317  0.00  0.00    +0.000 C 
ATOM     28  C   UNL     1     102.164 143.056 164.262  0.00  0.00    +0.000 C 
ATOM     29  C   UNL     1     102.739 144.662 161.929  0.00  0.00    +0.000 C 
ATOM     30  C   UNL     1     103.577 143.384 163.784  0.00  0.00    +0.000 C 
ATOM     31  C   UNL     1     102.916 144.778 160.417  0.00  0.00    +0.000 C 
BRANCH  26  32
ATOM     32  O   UNL     1      99.843 143.731 164.136  0.00  0.00    +0.000 OA
ATOM     33  H   UNL     1      99.470 144.391 164.744  0.00  0.00    +0.000 HD
ENDBRANCH  26  32
BRANCH  27  34
ATOM     34  O   UNL     1     100.466 145.519 162.001  0.00  0.00    +0.000 OA
ATOM     35  H   UNL     1     101.052 146.249 161.741  0.00  0.00    +0.000 HD
ENDBRANCH  27  34
BRANCH  28  36
ATOM     36  O   UNL     1     101.795 141.796 163.700  0.00  0.00    +0.000 OA
ATOM     37  H   UNL     1     101.692 141.922 162.741  0.00  0.00    +0.000 HD
ENDBRANCH  28  36
ENDBRANCH  24  30
ENDBRANCH   3  24
TORSDOF 9
ENDMDL
MODEL 8
REMARK VINA RESULT:    -8.869     21.731     25.193
REMARK INTER + INTRA:         -12.789
REMARK INTER:                 -11.734
REMARK INTRA:                  -1.055
REMARK UNBOUND:                -0.809
REMARK  Name = 5316673
REMARK  10 active torsions:
REMARK  status: ('A' for Active; 'I' for Inactive)
REMARK    1  A    between atoms: O_2  and  C_15
REMARK    2  A    between atoms: O_2  and  C_17
REMARK    3  A    between atoms: O_3  and  C_11
REMARK    4  A    between atoms: O_4  and  C_12
REMARK    5  A    between atoms: O_5  and  C_13
REMARK    6  A    between atoms: O_8  and  C_23
REMARK    7  A    between atoms: O_9  and  C_28
REMARK    8  A    between atoms: O_10  and  C_31
REMARK    9  A    between atoms: C_14  and  C_16
REMARK   10  A    between atoms: C_18  and  C_22
REMARK                            x       y       z     vdW  Elec       q    Type
REMARK                         _______ _______ _______ _____ _____    ______ ____
ROOT
ATOM      1  O   UNL     1     118.420 149.412 146.879  0.00  0.00    +0.000 OA
ATOM      2  O   UNL     1     119.438 151.713 143.673  0.00  0.00    +0.000 OA
ATOM      3  C   UNL     1     120.078 150.757 145.744  0.00  0.00    +0.000 A 
ATOM      4  C   UNL     1     119.674 149.993 146.775  0.00  0.00    +0.000 A 
ATOM      5  C   UNL     1     119.128 151.025 144.637  0.00  0.00    +0.000 A 
ATOM      6  C   UNL     1     117.795 150.416 144.759  0.00  0.00    +0.000 A 
ATOM      7  C   UNL     1     117.509 149.638 145.879  0.00  0.00    +0.000 A 
ATOM      8  C   UNL     1     116.826 150.611 143.771  0.00  0.00    +0.000 A 
ATOM      9  C   UNL     1     116.253 149.049 146.018  0.00  0.00    +0.000 A 
ATOM     10  C   UNL     1     115.570 150.021 143.912  0.00  0.00    +0.000 A 
ATOM     11  C   UNL     1     115.284 149.241 145.033  0.00  0.00    +0.000 A 
ENDROOT
BRANCH   4  12
ATOM     12  C   UNL     1     120.553 149.669 147.912  0.00  0.00    +0.000 A 
ATOM     13  C   UNL     1     120.560 150.486 149.044  0.00  0.00    +0.000 A 
ATOM     14  C   UNL     1     121.379 148.547 147.858  0.00  0.00    +0.000 A 
ATOM     15  C   UNL     1     121.393 150.179 150.121  0.00  0.00    +0.000 A 
ATOM     16  C   UNL     1     122.212 148.240 148.935  0.00  0.00    +0.000 A 
ATOM     17  C   UNL     1     122.218 149.056 150.066  0.00  0.00    +0.000 A 
BRANCH  17  18
ATOM     18  O   UNL     1     123.030 148.756 151.117  0.00  0.00    +0.000 OA
ATOM     19  H   UNL     1     122.687 147.963 151.563  0.00  0.00    +0.000 HD
ENDBRANCH  17  18
ENDBRANCH   4  12
BRANCH   8  20
ATOM     20  O   UNL     1     117.055 151.362 142.658  0.00  0.00    +0.000 OA
ATOM     21  H   UNL     1     117.657 150.884 142.061  0.00  0.00    +0.000 HD
ENDBRANCH   8  20
BRANCH  11  22
ATOM     22  O   UNL     1     114.056 148.667 145.166  0.00  0.00    +0.000 OA
ATOM     23  H   UNL     1     113.374 149.327 144.953  0.00  0.00    +0.000 HD
ENDBRANCH  11  22
BRANCH   3  24
ATOM     24  O   UNL     1     121.344 151.293 145.655  0.00  0.00    +0.000 OA
BRANCH  24  30
ATOM     25  O   UNL     1     123.011 149.698 145.101  0.00  0.00    +0.000 OA
ATOM     26  C   UNL     1     123.980 152.364 144.664  0.00  0.00    +0.000 C 
ATOM     27  C   UNL     1     124.882 151.268 145.231  0.00  0.00    +0.000 C 
ATOM     28  C   UNL     1     122.848 151.765 143.827  0.00  0.00    +0.000 C 
ATOM     29  C   UNL     1     124.035 150.213 145.958  0.00  0.00    +0.000 C 
ATOM     30  C   UNL     1     122.101 150.689 144.612  0.00  0.00    +0.000 C 
ATOM     31  C   UNL     1     124.875 149.023 146.415  0.00  0.00    +0.000 C 
BRANCH  26  32
ATOM     32  O   UNL     1     124.762 153.247 143.862  0.00  0.00    +0.000 OA
ATOM     33  H   UNL     1     125.458 153.622 144.427  0.00  0.00    +0.000 HD
ENDBRANCH  26  32
BRANCH  27  34
ATOM     34  O   UNL     1     125.800 151.874 146.138  0.00  0.00    +0.000 OA
ATOM     35  H   UNL     1     125.345 152.609 146.582  0.00  0.00    +0.000 HD
ENDBRANCH  27  34
BRANCH  28  36
ATOM     36  O   UNL     1     123.383 151.154 142.652  0.00  0.00    +0.000 OA
ATOM     37  H   UNL     1     124.348 151.107 142.759  0.00  0.00    +0.000 HD
ENDBRANCH  28  36
ENDBRANCH  24  30
ENDBRANCH   3  24
TORSDOF 9
ENDMDL
MODEL 9
REMARK VINA RESULT:    -8.684      1.627      2.439
REMARK INTER + INTRA:         -12.539
REMARK INTER:                 -11.297
REMARK INTRA:                  -1.242
REMARK UNBOUND:                -0.809
REMARK  Name = 5316673
REMARK  10 active torsions:
REMARK  status: ('A' for Active; 'I' for Inactive)
REMARK    1  A    between atoms: O_2  and  C_15
REMARK    2  A    between atoms: O_2  and  C_17
REMARK    3  A    between atoms: O_3  and  C_11
REMARK    4  A    between atoms: O_4  and  C_12
REMARK    5  A    between atoms: O_5  and  C_13
REMARK    6  A    between atoms: O_8  and  C_23
REMARK    7  A    between atoms: O_9  and  C_28
REMARK    8  A    between atoms: O_10  and  C_31
REMARK    9  A    between atoms: C_14  and  C_16
REMARK   10  A    between atoms: C_18  and  C_22
REMARK                            x       y       z     vdW  Elec       q    Type
REMARK                         _______ _______ _______ _____ _____    ______ ____
ROOT
ATOM      1  O   UNL     1     108.342 145.768 163.189  0.00  0.00    +0.000 OA
ATOM      2  O   UNL     1     105.374 145.925 160.400  0.00  0.00    +0.000 OA
ATOM      3  C   UNL     1     106.259 144.885 162.336  0.00  0.00    +0.000 A 
ATOM      4  C   UNL     1     107.274 144.885 163.219  0.00  0.00    +0.000 A 
ATOM      5  C   UNL     1     106.269 145.878 161.234  0.00  0.00    +0.000 A 
ATOM      6  C   UNL     1     107.412 146.803 161.200  0.00  0.00    +0.000 A 
ATOM      7  C   UNL     1     108.393 146.699 162.184  0.00  0.00    +0.000 A 
ATOM      8  C   UNL     1     107.516 147.773 160.199  0.00  0.00    +0.000 A 
ATOM      9  C   UNL     1     109.485 147.566 162.174  0.00  0.00    +0.000 A 
ATOM     10  C   UNL     1     108.610 148.639 160.192  0.00  0.00    +0.000 A 
ATOM     11  C   UNL     1     109.593 148.536 161.178  0.00  0.00    +0.000 A 
ENDROOT
BRANCH   4  12
ATOM     12  C   UNL     1     107.340 143.941 164.348  0.00  0.00    +0.000 A 
ATOM     13  C   UNL     1     107.381 144.421 165.658  0.00  0.00    +0.000 A 
ATOM     14  C   UNL     1     107.361 142.567 164.109  0.00  0.00    +0.000 A 
ATOM     15  C   UNL     1     107.443 143.526 166.727  0.00  0.00    +0.000 A 
ATOM     16  C   UNL     1     107.423 141.672 165.177  0.00  0.00    +0.000 A 
ATOM     17  C   UNL     1     107.464 142.152 166.487  0.00  0.00    +0.000 A 
BRANCH  17  18
ATOM     18  O   UNL     1     107.524 141.279 167.529  0.00  0.00    +0.000 OA
ATOM     19  H   UNL     1     106.921 141.584 168.229  0.00  0.00    +0.000 HD
ENDBRANCH  17  18
ENDBRANCH   4  12
BRANCH   8  20
ATOM     20  O   UNL     1     106.586 147.916 159.216  0.00  0.00    +0.000 OA
ATOM     21  H   UNL     1     106.947 147.583 158.376  0.00  0.00    +0.000 HD
ENDBRANCH   8  20
BRANCH  11  22
ATOM     22  O   UNL     1     110.659 149.383 161.166  0.00  0.00    +0.000 OA
ATOM     23  H   UNL     1     110.334 150.299 161.155  0.00  0.00    +0.000 HD
ENDBRANCH  11  22
BRANCH   3  24
ATOM     24  O   UNL     1     105.193 144.014 162.413  0.00  0.00    +0.000 OA
BRANCH  24  30
ATOM     25  O   UNL     1     103.982 144.444 164.407  0.00  0.00    +0.000 OA
ATOM     26  C   UNL     1     102.525 142.646 162.708  0.00  0.00    +0.000 C 
ATOM     27  C   UNL     1     102.540 142.476 164.227  0.00  0.00    +0.000 C 
ATOM     28  C   UNL     1     102.783 144.102 162.317  0.00  0.00    +0.000 C 
ATOM     29  C   UNL     1     103.825 143.081 164.812  0.00  0.00    +0.000 C 
ATOM     30  C   UNL     1     104.048 144.631 162.989  0.00  0.00    +0.000 C 
ATOM     31  C   UNL     1     103.819 143.067 166.338  0.00  0.00    +0.000 C 
BRANCH  26  32
ATOM     32  O   UNL     1     101.261 142.223 162.201  0.00  0.00    +0.000 OA
ATOM     33  H   UNL     1     100.829 142.997 161.802  0.00  0.00    +0.000 HD
ENDBRANCH  26  32
BRANCH  27  34
ATOM     34  O   UNL     1     102.474 141.082 164.518  0.00  0.00    +0.000 OA
ATOM     35  H   UNL     1     102.950 140.605 163.818  0.00  0.00    +0.000 HD
ENDBRANCH  27  34
BRANCH  28  36
ATOM     36  O   UNL     1     101.690 144.920 162.738  0.00  0.00    +0.000 OA
ATOM     37  H   UNL     1     100.899 144.621 162.259  0.00  0.00    +0.000 HD
ENDBRANCH  28  36
ENDBRANCH  24  30
ENDBRANCH   3  24
TORSDOF 9
ENDMDL
MODEL 10
REMARK VINA RESULT:    -8.532     12.124     16.011
REMARK INTER + INTRA:         -12.333
REMARK INTER:                 -11.089
REMARK INTRA:                  -1.244
REMARK UNBOUND:                -0.809
REMARK  Name = 5316673
REMARK  10 active torsions:
REMARK  status: ('A' for Active; 'I' for Inactive)
REMARK    1  A    between atoms: O_2  and  C_15
REMARK    2  A    between atoms: O_2  and  C_17
REMARK    3  A    between atoms: O_3  and  C_11
REMARK    4  A    between atoms: O_4  and  C_12
REMARK    5  A    between atoms: O_5  and  C_13
REMARK    6  A    between atoms: O_8  and  C_23
REMARK    7  A    between atoms: O_9  and  C_28
REMARK    8  A    between atoms: O_10  and  C_31
REMARK    9  A    between atoms: C_14  and  C_16
REMARK   10  A    between atoms: C_18  and  C_22
REMARK                            x       y       z     vdW  Elec       q    Type
REMARK                         _______ _______ _______ _____ _____    ______ ____
ROOT
ATOM      1  O   UNL     1     117.921 155.254 167.264  0.00  0.00    +0.000 OA
ATOM      2  O   UNL     1     114.443 153.148 166.983  0.00  0.00    +0.000 OA
ATOM      3  C   UNL     1     116.262 154.180 165.871  0.00  0.00    +0.000 A 
ATOM      4  C   UNL     1     117.399 154.880 166.035  0.00  0.00    +0.000 A 
ATOM      5  C   UNL     1     115.485 153.784 167.070  0.00  0.00    +0.000 A 
ATOM      6  C   UNL     1     116.037 154.195 168.370  0.00  0.00    +0.000 A 
ATOM      7  C   UNL     1     117.232 154.911 168.398  0.00  0.00    +0.000 A 
ATOM      8  C   UNL     1     115.380 153.873 169.560  0.00  0.00    +0.000 A 
ATOM      9  C   UNL     1     117.777 155.310 169.618  0.00  0.00    +0.000 A 
ATOM     10  C   UNL     1     115.927 154.273 170.779  0.00  0.00    +0.000 A 
ATOM     11  C   UNL     1     117.124 154.991 170.808  0.00  0.00    +0.000 A 
ENDROOT
BRANCH   4  12
ATOM     12  C   UNL     1     118.236 155.308 164.901  0.00  0.00    +0.000 A 
ATOM     13  C   UNL     1     119.563 154.884 164.814  0.00  0.00    +0.000 A 
ATOM     14  C   UNL     1     117.703 156.135 163.913  0.00  0.00    +0.000 A 
ATOM     15  C   UNL     1     120.356 155.289 163.738  0.00  0.00    +0.000 A 
ATOM     16  C   UNL     1     118.495 156.540 162.838  0.00  0.00    +0.000 A 
ATOM     17  C   UNL     1     119.821 156.117 162.751  0.00  0.00    +0.000 A 
BRANCH  17  18
ATOM     18  O   UNL     1     120.594 156.511 161.702  0.00  0.00    +0.000 OA
ATOM     19  H   UNL     1     120.604 155.802 161.036  0.00  0.00    +0.000 HD
ENDBRANCH  17  18
ENDBRANCH   4  12
BRANCH   8  20
ATOM     20  O   UNL     1     114.210 153.175 169.587  0.00  0.00    +0.000 OA
ATOM     21  H   UNL     1     113.836 153.203 170.484  0.00  0.00    +0.000 HD
ENDBRANCH   8  20
BRANCH  11  22
ATOM     22  O   UNL     1     117.654 155.380 172.001  0.00  0.00    +0.000 OA
ATOM     23  H   UNL     1     117.786 154.595 172.559  0.00  0.00    +0.000 HD
ENDBRANCH  11  22
BRANCH   3  24
ATOM     24  O   UNL     1     115.786 153.796 164.635  0.00  0.00    +0.000 OA
BRANCH  24  30
ATOM     25  O   UNL     1     117.304 152.558 163.295  0.00  0.00    +0.000 OA
ATOM     26  C   UNL     1     114.607 152.160 162.396  0.00  0.00    +0.000 C 
ATOM     27  C   UNL     1     115.769 152.279 161.411  0.00  0.00    +0.000 C 
ATOM     28  C   UNL     1     115.091 151.658 163.758  0.00  0.00    +0.000 C 
ATOM     29  C   UNL     1     116.905 153.103 162.034  0.00  0.00    +0.000 C 
ATOM     30  C   UNL     1     116.255 152.503 164.268  0.00  0.00    +0.000 C 
ATOM     31  C   UNL     1     118.147 153.126 161.146  0.00  0.00    +0.000 C 
BRANCH  26  32
ATOM     32  O   UNL     1     113.632 151.265 161.866  0.00  0.00    +0.000 OA
ATOM     33  H   UNL     1     114.086 150.437 161.634  0.00  0.00    +0.000 HD
ENDBRANCH  26  32
BRANCH  27  34
ATOM     34  O   UNL     1     115.287 152.915 160.230  0.00  0.00    +0.000 OA
ATOM     35  H   UNL     1     114.857 153.748 160.490  0.00  0.00    +0.000 HD
ENDBRANCH  27  34
BRANCH  28  36
ATOM     36  O   UNL     1     115.548 150.309 163.643  0.00  0.00    +0.000 OA
ATOM     37  H   UNL     1     114.837 149.730 163.965  0.00  0.00    +0.000 HD
ENDBRANCH  28  36
ENDBRANCH  24  30
ENDBRANCH   3  24
TORSDOF 9
ENDMDL
