MODEL 1
REMARK VINA RESULT:      -8.5      0.000      0.000
REMARK  8 active torsions:
REMARK  status: ('A' for Active; 'I' for Inactive)
REMARK    1  A    between atoms: C_2  and  O_3 
REMARK    2  A    between atoms: C_15  and  O_16 
REMARK    3  A    between atoms: C_28  and  C_29 
REMARK    4  A    between atoms: C_33  and  C_34 
REMARK    5  A    between atoms: O_3  and  C_4 
REMARK    6  A    between atoms: C_4  and  C_6 
REMARK    7  A    between atoms: O_16  and  C_17 
REMARK    8  A    between atoms: C_17  and  C_19 
ROOT
ATOM      1  O   LIG     1     151.290 152.072 149.423  0.00  0.00    -0.315 OA
ATOM      2  C   LIG     1     151.164 153.433 149.898  0.00  0.00     0.332 C 
ATOM      3  C   LIG     1     150.262 154.319 148.993  0.00  0.00     0.244 C 
ATOM      4  C   LIG     1     150.606 154.183 147.473  0.00  0.00     0.112 C 
ATOM      5  C   LIG     1     150.780 152.684 147.067  0.00  0.00     0.188 C 
ATOM      6  O   LIG     1     149.487 152.070 147.031  0.00  0.00    -0.220 OA
ATOM      7  C   LIG     1     151.674 151.860 148.046  0.00  0.00     0.182 C 
ENDROOT
BRANCH   2   8
ATOM      8  O   LIG     1     152.404 154.104 150.172  0.00  0.00    -0.418 OA
BRANCH   8   9
ATOM      9  C   LIG     1     152.786 154.674 151.355  0.00  0.00     0.343 C 
ATOM     10  O   LIG     1     153.034 153.931 152.336  0.00  0.00    -0.245 OA
BRANCH   9  11
ATOM     11  C   LIG     1     152.868 156.089 151.476  0.00  0.00     0.082 A 
ATOM     12  C   LIG     1     151.727 156.901 151.256  0.00  0.00     0.052 A 
ATOM     13  C   LIG     1     151.759 158.289 151.500  0.00  0.00     0.238 A 
ATOM     14  C   LIG     1     152.954 158.894 151.934  0.00  0.00     0.273 A 
ATOM     15  O   LIG     1     150.645 159.050 151.332  0.00  0.00    -0.283 OA
ATOM     16  O   LIG     1     152.963 160.227 152.190  0.00  0.00    -0.280 OA
ATOM     17  C   LIG     1     154.118 158.115 152.097  0.00  0.00     0.238 A 
ATOM     18  C   LIG     1     154.069 156.724 151.881  0.00  0.00     0.052 A 
ATOM     19  O   LIG     1     155.281 158.708 152.473  0.00  0.00    -0.283 OA
ENDBRANCH   9  11
ENDBRANCH   8   9
ENDBRANCH   2   8
BRANCH   3  20
ATOM     20  O   LIG     1     148.892 153.953 149.258  0.00  0.00    -0.442 OA
BRANCH  20  21
ATOM     21  C   LIG     1     148.047 154.493 150.188  0.00  0.00     0.341 C 
ATOM     22  O   LIG     1     148.049 153.912 151.297  0.00  0.00    -0.245 OA
BRANCH  21  23
ATOM     23  C   LIG     1     147.282 155.679 149.991  0.00  0.00     0.082 A 
ATOM     24  C   LIG     1     147.794 156.943 150.377  0.00  0.00     0.052 A 
ATOM     25  C   LIG     1     147.034 158.121 150.221  0.00  0.00     0.238 A 
ATOM     26  O   LIG     1     147.545 159.310 150.631  0.00  0.00    -0.283 OA
ATOM     27  C   LIG     1     145.745 158.056 149.652  0.00  0.00     0.273 A 
ATOM     28  O   LIG     1     144.985 159.170 149.481  0.00  0.00    -0.280 OA
ATOM     29  C   LIG     1     145.224 156.811 149.250  0.00  0.00     0.238 A 
ATOM     30  O   LIG     1     143.977 156.744 148.719  0.00  0.00    -0.283 OA
ATOM     31  C   LIG     1     145.994 155.640 149.404  0.00  0.00     0.052 A 
ENDBRANCH  21  23
ENDBRANCH  20  21
ENDBRANCH   3  20
BRANCH   7  32
ATOM     32  C   LIG     1     153.209 151.963 147.833  0.00  0.00     0.214 C 
ATOM     33  O   LIG     1     153.548 151.836 146.455  0.00  0.00    -0.218 OA
ENDBRANCH   7  32
BRANCH   4  34
ATOM     34  C   LIG     1     151.788 155.098 147.023  0.00  0.00     0.189 C 
ATOM     35  O   LIG     1     151.724 156.366 147.669  0.00  0.00    -0.220 OA
ENDBRANCH   4  34
TORSDOF 8
ENDMDL
MODEL 2
REMARK VINA RESULT:      -8.4      2.511      8.014
REMARK  8 active torsions:
REMARK  status: ('A' for Active; 'I' for Inactive)
REMARK    1  A    between atoms: C_2  and  O_3 
REMARK    2  A    between atoms: C_15  and  O_16 
REMARK    3  A    between atoms: C_28  and  C_29 
REMARK    4  A    between atoms: C_33  and  C_34 
REMARK    5  A    between atoms: O_3  and  C_4 
REMARK    6  A    between atoms: C_4  and  C_6 
REMARK    7  A    between atoms: O_16  and  C_17 
REMARK    8  A    between atoms: C_17  and  C_19 
ROOT
ATOM      1  O   LIG     1     150.558 159.964 151.955  0.00  0.00    -0.315 OA
ATOM      2  C   LIG     1     151.163 158.798 151.347  0.00  0.00     0.332 C 
ATOM      3  C   LIG     1     152.537 159.096 150.680  0.00  0.00     0.244 C 
ATOM      4  C   LIG     1     152.507 160.370 149.773  0.00  0.00     0.112 C 
ATOM      5  C   LIG     1     151.785 161.555 150.491  0.00  0.00     0.188 C 
ATOM      6  O   LIG     1     152.649 162.062 151.513  0.00  0.00    -0.220 OA
ATOM      7  C   LIG     1     150.430 161.163 151.159  0.00  0.00     0.182 C 
ENDROOT
BRANCH   2   8
ATOM      8  O   LIG     1     150.318 158.071 150.441  0.00  0.00    -0.418 OA
BRANCH   8   9
ATOM      9  C   LIG     1     149.786 156.825 150.634  0.00  0.00     0.343 C 
ATOM     10  O   LIG     1     150.486 155.946 151.193  0.00  0.00    -0.245 OA
BRANCH   9  11
ATOM     11  C   LIG     1     148.472 156.528 150.177  0.00  0.00     0.082 A 
ATOM     12  C   LIG     1     147.503 157.554 150.044  0.00  0.00     0.052 A 
ATOM     13  C   LIG     1     146.242 157.298 149.469  0.00  0.00     0.238 A 
ATOM     14  C   LIG     1     145.916 155.994 149.052  0.00  0.00     0.273 A 
ATOM     15  O   LIG     1     145.339 158.301 149.301  0.00  0.00    -0.283 OA
ATOM     16  O   LIG     1     144.708 155.768 148.476  0.00  0.00    -0.280 OA
ATOM     17  C   LIG     1     146.841 154.945 149.235  0.00  0.00     0.238 A 
ATOM     18  C   LIG     1     148.111 155.216 149.781  0.00  0.00     0.052 A 
ATOM     19  O   LIG     1     146.509 153.679 148.872  0.00  0.00    -0.283 OA
ENDBRANCH   9  11
ENDBRANCH   8   9
ENDBRANCH   2   8
BRANCH   3  20
ATOM     20  O   LIG     1     153.511 159.222 151.737  0.00  0.00    -0.442 OA
BRANCH  20  21
ATOM     21  C   LIG     1     154.408 158.283 152.164  0.00  0.00     0.341 C 
ATOM     22  O   LIG     1     155.486 158.747 152.599  0.00  0.00    -0.245 OA
BRANCH  21  23
ATOM     23  C   LIG     1     154.143 156.884 152.224  0.00  0.00     0.082 A 
ATOM     24  C   LIG     1     153.678 156.285 153.421  0.00  0.00     0.052 A 
ATOM     25  C   LIG     1     153.448 154.896 153.505  0.00  0.00     0.238 A 
ATOM     26  O   LIG     1     153.033 154.353 154.679  0.00  0.00    -0.283 OA
ATOM     27  C   LIG     1     153.660 154.079 152.376  0.00  0.00     0.273 A 
ATOM     28  O   LIG     1     153.443 152.736 152.417  0.00  0.00    -0.280 OA
ATOM     29  C   LIG     1     154.110 154.657 151.173  0.00  0.00     0.238 A 
ATOM     30  O   LIG     1     154.332 153.869 150.090  0.00  0.00    -0.283 OA
ATOM     31  C   LIG     1     154.331 156.047 151.097  0.00  0.00     0.052 A 
ENDBRANCH  21  23
ENDBRANCH  20  21
ENDBRANCH   3  20
BRANCH   7  32
ATOM     32  C   LIG     1     149.184 161.132 150.231  0.00  0.00     0.214 C 
ATOM     33  O   LIG     1     149.289 162.105 149.196  0.00  0.00    -0.218 OA
ENDBRANCH   7  32
BRANCH   4  34
ATOM     34  C   LIG     1     151.979 160.090 148.332  0.00  0.00     0.189 C 
ATOM     35  O   LIG     1     152.050 161.263 147.527  0.00  0.00    -0.220 OA
ENDBRANCH   4  34
TORSDOF 8
ENDMDL
MODEL 3
REMARK VINA RESULT:      -8.3      2.581      8.022
REMARK  8 active torsions:
REMARK  status: ('A' for Active; 'I' for Inactive)
REMARK    1  A    between atoms: C_2  and  O_3 
REMARK    2  A    between atoms: C_15  and  O_16 
REMARK    3  A    between atoms: C_28  and  C_29 
REMARK    4  A    between atoms: C_33  and  C_34 
REMARK    5  A    between atoms: O_3  and  C_4 
REMARK    6  A    between atoms: C_4  and  C_6 
REMARK    7  A    between atoms: O_16  and  C_17 
REMARK    8  A    between atoms: C_17  and  C_19 
ROOT
ATOM      1  O   LIG     1     152.521 161.902 150.741  0.00  0.00    -0.315 OA
ATOM      2  C   LIG     1     151.787 160.705 151.091  0.00  0.00     0.332 C 
ATOM      3  C   LIG     1     152.592 159.397 150.844  0.00  0.00     0.244 C 
ATOM      4  C   LIG     1     153.275 159.361 149.438  0.00  0.00     0.112 C 
ATOM      5  C   LIG     1     153.991 160.714 149.125  0.00  0.00     0.188 C 
ATOM      6  O   LIG     1     155.179 160.794 149.918  0.00  0.00    -0.220 OA
ATOM      7  C   LIG     1     153.124 161.976 149.430  0.00  0.00     0.182 C 
ENDROOT
BRANCH   2   8
ATOM      8  O   LIG     1     150.476 160.598 150.514  0.00  0.00    -0.418 OA
BRANCH   8   9
ATOM      9  C   LIG     1     149.350 160.106 151.116  0.00  0.00     0.343 C 
ATOM     10  O   LIG     1     148.965 160.619 152.195  0.00  0.00    -0.245 OA
BRANCH   9  11
ATOM     11  C   LIG     1     148.651 159.009 150.541  0.00  0.00     0.082 A 
ATOM     12  C   LIG     1     149.270 157.739 150.420  0.00  0.00     0.052 A 
ATOM     13  C   LIG     1     148.549 156.613 149.977  0.00  0.00     0.238 A 
ATOM     14  C   LIG     1     147.198 156.750 149.607  0.00  0.00     0.273 A 
ATOM     15  O   LIG     1     149.140 155.390 149.912  0.00  0.00    -0.283 OA
ATOM     16  O   LIG     1     146.508 155.653 149.205  0.00  0.00    -0.280 OA
ATOM     17  C   LIG     1     146.580 158.018 149.657  0.00  0.00     0.238 A 
ATOM     18  C   LIG     1     147.300 159.132 150.132  0.00  0.00     0.052 A 
ATOM     19  O   LIG     1     145.289 158.157 149.258  0.00  0.00    -0.283 OA
ENDBRANCH   9  11
ENDBRANCH   8   9
ENDBRANCH   2   8
BRANCH   3  20
ATOM     20  O   LIG     1     153.562 159.280 151.906  0.00  0.00    -0.442 OA
BRANCH  20  21
ATOM     21  C   LIG     1     154.449 158.261 152.120  0.00  0.00     0.341 C 
ATOM     22  O   LIG     1     155.623 158.629 152.353  0.00  0.00    -0.245 OA
BRANCH  21  23
ATOM     23  C   LIG     1     154.094 156.883 152.182  0.00  0.00     0.082 A 
ATOM     24  C   LIG     1     153.686 156.294 153.405  0.00  0.00     0.052 A 
ATOM     25  C   LIG     1     153.368 154.923 153.489  0.00  0.00     0.238 A 
ATOM     26  O   LIG     1     153.011 154.387 154.685  0.00  0.00    -0.283 OA
ATOM     27  C   LIG     1     153.432 154.115 152.335  0.00  0.00     0.273 A 
ATOM     28  O   LIG     1     153.126 152.790 152.376  0.00  0.00    -0.280 OA
ATOM     29  C   LIG     1     153.822 154.683 151.107  0.00  0.00     0.238 A 
ATOM     30  O   LIG     1     153.902 153.903 150.000  0.00  0.00    -0.283 OA
ATOM     31  C   LIG     1     154.133 156.057 151.033  0.00  0.00     0.052 A 
ENDBRANCH  21  23
ENDBRANCH  20  21
ENDBRANCH   3  20
BRANCH   7  32
ATOM     32  C   LIG     1     152.112 162.403 148.331  0.00  0.00     0.214 C 
ATOM     33  O   LIG     1     151.279 163.466 148.783  0.00  0.00    -0.218 OA
ENDBRANCH   7  32
BRANCH   4  34
ATOM     34  C   LIG     1     152.324 158.873 148.301  0.00  0.00     0.189 C 
ATOM     35  O   LIG     1     152.846 159.213 147.020  0.00  0.00    -0.220 OA
ENDBRANCH   4  34
TORSDOF 8
ENDMDL
MODEL 4
REMARK VINA RESULT:      -8.3      2.775      7.396
REMARK  8 active torsions:
REMARK  status: ('A' for Active; 'I' for Inactive)
REMARK    1  A    between atoms: C_2  and  O_3 
REMARK    2  A    between atoms: C_15  and  O_16 
REMARK    3  A    between atoms: C_28  and  C_29 
REMARK    4  A    between atoms: C_33  and  C_34 
REMARK    5  A    between atoms: O_3  and  C_4 
REMARK    6  A    between atoms: C_4  and  C_6 
REMARK    7  A    between atoms: O_16  and  C_17 
REMARK    8  A    between atoms: C_17  and  C_19 
ROOT
ATOM      1  O   LIG     1     153.038 154.766 150.011  0.00  0.00    -0.315 OA
ATOM      2  C   LIG     1     152.704 156.034 150.622  0.00  0.00     0.332 C 
ATOM      3  C   LIG     1     153.701 156.461 151.737  0.00  0.00     0.244 C 
ATOM      4  C   LIG     1     154.014 155.308 152.746  0.00  0.00     0.112 C 
ATOM      5  C   LIG     1     154.305 153.968 151.996  0.00  0.00     0.188 C 
ATOM      6  O   LIG     1     155.600 154.057 151.393  0.00  0.00    -0.220 OA
ATOM      7  C   LIG     1     153.275 153.631 150.874  0.00  0.00     0.182 C 
ENDROOT
BRANCH   2   8
ATOM      8  O   LIG     1     151.351 156.149 151.094  0.00  0.00    -0.418 OA
BRANCH   8   9
ATOM      9  C   LIG     1     150.464 157.150 150.808  0.00  0.00     0.343 C 
ATOM     10  O   LIG     1     150.824 158.343 150.959  0.00  0.00    -0.245 OA
BRANCH   9  11
ATOM     11  C   LIG     1     149.144 156.837 150.379  0.00  0.00     0.082 A 
ATOM     12  C   LIG     1     148.741 155.489 150.201  0.00  0.00     0.052 A 
ATOM     13  C   LIG     1     147.403 155.159 149.906  0.00  0.00     0.238 A 
ATOM     14  C   LIG     1     146.451 156.183 149.743  0.00  0.00     0.273 A 
ATOM     15  O   LIG     1     147.019 153.860 149.787  0.00  0.00    -0.283 OA
ATOM     16  O   LIG     1     145.161 155.849 149.484  0.00  0.00    -0.280 OA
ATOM     17  C   LIG     1     146.844 157.533 149.851  0.00  0.00     0.238 A 
ATOM     18  C   LIG     1     148.177 157.853 150.178  0.00  0.00     0.052 A 
ATOM     19  O   LIG     1     145.934 158.521 149.650  0.00  0.00    -0.283 OA
ENDBRANCH   9  11
ENDBRANCH   8   9
ENDBRANCH   2   8
BRANCH   3  20
ATOM     20  O   LIG     1     154.899 156.933 151.086  0.00  0.00    -0.442 OA
BRANCH  20  21
ATOM     21  C   LIG     1     155.248 158.227 150.812  0.00  0.00     0.341 C 
ATOM     22  O   LIG     1     155.536 158.915 151.817  0.00  0.00    -0.245 OA
BRANCH  21  23
ATOM     23  C   LIG     1     155.383 158.765 149.500  0.00  0.00     0.082 A 
ATOM     24  C   LIG     1     155.661 160.142 149.307  0.00  0.00     0.052 A 
ATOM     25  C   LIG     1     155.761 160.695 148.014  0.00  0.00     0.238 A 
ATOM     26  O   LIG     1     155.997 162.025 147.868  0.00  0.00    -0.283 OA
ATOM     27  C   LIG     1     155.605 159.870 146.881  0.00  0.00     0.273 A 
ATOM     28  O   LIG     1     155.700 160.367 145.619  0.00  0.00    -0.280 OA
ATOM     29  C   LIG     1     155.341 158.497 147.052  0.00  0.00     0.238 A 
ATOM     30  O   LIG     1     155.172 157.704 145.963  0.00  0.00    -0.283 OA
ATOM     31  C   LIG     1     155.249 157.952 148.349  0.00  0.00     0.052 A 
ENDBRANCH  21  23
ENDBRANCH  20  21
ENDBRANCH   3  20
BRANCH   7  32
ATOM     32  C   LIG     1     151.957 152.943 151.328  0.00  0.00     0.214 C 
ATOM     33  O   LIG     1     151.092 152.707 150.222  0.00  0.00    -0.218 OA
ENDBRANCH   7  32
BRANCH   4  34
ATOM     34  C   LIG     1     152.953 155.177 153.882  0.00  0.00     0.189 C 
ATOM     35  O   LIG     1     153.378 154.242 154.870  0.00  0.00    -0.220 OA
ENDBRANCH   4  34
TORSDOF 8
ENDMDL
MODEL 5
REMARK VINA RESULT:      -8.3      3.888      9.875
REMARK  8 active torsions:
REMARK  status: ('A' for Active; 'I' for Inactive)
REMARK    1  A    between atoms: C_2  and  O_3 
REMARK    2  A    between atoms: C_15  and  O_16 
REMARK    3  A    between atoms: C_28  and  C_29 
REMARK    4  A    between atoms: C_33  and  C_34 
REMARK    5  A    between atoms: O_3  and  C_4 
REMARK    6  A    between atoms: C_4  and  C_6 
REMARK    7  A    between atoms: O_16  and  C_17 
REMARK    8  A    between atoms: C_17  and  C_19 
ROOT
ATOM      1  O   LIG     1     150.964 152.113 148.901  0.00  0.00    -0.315 OA
ATOM      2  C   LIG     1     150.734 152.097 147.473  0.00  0.00     0.332 C 
ATOM      3  C   LIG     1     151.895 152.733 146.656  0.00  0.00     0.244 C 
ATOM      4  C   LIG     1     152.360 154.111 147.231  0.00  0.00     0.112 C 
ATOM      5  C   LIG     1     152.525 154.045 148.784  0.00  0.00     0.188 C 
ATOM      6  O   LIG     1     153.709 153.298 149.084  0.00  0.00    -0.220 OA
ATOM      7  C   LIG     1     151.329 153.365 149.522  0.00  0.00     0.182 C 
ENDROOT
BRANCH   2   8
ATOM      8  O   LIG     1     149.473 152.641 147.049  0.00  0.00    -0.418 OA
BRANCH   8   9
ATOM      9  C   LIG     1     149.023 152.767 145.763  0.00  0.00     0.343 C 
ATOM     10  O   LIG     1     148.680 153.901 145.349  0.00  0.00    -0.245 OA
BRANCH   9  11
ATOM     11  C   LIG     1     148.915 151.622 144.925  0.00  0.00     0.082 A 
ATOM     12  C   LIG     1     149.831 151.416 143.863  0.00  0.00     0.052 A 
ATOM     13  C   LIG     1     149.820 150.225 143.109  0.00  0.00     0.238 A 
ATOM     14  C   LIG     1     148.859 149.234 143.384  0.00  0.00     0.273 A 
ATOM     15  O   LIG     1     150.734 150.017 142.124  0.00  0.00    -0.283 OA
ATOM     16  O   LIG     1     148.875 148.082 142.667  0.00  0.00    -0.280 OA
ATOM     17  C   LIG     1     147.897 149.447 144.393  0.00  0.00     0.238 A 
ATOM     18  C   LIG     1     147.936 150.627 145.163  0.00  0.00     0.052 A 
ATOM     19  O   LIG     1     146.943 148.509 144.628  0.00  0.00    -0.283 OA
ENDBRANCH   9  11
ENDBRANCH   8   9
ENDBRANCH   2   8
BRANCH   3  20
ATOM     20  O   LIG     1     152.978 151.779 146.632  0.00  0.00    -0.442 OA
BRANCH  20  21
ATOM     21  C   LIG     1     153.596 151.243 145.536  0.00  0.00     0.341 C 
ATOM     22  O   LIG     1     154.545 151.924 145.084  0.00  0.00    -0.245 OA
BRANCH  21  23
ATOM     23  C   LIG     1     153.288 149.969 144.978  0.00  0.00     0.082 A 
ATOM     24  C   LIG     1     152.252 149.170 145.525  0.00  0.00     0.052 A 
ATOM     25  C   LIG     1     151.960 147.892 145.007  0.00  0.00     0.238 A 
ATOM     26  O   LIG     1     150.981 147.142 145.577  0.00  0.00    -0.283 OA
ATOM     27  C   LIG     1     152.692 147.394 143.909  0.00  0.00     0.273 A 
ATOM     28  O   LIG     1     152.436 146.168 143.379  0.00  0.00    -0.280 OA
ATOM     29  C   LIG     1     153.717 148.177 143.344  0.00  0.00     0.238 A 
ATOM     30  O   LIG     1     154.434 147.692 142.299  0.00  0.00    -0.283 OA
ATOM     31  C   LIG     1     153.997 149.457 143.865  0.00  0.00     0.052 A 
ENDBRANCH  21  23
ENDBRANCH  20  21
ENDBRANCH   3  20
BRANCH   7  32
ATOM     32  C   LIG     1     150.098 154.265 149.819  0.00  0.00     0.214 C 
ATOM     33  O   LIG     1     149.321 153.737 150.890  0.00  0.00    -0.218 OA
ENDBRANCH   7  32
BRANCH   4  34
ATOM     34  C   LIG     1     151.490 155.310 146.741  0.00  0.00     0.189 C 
ATOM     35  O   LIG     1     151.878 156.518 147.388  0.00  0.00    -0.220 OA
ENDBRANCH   4  34
TORSDOF 8
ENDMDL
MODEL 6
REMARK VINA RESULT:      -8.2      2.770      7.495
REMARK  8 active torsions:
REMARK  status: ('A' for Active; 'I' for Inactive)
REMARK    1  A    between atoms: C_2  and  O_3 
REMARK    2  A    between atoms: C_15  and  O_16 
REMARK    3  A    between atoms: C_28  and  C_29 
REMARK    4  A    between atoms: C_33  and  C_34 
REMARK    5  A    between atoms: O_3  and  C_4 
REMARK    6  A    between atoms: C_4  and  C_6 
REMARK    7  A    between atoms: O_16  and  C_17 
REMARK    8  A    between atoms: C_17  and  C_19 
ROOT
ATOM      1  O   LIG     1     152.950 154.995 149.902  0.00  0.00    -0.315 OA
ATOM      2  C   LIG     1     152.688 156.211 150.640  0.00  0.00     0.332 C 
ATOM      3  C   LIG     1     153.727 156.483 151.766  0.00  0.00     0.244 C 
ATOM      4  C   LIG     1     154.007 155.224 152.651  0.00  0.00     0.112 C 
ATOM      5  C   LIG     1     154.219 153.952 151.768  0.00  0.00     0.188 C 
ATOM      6  O   LIG     1     155.503 154.041 151.143  0.00  0.00    -0.220 OA
ATOM      7  C   LIG     1     153.150 153.772 150.645  0.00  0.00     0.182 C 
ENDROOT
BRANCH   2   8
ATOM      8  O   LIG     1     151.353 156.341 151.155  0.00  0.00    -0.418 OA
BRANCH   8   9
ATOM      9  C   LIG     1     150.435 157.302 150.829  0.00  0.00     0.343 C 
ATOM     10  O   LIG     1     150.754 158.510 150.945  0.00  0.00    -0.245 OA
BRANCH   9  11
ATOM     11  C   LIG     1     149.132 156.932 150.397  0.00  0.00     0.082 A 
ATOM     12  C   LIG     1     148.772 155.566 150.269  0.00  0.00     0.052 A 
ATOM     13  C   LIG     1     147.449 155.183 149.971  0.00  0.00     0.238 A 
ATOM     14  C   LIG     1     146.468 156.169 149.757  0.00  0.00     0.273 A 
ATOM     15  O   LIG     1     147.106 153.870 149.899  0.00  0.00    -0.283 OA
ATOM     16  O   LIG     1     145.193 155.786 149.496  0.00  0.00    -0.280 OA
ATOM     17  C   LIG     1     146.819 157.534 149.815  0.00  0.00     0.238 A 
ATOM     18  C   LIG     1     148.137 157.908 150.145  0.00  0.00     0.052 A 
ATOM     19  O   LIG     1     145.881 158.485 149.565  0.00  0.00    -0.283 OA
ENDBRANCH   9  11
ENDBRANCH   8   9
ENDBRANCH   2   8
BRANCH   3  20
ATOM     20  O   LIG     1     154.932 156.962 151.133  0.00  0.00    -0.442 OA
BRANCH  20  21
ATOM     21  C   LIG     1     155.270 158.256 150.848  0.00  0.00     0.341 C 
ATOM     22  O   LIG     1     155.583 158.947 151.844  0.00  0.00    -0.245 OA
BRANCH  21  23
ATOM     23  C   LIG     1     155.369 158.793 149.532  0.00  0.00     0.082 A 
ATOM     24  C   LIG     1     155.202 157.961 148.396  0.00  0.00     0.052 A 
ATOM     25  C   LIG     1     155.334 158.471 147.088  0.00  0.00     0.238 A 
ATOM     26  O   LIG     1     155.198 157.638 146.024  0.00  0.00    -0.283 OA
ATOM     27  C   LIG     1     155.618 159.839 146.892  0.00  0.00     0.273 A 
ATOM     28  O   LIG     1     155.747 160.368 145.645  0.00  0.00    -0.280 OA
ATOM     29  C   LIG     1     155.775 160.684 148.007  0.00  0.00     0.238 A 
ATOM     30  O   LIG     1     156.066 161.996 147.820  0.00  0.00    -0.283 OA
ATOM     31  C   LIG     1     155.635 160.166 149.311  0.00  0.00     0.052 A 
ENDBRANCH  21  23
ENDBRANCH  20  21
ENDBRANCH   3  20
BRANCH   7  32
ATOM     32  C   LIG     1     151.812 153.103 151.064  0.00  0.00     0.214 C 
ATOM     33  O   LIG     1     151.060 152.698 149.925  0.00  0.00    -0.218 OA
ENDBRANCH   7  32
BRANCH   4  34
ATOM     34  C   LIG     1     152.965 155.031 153.796  0.00  0.00     0.189 C 
ATOM     35  O   LIG     1     153.581 154.483 154.957  0.00  0.00    -0.220 OA
ENDBRANCH   4  34
TORSDOF 8
ENDMDL
MODEL 7
REMARK VINA RESULT:      -8.2      1.790      5.956
REMARK  8 active torsions:
REMARK  status: ('A' for Active; 'I' for Inactive)
REMARK    1  A    between atoms: C_2  and  O_3 
REMARK    2  A    between atoms: C_15  and  O_16 
REMARK    3  A    between atoms: C_28  and  C_29 
REMARK    4  A    between atoms: C_33  and  C_34 
REMARK    5  A    between atoms: O_3  and  C_4 
REMARK    6  A    between atoms: C_4  and  C_6 
REMARK    7  A    between atoms: O_16  and  C_17 
REMARK    8  A    between atoms: C_17  and  C_19 
ROOT
ATOM      1  O   LIG     1     152.975 154.237 151.783  0.00  0.00    -0.315 OA
ATOM      2  C   LIG     1     152.412 155.249 150.916  0.00  0.00     0.332 C 
ATOM      3  C   LIG     1     153.478 155.975 150.045  0.00  0.00     0.244 C 
ATOM      4  C   LIG     1     154.725 156.434 150.870  0.00  0.00     0.112 C 
ATOM      5  C   LIG     1     155.225 155.296 151.817  0.00  0.00     0.188 C 
ATOM      6  O   LIG     1     155.872 154.296 151.023  0.00  0.00    -0.220 OA
ATOM      7  C   LIG     1     154.088 154.601 152.630  0.00  0.00     0.182 C 
ENDROOT
BRANCH   2   8
ATOM      8  O   LIG     1     151.564 156.210 151.566  0.00  0.00    -0.418 OA
BRANCH   8   9
ATOM      9  C   LIG     1     150.688 157.072 150.966  0.00  0.00     0.343 C 
ATOM     10  O   LIG     1     150.993 158.286 150.881  0.00  0.00    -0.245 OA
BRANCH   9  11
ATOM     11  C   LIG     1     149.438 156.600 150.477  0.00  0.00     0.082 A 
ATOM     12  C   LIG     1     148.915 155.355 150.911  0.00  0.00     0.052 A 
ATOM     13  C   LIG     1     147.622 154.937 150.539  0.00  0.00     0.238 A 
ATOM     14  C   LIG     1     146.844 155.744 149.689  0.00  0.00     0.273 A 
ATOM     15  O   LIG     1     147.112 153.764 151.001  0.00  0.00    -0.283 OA
ATOM     16  O   LIG     1     145.591 155.340 149.359  0.00  0.00    -0.280 OA
ATOM     17  C   LIG     1     147.371 156.955 149.192  0.00  0.00     0.238 A 
ATOM     18  C   LIG     1     148.652 157.381 149.595  0.00  0.00     0.052 A 
ATOM     19  O   LIG     1     146.636 157.712 148.337  0.00  0.00    -0.283 OA
ENDBRANCH   9  11
ENDBRANCH   8   9
ENDBRANCH   2   8
BRANCH   3  20
ATOM     20  O   LIG     1     153.851 155.074 148.982  0.00  0.00    -0.442 OA
BRANCH  20  21
ATOM     21  C   LIG     1     153.052 154.179 148.326  0.00  0.00     0.341 C 
ATOM     22  O   LIG     1     153.467 152.998 148.341  0.00  0.00    -0.245 OA
BRANCH  21  23
ATOM     23  C   LIG     1     151.792 154.498 147.743  0.00  0.00     0.082 A 
ATOM     24  C   LIG     1     151.628 155.676 146.972  0.00  0.00     0.052 A 
ATOM     25  C   LIG     1     150.377 156.024 146.421  0.00  0.00     0.238 A 
ATOM     26  O   LIG     1     150.250 157.176 145.714  0.00  0.00    -0.283 OA
ATOM     27  C   LIG     1     149.264 155.180 146.616  0.00  0.00     0.273 A 
ATOM     28  O   LIG     1     148.043 155.479 146.095  0.00  0.00    -0.280 OA
ATOM     29  C   LIG     1     149.409 153.999 147.368  0.00  0.00     0.238 A 
ATOM     30  O   LIG     1     148.335 153.195 147.572  0.00  0.00    -0.283 OA
ATOM     31  C   LIG     1     150.665 153.656 147.910  0.00  0.00     0.052 A 
ENDBRANCH  21  23
ENDBRANCH  20  21
ENDBRANCH   3  20
BRANCH   7  32
ATOM     32  C   LIG     1     153.636 155.313 153.935  0.00  0.00     0.214 C 
ATOM     33  O   LIG     1     153.231 154.371 154.922  0.00  0.00    -0.218 OA
ENDBRANCH   7  32
BRANCH   4  34
ATOM     34  C   LIG     1     154.521 157.805 151.586  0.00  0.00     0.189 C 
ATOM     35  O   LIG     1     155.532 158.023 152.565  0.00  0.00    -0.220 OA
ENDBRANCH   4  34
TORSDOF 8
ENDMDL
MODEL 8
REMARK VINA RESULT:      -8.2      3.243      6.720
REMARK  8 active torsions:
REMARK  status: ('A' for Active; 'I' for Inactive)
REMARK    1  A    between atoms: C_2  and  O_3 
REMARK    2  A    between atoms: C_15  and  O_16 
REMARK    3  A    between atoms: C_28  and  C_29 
REMARK    4  A    between atoms: C_33  and  C_34 
REMARK    5  A    between atoms: O_3  and  C_4 
REMARK    6  A    between atoms: C_4  and  C_6 
REMARK    7  A    between atoms: O_16  and  C_17 
REMARK    8  A    between atoms: C_17  and  C_19 
ROOT
ATOM      1  O   LIG     1     153.137 154.628 149.940  0.00  0.00    -0.315 OA
ATOM      2  C   LIG     1     152.750 155.902 150.507  0.00  0.00     0.332 C 
ATOM      3  C   LIG     1     153.679 156.366 151.666  0.00  0.00     0.244 C 
ATOM      4  C   LIG     1     153.956 155.237 152.712  0.00  0.00     0.112 C 
ATOM      5  C   LIG     1     154.307 153.888 152.006  0.00  0.00     0.188 C 
ATOM      6  O   LIG     1     155.631 153.987 151.470  0.00  0.00    -0.220 OA
ATOM      7  C   LIG     1     153.344 153.513 150.836  0.00  0.00     0.182 C 
ENDROOT
BRANCH   2   8
ATOM      8  O   LIG     1     151.373 156.004 150.904  0.00  0.00    -0.418 OA
BRANCH   8   9
ATOM      9  C   LIG     1     150.539 157.071 150.712  0.00  0.00     0.343 C 
ATOM     10  O   LIG     1     149.301 156.872 150.661  0.00  0.00    -0.245 OA
BRANCH   9  11
ATOM     11  C   LIG     1     151.074 158.378 150.539  0.00  0.00     0.082 A 
ATOM     12  C   LIG     1     151.378 159.189 151.662  0.00  0.00     0.052 A 
ATOM     13  C   LIG     1     152.029 160.429 151.513  0.00  0.00     0.238 A 
ATOM     14  C   LIG     1     152.352 160.898 150.225  0.00  0.00     0.273 A 
ATOM     15  O   LIG     1     152.360 161.176 152.600  0.00  0.00    -0.283 OA
ATOM     16  O   LIG     1     153.002 162.083 150.098  0.00  0.00    -0.280 OA
ATOM     17  C   LIG     1     152.000 160.137 149.091  0.00  0.00     0.238 A 
ATOM     18  C   LIG     1     151.378 158.884 149.251  0.00  0.00     0.052 A 
ATOM     19  O   LIG     1     152.273 160.611 147.848  0.00  0.00    -0.283 OA
ENDBRANCH   9  11
ENDBRANCH   8   9
ENDBRANCH   2   8
BRANCH   3  20
ATOM     20  O   LIG     1     154.904 156.845 151.071  0.00  0.00    -0.442 OA
BRANCH  20  21
ATOM     21  C   LIG     1     155.259 158.141 150.818  0.00  0.00     0.341 C 
ATOM     22  O   LIG     1     155.554 158.811 151.834  0.00  0.00    -0.245 OA
BRANCH  21  23
ATOM     23  C   LIG     1     155.395 158.701 149.515  0.00  0.00     0.082 A 
ATOM     24  C   LIG     1     155.718 160.071 149.345  0.00  0.00     0.052 A 
ATOM     25  C   LIG     1     155.819 160.647 148.062  0.00  0.00     0.238 A 
ATOM     26  O   LIG     1     156.100 161.970 147.939  0.00  0.00    -0.283 OA
ATOM     27  C   LIG     1     155.618 159.850 146.916  0.00  0.00     0.273 A 
ATOM     28  O   LIG     1     155.713 160.369 145.662  0.00  0.00    -0.280 OA
ATOM     29  C   LIG     1     155.309 158.484 147.063  0.00  0.00     0.238 A 
ATOM     30  O   LIG     1     155.097 157.721 145.962  0.00  0.00    -0.283 OA
ATOM     31  C   LIG     1     155.216 157.916 148.351  0.00  0.00     0.052 A 
ENDBRANCH  21  23
ENDBRANCH  20  21
ENDBRANCH   3  20
BRANCH   7  32
ATOM     32  C   LIG     1     152.014 152.812 151.233  0.00  0.00     0.214 C 
ATOM     33  O   LIG     1     151.146 152.684 150.111  0.00  0.00    -0.218 OA
ENDBRANCH   7  32
BRANCH   4  34
ATOM     34  C   LIG     1     152.837 155.109 153.793  0.00  0.00     0.189 C 
ATOM     35  O   LIG     1     153.271 154.299 154.881  0.00  0.00    -0.220 OA
ENDBRANCH   4  34
TORSDOF 8
ENDMDL
MODEL 9
REMARK VINA RESULT:      -8.2      2.077      5.593
REMARK  8 active torsions:
REMARK  status: ('A' for Active; 'I' for Inactive)
REMARK    1  A    between atoms: C_2  and  O_3 
REMARK    2  A    between atoms: C_15  and  O_16 
REMARK    3  A    between atoms: C_28  and  C_29 
REMARK    4  A    between atoms: C_33  and  C_34 
REMARK    5  A    between atoms: O_3  and  C_4 
REMARK    6  A    between atoms: C_4  and  C_6 
REMARK    7  A    between atoms: O_16  and  C_17 
REMARK    8  A    between atoms: C_17  and  C_19 
ROOT
ATOM      1  O   LIG     1     153.689 155.880 150.968  0.00  0.00    -0.315 OA
ATOM      2  C   LIG     1     152.689 155.346 150.069  0.00  0.00     0.332 C 
ATOM      3  C   LIG     1     151.621 154.471 150.786  0.00  0.00     0.244 C 
ATOM      4  C   LIG     1     152.251 153.425 151.765  0.00  0.00     0.112 C 
ATOM      5  C   LIG     1     153.358 154.081 152.653  0.00  0.00     0.188 C 
ATOM      6  O   LIG     1     152.724 154.909 153.633  0.00  0.00    -0.220 OA
ATOM      7  C   LIG     1     154.368 154.966 151.858  0.00  0.00     0.182 C 
ENDROOT
BRANCH   2   8
ATOM      8  O   LIG     1     153.205 154.656 148.919  0.00  0.00    -0.418 OA
BRANCH   8   9
ATOM      9  C   LIG     1     152.727 154.721 147.639  0.00  0.00     0.343 C 
ATOM     10  O   LIG     1     153.375 155.368 146.780  0.00  0.00    -0.245 OA
BRANCH   9  11
ATOM     11  C   LIG     1     151.497 154.092 147.299  0.00  0.00     0.082 A 
ATOM     12  C   LIG     1     150.423 154.846 146.761  0.00  0.00     0.052 A 
ATOM     13  C   LIG     1     149.250 154.219 146.298  0.00  0.00     0.238 A 
ATOM     14  C   LIG     1     149.116 152.821 146.404  0.00  0.00     0.273 A 
ATOM     15  O   LIG     1     148.247 154.947 145.739  0.00  0.00    -0.283 OA
ATOM     16  O   LIG     1     147.991 152.228 145.930  0.00  0.00    -0.280 OA
ATOM     17  C   LIG     1     150.145 152.060 146.996  0.00  0.00     0.238 A 
ATOM     18  C   LIG     1     151.328 152.692 147.427  0.00  0.00     0.052 A 
ATOM     19  O   LIG     1     149.997 150.717 147.137  0.00  0.00    -0.283 OA
ENDBRANCH   9  11
ENDBRANCH   8   9
ENDBRANCH   2   8
BRANCH   3  20
ATOM     20  O   LIG     1     150.724 155.366 151.476  0.00  0.00    -0.442 OA
BRANCH  20  21
ATOM     21  C   LIG     1     149.991 156.390 150.943  0.00  0.00     0.341 C 
ATOM     22  O   LIG     1     150.572 157.498 150.928  0.00  0.00    -0.245 OA
BRANCH  21  23
ATOM     23  C   LIG     1     148.705 156.236 150.349  0.00  0.00     0.082 A 
ATOM     24  C   LIG     1     148.269 154.971 149.880  0.00  0.00     0.052 A 
ATOM     25  C   LIG     1     147.014 154.812 149.257  0.00  0.00     0.238 A 
ATOM     26  O   LIG     1     146.644 153.591 148.792  0.00  0.00    -0.283 OA
ATOM     27  C   LIG     1     146.157 155.922 149.110  0.00  0.00     0.273 A 
ATOM     28  O   LIG     1     144.937 155.806 148.519  0.00  0.00    -0.280 OA
ATOM     29  C   LIG     1     146.566 157.185 149.580  0.00  0.00     0.238 A 
ATOM     30  O   LIG     1     145.749 158.257 149.422  0.00  0.00    -0.283 OA
ATOM     31  C   LIG     1     147.820 157.332 150.207  0.00  0.00     0.052 A 
ENDBRANCH  21  23
ENDBRANCH  20  21
ENDBRANCH   3  20
BRANCH   7  32
ATOM     32  C   LIG     1     155.544 154.222 151.165  0.00  0.00     0.214 C 
ATOM     33  O   LIG     1     156.205 155.065 150.227  0.00  0.00    -0.218 OA
ENDBRANCH   7  32
BRANCH   4  34
ATOM     34  C   LIG     1     152.707 152.113 151.056  0.00  0.00     0.189 C 
ATOM     35  O   LIG     1     153.550 151.342 151.907  0.00  0.00    -0.220 OA
ENDBRANCH   4  34
TORSDOF 8
ENDMDL
MODEL 10
REMARK VINA RESULT:      -8.2      1.553      6.746
REMARK  8 active torsions:
REMARK  status: ('A' for Active; 'I' for Inactive)
REMARK    1  A    between atoms: C_2  and  O_3 
REMARK    2  A    between atoms: C_15  and  O_16 
REMARK    3  A    between atoms: C_28  and  C_29 
REMARK    4  A    between atoms: C_33  and  C_34 
REMARK    5  A    between atoms: O_3  and  C_4 
REMARK    6  A    between atoms: C_4  and  C_6 
REMARK    7  A    between atoms: O_16  and  C_17 
REMARK    8  A    between atoms: C_17  and  C_19 
ROOT
ATOM      1  O   LIG     1     152.913 154.548 151.620  0.00  0.00    -0.315 OA
ATOM      2  C   LIG     1     152.409 155.647 150.826  0.00  0.00     0.332 C 
ATOM      3  C   LIG     1     153.534 156.487 150.156  0.00  0.00     0.244 C 
ATOM      4  C   LIG     1     154.683 156.865 151.148  0.00  0.00     0.112 C 
ATOM      5  C   LIG     1     155.119 155.629 152.001  0.00  0.00     0.188 C 
ATOM      6  O   LIG     1     155.867 154.740 151.164  0.00  0.00    -0.220 OA
ATOM      7  C   LIG     1     153.928 154.826 152.610  0.00  0.00     0.182 C 
ENDROOT
BRANCH   2   8
ATOM      8  O   LIG     1     151.477 156.511 151.496  0.00  0.00    -0.418 OA
BRANCH   8   9
ATOM      9  C   LIG     1     150.611 157.396 150.914  0.00  0.00     0.343 C 
ATOM     10  O   LIG     1     150.963 158.594 150.784  0.00  0.00    -0.245 OA
BRANCH   9  11
ATOM     11  C   LIG     1     149.321 156.967 150.495  0.00  0.00     0.082 A 
ATOM     12  C   LIG     1     148.963 155.595 150.544  0.00  0.00     0.052 A 
ATOM     13  C   LIG     1     147.650 155.172 150.259  0.00  0.00     0.238 A 
ATOM     14  C   LIG     1     146.679 156.117 149.878  0.00  0.00     0.273 A 
ATOM     15  O   LIG     1     147.306 153.860 150.357  0.00  0.00    -0.283 OA
ATOM     16  O   LIG     1     145.412 155.698 149.631  0.00  0.00    -0.280 OA
ATOM     17  C   LIG     1     147.030 157.478 149.759  0.00  0.00     0.238 A 
ATOM     18  C   LIG     1     148.337 157.896 150.077  0.00  0.00     0.052 A 
ATOM     19  O   LIG     1     146.103 158.382 149.349  0.00  0.00    -0.283 OA
ENDBRANCH   9  11
ENDBRANCH   8   9
ENDBRANCH   2   8
BRANCH   3  20
ATOM     20  O   LIG     1     154.032 155.725 149.037  0.00  0.00    -0.442 OA
BRANCH  20  21
ATOM     21  C   LIG     1     153.358 155.368 147.902  0.00  0.00     0.341 C 
ATOM     22  O   LIG     1     153.550 156.121 146.920  0.00  0.00    -0.245 OA
BRANCH  21  23
ATOM     23  C   LIG     1     152.570 154.189 147.769  0.00  0.00     0.082 A 
ATOM     24  C   LIG     1     153.183 152.916 147.653  0.00  0.00     0.052 A 
ATOM     25  C   LIG     1     152.417 151.745 147.484  0.00  0.00     0.238 A 
ATOM     26  O   LIG     1     153.041 150.547 147.345  0.00  0.00    -0.283 OA
ATOM     27  C   LIG     1     151.009 151.825 147.450  0.00  0.00     0.273 A 
ATOM     28  O   LIG     1     150.236 150.716 147.294  0.00  0.00    -0.280 OA
ATOM     29  C   LIG     1     150.380 153.078 147.576  0.00  0.00     0.238 A 
ATOM     30  O   LIG     1     149.026 153.159 147.524  0.00  0.00    -0.283 OA
ATOM     31  C   LIG     1     151.155 154.243 147.750  0.00  0.00     0.052 A 
ENDBRANCH  21  23
ENDBRANCH  20  21
ENDBRANCH   3  20
BRANCH   7  32
ATOM     32  C   LIG     1     153.333 155.372 153.938  0.00  0.00     0.214 C 
ATOM     33  O   LIG     1     153.299 154.361 154.941  0.00  0.00    -0.218 OA
ENDBRANCH   7  32
BRANCH   4  34
ATOM     34  C   LIG     1     154.374 158.137 151.995  0.00  0.00     0.189 C 
ATOM     35  O   LIG     1     155.560 158.649 152.597  0.00  0.00    -0.220 OA
ENDBRANCH   4  34
TORSDOF 8
ENDMDL
