MODEL 1
REMARK VINA RESULT:      -9.7      0.000      0.000
REMARK  13 active torsions:
REMARK  status: ('A' for Active; 'I' for Inactive)
REMARK    1  A    between atoms: C_2  and  O_3 
REMARK    2  A    between atoms: C_15  and  O_16 
REMARK    3  A    between atoms: C_28  and  O_29 
REMARK    4  A    between atoms: C_41  and  O_42 
REMARK    5  A    between atoms: C_54  and  C_55 
REMARK    6  A    between atoms: O_3  and  C_4 
REMARK    7  A    between atoms: C_4  and  C_6 
REMARK    8  A    between atoms: O_16  and  C_17 
REMARK    9  A    between atoms: C_17  and  C_19 
REMARK   10  A    between atoms: O_29  and  C_30 
REMARK   11  A    between atoms: C_30  and  C_32 
REMARK   12  A    between atoms: O_42  and  C_43 
REMARK   13  A    between atoms: C_43  and  C_45 
ROOT
ATOM      1  O   LIG     1     152.593 161.113 151.519  0.00  0.00    -0.314 OA
ATOM      2  C   LIG     1     152.610 159.693 151.260  0.00  0.00     0.335 C 
ATOM      3  C   LIG     1     151.199 159.067 151.448  0.00  0.00     0.282 C 
ATOM      4  C   LIG     1     150.153 159.855 150.602  0.00  0.00     0.257 C 
ATOM      5  C   LIG     1     150.236 161.384 150.884  0.00  0.00     0.242 C 
ATOM      6  C   LIG     1     151.699 161.887 150.698  0.00  0.00     0.195 C 
ENDROOT
BRANCH   2   7
ATOM      7  O   LIG     1     153.526 159.153 152.221  0.00  0.00    -0.417 OA
BRANCH   7   8
ATOM      8  C   LIG     1     154.575 158.362 151.857  0.00  0.00     0.343 C 
ATOM      9  O   LIG     1     155.632 158.938 151.505  0.00  0.00    -0.245 OA
BRANCH   8  10
ATOM     10  C   LIG     1     154.476 156.945 151.943  0.00  0.00     0.082 A 
ATOM     11  C   LIG     1     153.940 156.321 153.097  0.00  0.00     0.052 A 
ATOM     12  C   LIG     1     153.737 154.928 153.144  0.00  0.00     0.238 A 
ATOM     13  C   LIG     1     154.068 154.133 152.028  0.00  0.00     0.273 A 
ATOM     14  O   LIG     1     153.213 154.355 154.255  0.00  0.00    -0.283 OA
ATOM     15  C   LIG     1     154.629 154.731 150.885  0.00  0.00     0.238 A 
ATOM     16  O   LIG     1     153.849 152.793 152.032  0.00  0.00    -0.280 OA
ATOM     17  C   LIG     1     154.846 156.122 150.850  0.00  0.00     0.052 A 
ATOM     18  O   LIG     1     154.946 153.962 149.812  0.00  0.00    -0.283 OA
ENDBRANCH   8  10
ENDBRANCH   7   8
ENDBRANCH   2   7
BRANCH   3  19
ATOM     19  O   LIG     1     151.164 157.688 151.039  0.00  0.00    -0.439 OA
BRANCH  19  20
ATOM     20  C   LIG     1     151.508 157.203 149.812  0.00  0.00     0.342 C 
ATOM     21  O   LIG     1     151.863 158.064 148.972  0.00  0.00    -0.245 OA
BRANCH  20  22
ATOM     22  C   LIG     1     151.397 155.829 149.463  0.00  0.00     0.082 A 
ATOM     23  C   LIG     1     151.025 154.859 150.426  0.00  0.00     0.052 A 
ATOM     24  C   LIG     1     150.916 153.497 150.087  0.00  0.00     0.238 A 
ATOM     25  O   LIG     1     150.555 152.612 151.051  0.00  0.00    -0.283 OA
ATOM     26  C   LIG     1     151.183 153.075 148.769  0.00  0.00     0.273 A 
ATOM     27  O   LIG     1     151.077 151.756 148.455  0.00  0.00    -0.280 OA
ATOM     28  C   LIG     1     151.557 154.024 147.797  0.00  0.00     0.238 A 
ATOM     29  C   LIG     1     151.658 155.386 148.145  0.00  0.00     0.052 A 
ATOM     30  O   LIG     1     151.822 153.620 146.529  0.00  0.00    -0.283 OA
ENDBRANCH  20  22
ENDBRANCH  19  20
ENDBRANCH   3  19
BRANCH   4  31
ATOM     31  O   LIG     1     148.810 159.412 150.884  0.00  0.00    -0.441 OA
BRANCH  31  32
ATOM     32  C   LIG     1     147.889 158.935 149.990  0.00  0.00     0.342 C 
ATOM     33  O   LIG     1     147.075 159.775 149.544  0.00  0.00    -0.245 OA
BRANCH  32  34
ATOM     34  C   LIG     1     147.893 157.605 149.480  0.00  0.00     0.082 A 
ATOM     35  C   LIG     1     147.609 156.498 150.317  0.00  0.00     0.052 A 
ATOM     36  C   LIG     1     147.594 155.185 149.804  0.00  0.00     0.238 A 
ATOM     37  C   LIG     1     147.858 154.960 148.440  0.00  0.00     0.273 A 
ATOM     38  O   LIG     1     147.326 154.132 150.618  0.00  0.00    -0.283 OA
ATOM     39  O   LIG     1     147.831 153.693 147.954  0.00  0.00    -0.280 OA
ATOM     40  C   LIG     1     148.151 156.049 147.595  0.00  0.00     0.238 A 
ATOM     41  O   LIG     1     148.427 155.830 146.286  0.00  0.00    -0.283 OA
ATOM     42  C   LIG     1     148.156 157.358 148.113  0.00  0.00     0.052 A 
ENDBRANCH  32  34
ENDBRANCH  31  32
ENDBRANCH   4  31
BRANCH   6  43
ATOM     43  C   LIG     1     151.878 163.374 151.095  0.00  0.00     0.215 C 
ATOM     44  O   LIG     1     151.838 163.523 152.511  0.00  0.00    -0.218 OA
ENDBRANCH   6  43
BRANCH   5  45
ATOM     45  O   LIG     1     149.386 162.104 149.967  0.00  0.00    -0.443 OA
BRANCH  45  46
ATOM     46  C   LIG     1     149.624 162.443 148.663  0.00  0.00     0.341 C 
ATOM     47  O   LIG     1     149.657 163.673 148.428  0.00  0.00    -0.245 OA
BRANCH  46  48
ATOM     48  C   LIG     1     149.731 161.522 147.590  0.00  0.00     0.082 A 
ATOM     49  C   LIG     1     151.060 161.040 147.239  0.00  0.00     0.052 A 
ATOM     50  C   LIG     1     151.181 160.149 146.150  0.00  0.00     0.238 A 
ATOM     51  O   LIG     1     152.408 159.698 145.789  0.00  0.00    -0.283 OA
ATOM     52  C   LIG     1     150.059 159.705 145.412  0.00  0.00     0.273 A 
ATOM     53  O   LIG     1     150.239 158.836 144.380  0.00  0.00    -0.280 OA
ATOM     54  C   LIG     1     148.747 160.203 145.792  0.00  0.00     0.238 A 
ATOM     55  O   LIG     1     147.720 159.694 144.995  0.00  0.00    -0.283 OA
ATOM     56  C   LIG     1     148.512 161.148 146.897  0.00  0.00     0.052 A 
ENDBRANCH  46  48
ENDBRANCH  45  46
ENDBRANCH   5  45
TORSDOF 13
ENDMDL
MODEL 2
REMARK VINA RESULT:      -9.6      4.280      7.750
REMARK  13 active torsions:
REMARK  status: ('A' for Active; 'I' for Inactive)
REMARK    1  A    between atoms: C_2  and  O_3 
REMARK    2  A    between atoms: C_15  and  O_16 
REMARK    3  A    between atoms: C_28  and  O_29 
REMARK    4  A    between atoms: C_41  and  O_42 
REMARK    5  A    between atoms: C_54  and  C_55 
REMARK    6  A    between atoms: O_3  and  C_4 
REMARK    7  A    between atoms: C_4  and  C_6 
REMARK    8  A    between atoms: O_16  and  C_17 
REMARK    9  A    between atoms: C_17  and  C_19 
REMARK   10  A    between atoms: O_29  and  C_30 
REMARK   11  A    between atoms: C_30  and  C_32 
REMARK   12  A    between atoms: O_42  and  C_43 
REMARK   13  A    between atoms: C_43  and  C_45 
ROOT
ATOM      1  O   LIG     1     153.332 153.358 147.970  0.00  0.00    -0.314 OA
ATOM      2  C   LIG     1     152.610 152.703 146.904  0.00  0.00     0.335 C 
ATOM      3  C   LIG     1     151.113 152.506 147.274  0.00  0.00     0.282 C 
ATOM      4  C   LIG     1     150.493 153.865 147.720  0.00  0.00     0.257 C 
ATOM      5  C   LIG     1     151.357 154.545 148.822  0.00  0.00     0.242 C 
ATOM      6  C   LIG     1     152.839 154.656 148.352  0.00  0.00     0.195 C 
ENDROOT
BRANCH   2   7
ATOM      7  O   LIG     1     153.255 151.434 146.747  0.00  0.00    -0.417 OA
BRANCH   7   8
ATOM      8  C   LIG     1     153.840 151.058 145.573  0.00  0.00     0.343 C 
ATOM      9  O   LIG     1     154.592 151.893 145.016  0.00  0.00    -0.245 OA
BRANCH   8  10
ATOM     10  C   LIG     1     153.645 149.748 145.055  0.00  0.00     0.082 A 
ATOM     11  C   LIG     1     154.151 149.385 143.782  0.00  0.00     0.052 A 
ATOM     12  C   LIG     1     154.057 148.061 143.311  0.00  0.00     0.238 A 
ATOM     13  C   LIG     1     153.452 147.072 144.113  0.00  0.00     0.273 A 
ATOM     14  O   LIG     1     154.559 147.736 142.095  0.00  0.00    -0.283 OA
ATOM     15  C   LIG     1     152.917 147.420 145.367  0.00  0.00     0.238 A 
ATOM     16  O   LIG     1     153.382 145.781 143.701  0.00  0.00    -0.280 OA
ATOM     17  C   LIG     1     152.999 148.749 145.825  0.00  0.00     0.052 A 
ATOM     18  O   LIG     1     152.336 146.465 146.137  0.00  0.00    -0.283 OA
ENDBRANCH   8  10
ENDBRANCH   7   8
ENDBRANCH   2   7
BRANCH   3  19
ATOM     19  O   LIG     1     150.347 152.002 146.165  0.00  0.00    -0.439 OA
BRANCH  19  20
ATOM     20  C   LIG     1     149.790 150.761 146.069  0.00  0.00     0.342 C 
ATOM     21  O   LIG     1     149.816 150.075 147.118  0.00  0.00    -0.245 OA
BRANCH  20  22
ATOM     22  C   LIG     1     149.286 150.230 144.849  0.00  0.00     0.082 A 
ATOM     23  C   LIG     1     150.154 149.645 143.895  0.00  0.00     0.052 A 
ATOM     24  C   LIG     1     149.660 149.120 142.685  0.00  0.00     0.238 A 
ATOM     25  O   LIG     1     150.538 148.570 141.807  0.00  0.00    -0.283 OA
ATOM     26  C   LIG     1     148.281 149.175 142.403  0.00  0.00     0.273 A 
ATOM     27  O   LIG     1     147.817 148.667 141.230  0.00  0.00    -0.280 OA
ATOM     28  C   LIG     1     147.401 149.755 143.339  0.00  0.00     0.238 A 
ATOM     29  C   LIG     1     147.904 150.273 144.550  0.00  0.00     0.052 A 
ATOM     30  O   LIG     1     146.073 149.816 143.068  0.00  0.00    -0.283 OA
ENDBRANCH  20  22
ENDBRANCH  19  20
ENDBRANCH   3  19
BRANCH   4  31
ATOM     31  O   LIG     1     149.157 153.690 148.232  0.00  0.00    -0.441 OA
BRANCH  31  32
ATOM     32  C   LIG     1     147.986 154.100 147.653  0.00  0.00     0.342 C 
ATOM     33  O   LIG     1     147.520 153.344 146.770  0.00  0.00    -0.245 OA
BRANCH  32  34
ATOM     34  C   LIG     1     147.248 155.242 148.077  0.00  0.00     0.082 A 
ATOM     35  C   LIG     1     145.966 155.110 148.664  0.00  0.00     0.052 A 
ATOM     36  C   LIG     1     145.247 156.242 149.101  0.00  0.00     0.238 A 
ATOM     37  C   LIG     1     145.806 157.526 148.961  0.00  0.00     0.273 A 
ATOM     38  O   LIG     1     144.017 156.103 149.657  0.00  0.00    -0.283 OA
ATOM     39  O   LIG     1     145.111 158.608 149.394  0.00  0.00    -0.280 OA
ATOM     40  C   LIG     1     147.077 157.676 148.371  0.00  0.00     0.238 A 
ATOM     41  O   LIG     1     147.606 158.915 148.217  0.00  0.00    -0.283 OA
ATOM     42  C   LIG     1     147.792 156.541 147.945  0.00  0.00     0.052 A 
ENDBRANCH  32  34
ENDBRANCH  31  32
ENDBRANCH   4  31
BRANCH   6  43
ATOM     43  C   LIG     1     153.781 155.200 149.456  0.00  0.00     0.215 C 
ATOM     44  O   LIG     1     153.552 154.523 150.688  0.00  0.00    -0.218 OA
ENDBRANCH   6  43
BRANCH   5  45
ATOM     45  O   LIG     1     150.863 155.873 149.090  0.00  0.00    -0.443 OA
BRANCH  45  46
ATOM     46  C   LIG     1     150.463 156.416 150.281  0.00  0.00     0.341 C 
ATOM     47  O   LIG     1     149.616 155.746 150.916  0.00  0.00    -0.245 OA
BRANCH  46  48
ATOM     48  C   LIG     1     150.860 157.686 150.770  0.00  0.00     0.082 A 
ATOM     49  C   LIG     1     152.241 157.846 151.203  0.00  0.00     0.052 A 
ATOM     50  C   LIG     1     152.637 159.098 151.723  0.00  0.00     0.238 A 
ATOM     51  O   LIG     1     153.912 159.270 152.152  0.00  0.00    -0.283 OA
ATOM     52  C   LIG     1     151.745 160.191 151.817  0.00  0.00     0.273 A 
ATOM     53  O   LIG     1     152.189 161.377 152.316  0.00  0.00    -0.280 OA
ATOM     54  C   LIG     1     150.374 159.998 151.372  0.00  0.00     0.238 A 
ATOM     55  O   LIG     1     149.590 161.145 151.510  0.00  0.00    -0.283 OA
ATOM     56  C   LIG     1     149.854 158.730 150.833  0.00  0.00     0.052 A 
ENDBRANCH  46  48
ENDBRANCH  45  46
ENDBRANCH   5  45
TORSDOF 13
ENDMDL
MODEL 3
REMARK VINA RESULT:      -9.5      3.894      8.829
REMARK  13 active torsions:
REMARK  status: ('A' for Active; 'I' for Inactive)
REMARK    1  A    between atoms: C_2  and  O_3 
REMARK    2  A    between atoms: C_15  and  O_16 
REMARK    3  A    between atoms: C_28  and  O_29 
REMARK    4  A    between atoms: C_41  and  O_42 
REMARK    5  A    between atoms: C_54  and  C_55 
REMARK    6  A    between atoms: O_3  and  C_4 
REMARK    7  A    between atoms: C_4  and  C_6 
REMARK    8  A    between atoms: O_16  and  C_17 
REMARK    9  A    between atoms: C_17  and  C_19 
REMARK   10  A    between atoms: O_29  and  C_30 
REMARK   11  A    between atoms: C_30  and  C_32 
REMARK   12  A    between atoms: O_42  and  C_43 
REMARK   13  A    between atoms: C_43  and  C_45 
ROOT
ATOM      1  O   LIG     1     148.728 154.953 148.477  0.00  0.00    -0.314 OA
ATOM      2  C   LIG     1     150.017 155.530 148.780  0.00  0.00     0.335 C 
ATOM      3  C   LIG     1     151.099 154.429 148.966  0.00  0.00     0.282 C 
ATOM      4  C   LIG     1     151.103 153.475 147.734  0.00  0.00     0.257 C 
ATOM      5  C   LIG     1     149.672 152.944 147.426  0.00  0.00     0.242 C 
ATOM      6  C   LIG     1     148.674 154.133 147.295  0.00  0.00     0.195 C 
ENDROOT
BRANCH   2   7
ATOM      7  O   LIG     1     149.822 156.249 150.004  0.00  0.00    -0.417 OA
BRANCH   7   8
ATOM      8  C   LIG     1     149.495 157.573 150.023  0.00  0.00     0.343 C 
ATOM      9  O   LIG     1     148.276 157.861 150.087  0.00  0.00    -0.245 OA
BRANCH   8  10
ATOM     10  C   LIG     1     150.511 158.568 150.035  0.00  0.00     0.082 A 
ATOM     11  C   LIG     1     150.927 159.200 148.837  0.00  0.00     0.052 A 
ATOM     12  C   LIG     1     151.852 160.262 148.856  0.00  0.00     0.238 A 
ATOM     13  C   LIG     1     152.379 160.711 150.084  0.00  0.00     0.273 A 
ATOM     14  O   LIG     1     152.226 160.858 147.697  0.00  0.00    -0.283 OA
ATOM     15  C   LIG     1     152.001 160.077 151.281  0.00  0.00     0.238 A 
ATOM     16  O   LIG     1     153.243 161.757 150.136  0.00  0.00    -0.280 OA
ATOM     17  C   LIG     1     151.088 159.004 151.254  0.00  0.00     0.052 A 
ATOM     18  O   LIG     1     152.509 160.513 152.461  0.00  0.00    -0.283 OA
ENDBRANCH   8  10
ENDBRANCH   7   8
ENDBRANCH   2   7
BRANCH   3  19
ATOM     19  O   LIG     1     152.417 154.989 149.109  0.00  0.00    -0.439 OA
BRANCH  19  20
ATOM     20  C   LIG     1     152.977 155.442 150.267  0.00  0.00     0.342 C 
ATOM     21  O   LIG     1     152.648 154.822 151.306  0.00  0.00    -0.245 OA
BRANCH  20  22
ATOM     22  C   LIG     1     153.814 156.592 150.325  0.00  0.00     0.082 A 
ATOM     23  C   LIG     1     154.192 157.278 149.145  0.00  0.00     0.052 A 
ATOM     24  C   LIG     1     155.021 158.415 149.196  0.00  0.00     0.238 A 
ATOM     25  O   LIG     1     155.351 159.034 148.033  0.00  0.00    -0.283 OA
ATOM     26  C   LIG     1     155.495 158.887 150.436  0.00  0.00     0.273 A 
ATOM     27  O   LIG     1     156.298 159.985 150.471  0.00  0.00    -0.280 OA
ATOM     28  C   LIG     1     155.132 158.217 151.621  0.00  0.00     0.238 A 
ATOM     29  C   LIG     1     154.296 157.083 151.560  0.00  0.00     0.052 A 
ATOM     30  O   LIG     1     155.592 158.665 152.816  0.00  0.00    -0.283 OA
ENDBRANCH  20  22
ENDBRANCH  19  20
ENDBRANCH   3  19
BRANCH   4  31
ATOM     31  O   LIG     1     151.973 152.345 147.948  0.00  0.00    -0.441 OA
BRANCH  31  32
ATOM     32  C   LIG     1     153.150 152.070 147.303  0.00  0.00     0.342 C 
ATOM     33  O   LIG     1     154.178 152.580 147.804  0.00  0.00    -0.245 OA
BRANCH  32  34
ATOM     34  C   LIG     1     153.261 151.172 146.204  0.00  0.00     0.082 A 
ATOM     35  C   LIG     1     153.400 151.650 144.878  0.00  0.00     0.052 A 
ATOM     36  C   LIG     1     153.530 150.757 143.794  0.00  0.00     0.238 A 
ATOM     37  C   LIG     1     153.530 149.369 144.023  0.00  0.00     0.273 A 
ATOM     38  O   LIG     1     153.657 151.228 142.527  0.00  0.00    -0.283 OA
ATOM     39  O   LIG     1     153.667 148.518 142.975  0.00  0.00    -0.280 OA
ATOM     40  C   LIG     1     153.385 148.876 145.336  0.00  0.00     0.238 A 
ATOM     41  O   LIG     1     153.363 147.537 145.554  0.00  0.00    -0.283 OA
ATOM     42  C   LIG     1     153.263 149.773 146.413  0.00  0.00     0.052 A 
ENDBRANCH  32  34
ENDBRANCH  31  32
ENDBRANCH   4  31
BRANCH   6  43
ATOM     43  C   LIG     1     147.205 153.668 147.124  0.00  0.00     0.215 C 
ATOM     44  O   LIG     1     146.582 153.497 148.394  0.00  0.00    -0.218 OA
ENDBRANCH   6  43
BRANCH   5  45
ATOM     45  O   LIG     1     149.673 152.209 146.185  0.00  0.00    -0.443 OA
BRANCH  45  46
ATOM     46  C   LIG     1     149.492 150.868 145.981  0.00  0.00     0.341 C 
ATOM     47  O   LIG     1     149.821 150.133 146.941  0.00  0.00    -0.245 OA
BRANCH  46  48
ATOM     48  C   LIG     1     149.065 150.281 144.763  0.00  0.00     0.082 A 
ATOM     49  C   LIG     1     147.656 150.393 144.412  0.00  0.00     0.052 A 
ATOM     50  C   LIG     1     147.215 149.782 143.218  0.00  0.00     0.238 A 
ATOM     51  O   LIG     1     145.904 149.853 142.876  0.00  0.00    -0.283 OA
ATOM     52  C   LIG     1     148.096 149.089 142.356  0.00  0.00     0.273 A 
ATOM     53  O   LIG     1     147.613 148.532 141.212  0.00  0.00    -0.280 OA
ATOM     54  C   LIG     1     149.497 149.000 142.735  0.00  0.00     0.238 A 
ATOM     55  O   LIG     1     150.268 148.297 141.807  0.00  0.00    -0.283 OA
ATOM     56  C   LIG     1     150.057 149.584 143.966  0.00  0.00     0.052 A 
ENDBRANCH  46  48
ENDBRANCH  45  46
ENDBRANCH   5  45
TORSDOF 13
ENDMDL
MODEL 4
REMARK VINA RESULT:      -9.4      3.959      8.749
REMARK  13 active torsions:
REMARK  status: ('A' for Active; 'I' for Inactive)
REMARK    1  A    between atoms: C_2  and  O_3 
REMARK    2  A    between atoms: C_15  and  O_16 
REMARK    3  A    between atoms: C_28  and  O_29 
REMARK    4  A    between atoms: C_41  and  O_42 
REMARK    5  A    between atoms: C_54  and  C_55 
REMARK    6  A    between atoms: O_3  and  C_4 
REMARK    7  A    between atoms: C_4  and  C_6 
REMARK    8  A    between atoms: O_16  and  C_17 
REMARK    9  A    between atoms: C_17  and  C_19 
REMARK   10  A    between atoms: O_29  and  C_30 
REMARK   11  A    between atoms: C_30  and  C_32 
REMARK   12  A    between atoms: O_42  and  C_43 
REMARK   13  A    between atoms: C_43  and  C_45 
ROOT
ATOM      1  O   LIG     1     148.795 154.849 148.409  0.00  0.00    -0.314 OA
ATOM      2  C   LIG     1     150.086 155.432 148.687  0.00  0.00     0.335 C 
ATOM      3  C   LIG     1     151.176 154.336 148.860  0.00  0.00     0.282 C 
ATOM      4  C   LIG     1     151.162 153.376 147.632  0.00  0.00     0.257 C 
ATOM      5  C   LIG     1     149.729 152.838 147.351  0.00  0.00     0.242 C 
ATOM      6  C   LIG     1     148.723 154.022 147.232  0.00  0.00     0.195 C 
ENDROOT
BRANCH   2   7
ATOM      7  O   LIG     1     149.909 156.156 149.910  0.00  0.00    -0.417 OA
BRANCH   7   8
ATOM      8  C   LIG     1     149.607 157.486 149.928  0.00  0.00     0.343 C 
ATOM      9  O   LIG     1     148.393 157.796 149.972  0.00  0.00    -0.245 OA
BRANCH   8  10
ATOM     10  C   LIG     1     150.641 158.462 149.962  0.00  0.00     0.082 A 
ATOM     11  C   LIG     1     151.209 158.963 148.765  0.00  0.00     0.052 A 
ATOM     12  C   LIG     1     152.154 160.007 148.788  0.00  0.00     0.238 A 
ATOM     13  C   LIG     1     152.547 160.571 150.018  0.00  0.00     0.273 A 
ATOM     14  O   LIG     1     152.675 160.478 147.628  0.00  0.00    -0.283 OA
ATOM     15  C   LIG     1     152.017 160.066 151.219  0.00  0.00     0.238 A 
ATOM     16  O   LIG     1     153.427 161.603 150.069  0.00  0.00    -0.280 OA
ATOM     17  C   LIG     1     151.085 159.010 151.191  0.00  0.00     0.052 A 
ATOM     18  O   LIG     1     152.397 160.611 152.403  0.00  0.00    -0.283 OA
ENDBRANCH   8  10
ENDBRANCH   7   8
ENDBRANCH   2   7
BRANCH   3  19
ATOM     19  O   LIG     1     152.494 154.902 148.977  0.00  0.00    -0.439 OA
BRANCH  19  20
ATOM     20  C   LIG     1     153.106 155.282 150.136  0.00  0.00     0.342 C 
ATOM     21  O   LIG     1     152.835 154.586 151.142  0.00  0.00    -0.245 OA
BRANCH  20  22
ATOM     22  C   LIG     1     153.931 156.436 150.232  0.00  0.00     0.082 A 
ATOM     23  C   LIG     1     154.243 157.006 151.491  0.00  0.00     0.052 A 
ATOM     24  C   LIG     1     155.058 158.151 151.592  0.00  0.00     0.238 A 
ATOM     25  O   LIG     1     155.324 158.654 152.825  0.00  0.00    -0.283 OA
ATOM     26  C   LIG     1     155.577 158.752 150.429  0.00  0.00     0.273 A 
ATOM     27  O   LIG     1     156.361 159.858 150.539  0.00  0.00    -0.280 OA
ATOM     28  C   LIG     1     155.277 158.201 149.167  0.00  0.00     0.238 A 
ATOM     29  C   LIG     1     154.465 157.052 149.076  0.00  0.00     0.052 A 
ATOM     30  O   LIG     1     155.769 158.781 148.043  0.00  0.00    -0.283 OA
ENDBRANCH  20  22
ENDBRANCH  19  20
ENDBRANCH   3  19
BRANCH   4  31
ATOM     31  O   LIG     1     152.040 152.251 147.836  0.00  0.00    -0.441 OA
BRANCH  31  32
ATOM     32  C   LIG     1     153.203 151.973 147.169  0.00  0.00     0.342 C 
ATOM     33  O   LIG     1     154.242 152.482 147.649  0.00  0.00    -0.245 OA
BRANCH  32  34
ATOM     34  C   LIG     1     153.292 151.076 146.067  0.00  0.00     0.082 A 
ATOM     35  C   LIG     1     153.384 151.553 144.737  0.00  0.00     0.052 A 
ATOM     36  C   LIG     1     153.492 150.661 143.651  0.00  0.00     0.238 A 
ATOM     37  C   LIG     1     153.514 149.273 143.880  0.00  0.00     0.273 A 
ATOM     38  O   LIG     1     153.574 151.132 142.380  0.00  0.00    -0.283 OA
ATOM     39  O   LIG     1     153.629 148.423 142.829  0.00  0.00    -0.280 OA
ATOM     40  C   LIG     1     153.414 148.780 145.197  0.00  0.00     0.238 A 
ATOM     41  O   LIG     1     153.414 147.442 145.417  0.00  0.00    -0.283 OA
ATOM     42  C   LIG     1     153.315 149.677 146.277  0.00  0.00     0.052 A 
ENDBRANCH  32  34
ENDBRANCH  31  32
ENDBRANCH   4  31
BRANCH   6  43
ATOM     43  C   LIG     1     147.254 153.551 147.088  0.00  0.00     0.215 C 
ATOM     44  O   LIG     1     146.622 153.485 148.363  0.00  0.00    -0.218 OA
ENDBRANCH   6  43
BRANCH   5  45
ATOM     45  O   LIG     1     149.711 152.097 146.114  0.00  0.00    -0.443 OA
BRANCH  45  46
ATOM     46  C   LIG     1     149.513 150.757 145.918  0.00  0.00     0.341 C 
ATOM     47  O   LIG     1     149.901 150.018 146.852  0.00  0.00    -0.245 OA
BRANCH  46  48
ATOM     48  C   LIG     1     149.007 150.175 144.729  0.00  0.00     0.082 A 
ATOM     49  C   LIG     1     149.941 149.453 143.875  0.00  0.00     0.052 A 
ATOM     50  C   LIG     1     149.453 148.900 142.671  0.00  0.00     0.238 A 
ATOM     51  O   LIG     1     150.304 148.238 141.847  0.00  0.00    -0.283 OA
ATOM     52  C   LIG     1     148.097 149.011 142.285  0.00  0.00     0.273 A 
ATOM     53  O   LIG     1     147.685 148.444 141.118  0.00  0.00    -0.280 OA
ATOM     54  C   LIG     1     147.191 149.734 143.163  0.00  0.00     0.238 A 
ATOM     55  O   LIG     1     145.881 149.774 142.680  0.00  0.00    -0.283 OA
ATOM     56  C   LIG     1     147.599 150.365 144.429  0.00  0.00     0.052 A 
ENDBRANCH  46  48
ENDBRANCH  45  46
ENDBRANCH   5  45
TORSDOF 13
ENDMDL
MODEL 5
REMARK VINA RESULT:      -9.4      3.729      8.127
REMARK  13 active torsions:
REMARK  status: ('A' for Active; 'I' for Inactive)
REMARK    1  A    between atoms: C_2  and  O_3 
REMARK    2  A    between atoms: C_15  and  O_16 
REMARK    3  A    between atoms: C_28  and  O_29 
REMARK    4  A    between atoms: C_41  and  O_42 
REMARK    5  A    between atoms: C_54  and  C_55 
REMARK    6  A    between atoms: O_3  and  C_4 
REMARK    7  A    between atoms: C_4  and  C_6 
REMARK    8  A    between atoms: O_16  and  C_17 
REMARK    9  A    between atoms: C_17  and  C_19 
REMARK   10  A    between atoms: O_29  and  C_30 
REMARK   11  A    between atoms: C_30  and  C_32 
REMARK   12  A    between atoms: O_42  and  C_43 
REMARK   13  A    between atoms: C_43  and  C_45 
ROOT
ATOM      1  O   LIG     1     148.914 153.613 147.819  0.00  0.00    -0.314 OA
ATOM      2  C   LIG     1     150.186 153.180 147.289  0.00  0.00     0.335 C 
ATOM      3  C   LIG     1     151.088 154.392 146.923  0.00  0.00     0.282 C 
ATOM      4  C   LIG     1     151.203 155.356 148.143  0.00  0.00     0.257 C 
ATOM      5  C   LIG     1     149.799 155.728 148.702  0.00  0.00     0.242 C 
ATOM      6  C   LIG     1     148.978 154.437 148.998  0.00  0.00     0.195 C 
ENDROOT
BRANCH   2   7
ATOM      7  O   LIG     1     149.859 152.429 146.113  0.00  0.00    -0.417 OA
BRANCH   7   8
ATOM      8  C   LIG     1     149.709 151.074 146.137  0.00  0.00     0.343 C 
ATOM      9  O   LIG     1     149.945 150.491 147.222  0.00  0.00    -0.245 OA
BRANCH   8  10
ATOM     10  C   LIG     1     149.241 150.378 144.988  0.00  0.00     0.082 A 
ATOM     11  C   LIG     1     147.868 150.389 144.639  0.00  0.00     0.052 A 
ATOM     12  C   LIG     1     147.414 149.795 143.445  0.00  0.00     0.238 A 
ATOM     13  C   LIG     1     148.335 149.180 142.574  0.00  0.00     0.273 A 
ATOM     14  O   LIG     1     146.097 149.828 143.128  0.00  0.00    -0.283 OA
ATOM     15  C   LIG     1     149.699 149.133 142.918  0.00  0.00     0.238 A 
ATOM     16  O   LIG     1     147.933 148.633 141.399  0.00  0.00    -0.280 OA
ATOM     17  C   LIG     1     150.144 149.713 144.121  0.00  0.00     0.052 A 
ATOM     18  O   LIG     1     150.583 148.540 142.076  0.00  0.00    -0.283 OA
ENDBRANCH   8  10
ENDBRANCH   7   8
ENDBRANCH   2   7
BRANCH   3  19
ATOM     19  O   LIG     1     152.415 153.980 146.546  0.00  0.00    -0.439 OA
BRANCH  19  20
ATOM     20  C   LIG     1     153.025 152.813 146.898  0.00  0.00     0.342 C 
ATOM     21  O   LIG     1     153.441 152.757 148.080  0.00  0.00    -0.245 OA
BRANCH  20  22
ATOM     22  C   LIG     1     153.258 151.752 145.979  0.00  0.00     0.082 A 
ATOM     23  C   LIG     1     153.392 152.006 144.592  0.00  0.00     0.052 A 
ATOM     24  C   LIG     1     153.621 150.960 143.677  0.00  0.00     0.238 A 
ATOM     25  O   LIG     1     153.742 151.261 142.359  0.00  0.00    -0.283 OA
ATOM     26  C   LIG     1     153.717 149.631 144.136  0.00  0.00     0.273 A 
ATOM     27  O   LIG     1     153.936 148.629 143.242  0.00  0.00    -0.280 OA
ATOM     28  C   LIG     1     153.585 149.358 145.512  0.00  0.00     0.238 A 
ATOM     29  C   LIG     1     153.361 150.412 146.421  0.00  0.00     0.052 A 
ATOM     30  O   LIG     1     153.670 148.078 145.956  0.00  0.00    -0.283 OA
ENDBRANCH  20  22
ENDBRANCH  19  20
ENDBRANCH   3  19
BRANCH   4  31
ATOM     31  O   LIG     1     151.890 156.573 147.787  0.00  0.00    -0.441 OA
BRANCH  31  32
ATOM     32  C   LIG     1     153.223 156.847 147.936  0.00  0.00     0.342 C 
ATOM     33  O   LIG     1     153.922 156.733 146.904  0.00  0.00    -0.245 OA
BRANCH  32  34
ATOM     34  C   LIG     1     153.801 157.347 149.138  0.00  0.00     0.082 A 
ATOM     35  C   LIG     1     153.562 156.717 150.384  0.00  0.00     0.052 A 
ATOM     36  C   LIG     1     154.152 157.203 151.569  0.00  0.00     0.238 A 
ATOM     37  C   LIG     1     154.998 158.327 151.523  0.00  0.00     0.273 A 
ATOM     38  O   LIG     1     153.911 156.594 152.757  0.00  0.00    -0.283 OA
ATOM     39  O   LIG     1     155.570 158.781 152.666  0.00  0.00    -0.280 OA
ATOM     40  C   LIG     1     155.240 158.971 150.292  0.00  0.00     0.238 A 
ATOM     41  O   LIG     1     156.038 160.067 150.251  0.00  0.00    -0.283 OA
ATOM     42  C   LIG     1     154.654 158.475 149.113  0.00  0.00     0.052 A 
ENDBRANCH  32  34
ENDBRANCH  31  32
ENDBRANCH   4  31
BRANCH   6  43
ATOM     43  C   LIG     1     147.520 154.738 149.429  0.00  0.00     0.215 C 
ATOM     44  O   LIG     1     146.632 153.746 148.922  0.00  0.00    -0.218 OA
ENDBRANCH   6  43
BRANCH   5  45
ATOM     45  O   LIG     1     149.936 156.473 149.929  0.00  0.00    -0.443 OA
BRANCH  45  46
ATOM     46  C   LIG     1     149.563 157.763 150.196  0.00  0.00     0.341 C 
ATOM     47  O   LIG     1     148.330 157.948 150.318  0.00  0.00    -0.245 OA
BRANCH  46  48
ATOM     48  C   LIG     1     150.446 158.871 150.242  0.00  0.00     0.082 A 
ATOM     49  C   LIG     1     150.720 159.573 148.995  0.00  0.00     0.052 A 
ATOM     50  C   LIG     1     151.625 160.657 149.024  0.00  0.00     0.238 A 
ATOM     51  O   LIG     1     151.915 161.316 147.875  0.00  0.00    -0.283 OA
ATOM     52  C   LIG     1     152.249 161.085 150.219  0.00  0.00     0.273 A 
ATOM     53  O   LIG     1     153.102 162.145 150.185  0.00  0.00    -0.280 OA
ATOM     54  C   LIG     1     151.949 160.365 151.446  0.00  0.00     0.238 A 
ATOM     55  O   LIG     1     152.620 160.880 152.557  0.00  0.00    -0.283 OA
ATOM     56  C   LIG     1     151.037 159.211 151.523  0.00  0.00     0.052 A 
ENDBRANCH  46  48
ENDBRANCH  45  46
ENDBRANCH   5  45
TORSDOF 13
ENDMDL
MODEL 6
REMARK VINA RESULT:      -9.3      1.871      7.052
REMARK  13 active torsions:
REMARK  status: ('A' for Active; 'I' for Inactive)
REMARK    1  A    between atoms: C_2  and  O_3 
REMARK    2  A    between atoms: C_15  and  O_16 
REMARK    3  A    between atoms: C_28  and  O_29 
REMARK    4  A    between atoms: C_41  and  O_42 
REMARK    5  A    between atoms: C_54  and  C_55 
REMARK    6  A    between atoms: O_3  and  C_4 
REMARK    7  A    between atoms: C_4  and  C_6 
REMARK    8  A    between atoms: O_16  and  C_17 
REMARK    9  A    between atoms: C_17  and  C_19 
REMARK   10  A    between atoms: O_29  and  C_30 
REMARK   11  A    between atoms: C_30  and  C_32 
REMARK   12  A    between atoms: O_42  and  C_43 
REMARK   13  A    between atoms: C_43  and  C_45 
ROOT
ATOM      1  O   LIG     1     153.778 160.135 150.627  0.00  0.00    -0.314 OA
ATOM      2  C   LIG     1     152.477 160.440 151.173  0.00  0.00     0.335 C 
ATOM      3  C   LIG     1     151.457 159.306 150.871  0.00  0.00     0.282 C 
ATOM      4  C   LIG     1     152.035 157.935 151.336  0.00  0.00     0.257 C 
ATOM      5  C   LIG     1     153.464 157.702 150.763  0.00  0.00     0.242 C 
ATOM      6  C   LIG     1     154.382 158.916 151.098  0.00  0.00     0.195 C 
ENDROOT
BRANCH   2   7
ATOM      7  O   LIG     1     152.079 161.654 150.522  0.00  0.00    -0.417 OA
BRANCH   7   8
ATOM      8  C   LIG     1     151.977 162.836 151.194  0.00  0.00     0.343 C 
ATOM      9  O   LIG     1     152.161 162.808 152.434  0.00  0.00    -0.245 OA
BRANCH   8  10
ATOM     10  C   LIG     1     151.737 164.049 150.490  0.00  0.00     0.082 A 
ATOM     11  C   LIG     1     152.131 165.296 151.034  0.00  0.00     0.052 A 
ATOM     12  C   LIG     1     151.996 166.488 150.295  0.00  0.00     0.238 A 
ATOM     13  C   LIG     1     151.462 166.449 148.991  0.00  0.00     0.273 A 
ATOM     14  O   LIG     1     152.391 167.669 150.831  0.00  0.00    -0.283 OA
ATOM     15  C   LIG     1     151.037 165.223 148.447  0.00  0.00     0.238 A 
ATOM     16  O   LIG     1     151.355 167.576 148.242  0.00  0.00    -0.280 OA
ATOM     17  C   LIG     1     151.159 164.037 149.196  0.00  0.00     0.052 A 
ATOM     18  O   LIG     1     150.524 165.188 147.190  0.00  0.00    -0.283 OA
ENDBRANCH   8  10
ENDBRANCH   7   8
ENDBRANCH   2   7
BRANCH   3  19
ATOM     19  O   LIG     1     150.202 159.519 151.543  0.00  0.00    -0.439 OA
BRANCH  19  20
ATOM     20  C   LIG     1     149.072 160.045 150.989  0.00  0.00     0.342 C 
ATOM     21  O   LIG     1     148.675 161.122 151.494  0.00  0.00    -0.245 OA
BRANCH  20  22
ATOM     22  C   LIG     1     148.333 159.389 149.966  0.00  0.00     0.082 A 
ATOM     23  C   LIG     1     147.194 158.607 150.276  0.00  0.00     0.052 A 
ATOM     24  C   LIG     1     146.460 157.953 149.267  0.00  0.00     0.238 A 
ATOM     25  O   LIG     1     145.376 157.217 149.623  0.00  0.00    -0.283 OA
ATOM     26  C   LIG     1     146.858 158.066 147.920  0.00  0.00     0.273 A 
ATOM     27  O   LIG     1     146.143 157.428 146.956  0.00  0.00    -0.280 OA
ATOM     28  C   LIG     1     147.990 158.838 147.591  0.00  0.00     0.238 A 
ATOM     29  C   LIG     1     148.715 159.494 148.608  0.00  0.00     0.052 A 
ATOM     30  O   LIG     1     148.380 158.945 146.296  0.00  0.00    -0.283 OA
ENDBRANCH  20  22
ENDBRANCH  19  20
ENDBRANCH   3  19
BRANCH   4  31
ATOM     31  O   LIG     1     151.193 156.842 150.918  0.00  0.00    -0.441 OA
BRANCH  31  32
ATOM     32  C   LIG     1     150.707 156.602 149.660  0.00  0.00     0.342 C 
ATOM     33  O   LIG     1     151.385 157.070 148.716  0.00  0.00    -0.245 OA
BRANCH  32  34
ATOM     34  C   LIG     1     149.577 155.780 149.389  0.00  0.00     0.082 A 
ATOM     35  C   LIG     1     148.728 155.334 150.431  0.00  0.00     0.052 A 
ATOM     36  C   LIG     1     147.598 154.536 150.156  0.00  0.00     0.238 A 
ATOM     37  C   LIG     1     147.297 154.177 148.828  0.00  0.00     0.273 A 
ATOM     38  O   LIG     1     146.795 154.110 151.164  0.00  0.00    -0.283 OA
ATOM     39  O   LIG     1     146.202 153.419 148.573  0.00  0.00    -0.280 OA
ATOM     40  C   LIG     1     148.136 154.606 147.780  0.00  0.00     0.238 A 
ATOM     41  O   LIG     1     147.858 154.242 146.504  0.00  0.00    -0.283 OA
ATOM     42  C   LIG     1     149.258 155.409 148.062  0.00  0.00     0.052 A 
ENDBRANCH  32  34
ENDBRANCH  31  32
ENDBRANCH   4  31
BRANCH   6  43
ATOM     43  C   LIG     1     155.781 158.810 150.441  0.00  0.00     0.215 C 
ATOM     44  O   LIG     1     156.653 159.815 150.951  0.00  0.00    -0.218 OA
ENDBRANCH   6  43
BRANCH   5  45
ATOM     45  O   LIG     1     154.044 156.517 151.346  0.00  0.00    -0.443 OA
BRANCH  45  46
ATOM     46  C   LIG     1     154.367 155.333 150.740  0.00  0.00     0.341 C 
ATOM     47  O   LIG     1     155.594 155.119 150.604  0.00  0.00    -0.245 OA
BRANCH  46  48
ATOM     48  C   LIG     1     153.432 154.420 150.189  0.00  0.00     0.082 A 
ATOM     49  C   LIG     1     153.431 154.238 148.744  0.00  0.00     0.052 A 
ATOM     50  C   LIG     1     152.481 153.356 148.183  0.00  0.00     0.238 A 
ATOM     51  O   LIG     1     152.443 153.182 146.838  0.00  0.00    -0.283 OA
ATOM     52  C   LIG     1     151.555 152.642 148.978  0.00  0.00     0.273 A 
ATOM     53  O   LIG     1     150.671 151.796 148.379  0.00  0.00    -0.280 OA
ATOM     54  C   LIG     1     151.586 152.844 150.418  0.00  0.00     0.238 A 
ATOM     55  O   LIG     1     150.631 152.084 151.095  0.00  0.00    -0.283 OA
ATOM     56  C   LIG     1     152.522 153.753 151.101  0.00  0.00     0.052 A 
ENDBRANCH  46  48
ENDBRANCH  45  46
ENDBRANCH   5  45
TORSDOF 13
ENDMDL
MODEL 7
REMARK VINA RESULT:      -9.2      2.406      8.214
REMARK  13 active torsions:
REMARK  status: ('A' for Active; 'I' for Inactive)
REMARK    1  A    between atoms: C_2  and  O_3 
REMARK    2  A    between atoms: C_15  and  O_16 
REMARK    3  A    between atoms: C_28  and  O_29 
REMARK    4  A    between atoms: C_41  and  O_42 
REMARK    5  A    between atoms: C_54  and  C_55 
REMARK    6  A    between atoms: O_3  and  C_4 
REMARK    7  A    between atoms: C_4  and  C_6 
REMARK    8  A    between atoms: O_16  and  C_17 
REMARK    9  A    between atoms: C_17  and  C_19 
REMARK   10  A    between atoms: O_29  and  C_30 
REMARK   11  A    between atoms: C_30  and  C_32 
REMARK   12  A    between atoms: O_42  and  C_43 
REMARK   13  A    between atoms: C_43  and  C_45 
ROOT
ATOM      1  O   LIG     1     147.688 155.706 148.667  0.00  0.00    -0.314 OA
ATOM      2  C   LIG     1     148.762 156.620 148.976  0.00  0.00     0.335 C 
ATOM      3  C   LIG     1     150.094 155.861 149.235  0.00  0.00     0.282 C 
ATOM      4  C   LIG     1     150.398 154.902 148.044  0.00  0.00     0.257 C 
ATOM      5  C   LIG     1     149.175 153.993 147.725  0.00  0.00     0.242 C 
ATOM      6  C   LIG     1     147.898 154.862 147.520  0.00  0.00     0.195 C 
ENDROOT
BRANCH   2   7
ATOM      7  O   LIG     1     148.338 157.300 150.164  0.00  0.00    -0.417 OA
BRANCH   7   8
ATOM      8  C   LIG     1     147.905 158.594 150.143  0.00  0.00     0.343 C 
ATOM      9  O   LIG     1     146.666 158.784 150.174  0.00  0.00    -0.245 OA
BRANCH   8  10
ATOM     10  C   LIG     1     148.838 159.668 150.152  0.00  0.00     0.082 A 
ATOM     11  C   LIG     1     148.733 160.732 149.223  0.00  0.00     0.052 A 
ATOM     12  C   LIG     1     149.585 161.851 149.297  0.00  0.00     0.238 A 
ATOM     13  C   LIG     1     150.561 161.924 150.311  0.00  0.00     0.273 A 
ATOM     14  O   LIG     1     149.458 162.862 148.403  0.00  0.00    -0.283 OA
ATOM     15  C   LIG     1     150.700 160.863 151.225  0.00  0.00     0.238 A 
ATOM     16  O   LIG     1     151.371 163.007 150.430  0.00  0.00    -0.280 OA
ATOM     17  C   LIG     1     149.857 159.739 151.135  0.00  0.00     0.052 A 
ATOM     18  O   LIG     1     151.640 160.937 152.201  0.00  0.00    -0.283 OA
ENDBRANCH   8  10
ENDBRANCH   7   8
ENDBRANCH   2   7
BRANCH   3  19
ATOM     19  O   LIG     1     151.206 156.762 149.386  0.00  0.00    -0.439 OA
BRANCH  19  20
ATOM     20  C   LIG     1     151.854 157.052 150.550  0.00  0.00     0.342 C 
ATOM     21  O   LIG     1     151.254 156.719 151.599  0.00  0.00    -0.245 OA
BRANCH  20  22
ATOM     22  C   LIG     1     153.087 157.760 150.594  0.00  0.00     0.082 A 
ATOM     23  C   LIG     1     153.639 158.337 149.425  0.00  0.00     0.052 A 
ATOM     24  C   LIG     1     154.861 159.037 149.462  0.00  0.00     0.238 A 
ATOM     25  O   LIG     1     155.342 159.570 148.310  0.00  0.00    -0.283 OA
ATOM     26  C   LIG     1     155.560 159.170 150.678  0.00  0.00     0.273 A 
ATOM     27  O   LIG     1     156.740 159.846 150.701  0.00  0.00    -0.280 OA
ATOM     28  C   LIG     1     155.028 158.601 151.853  0.00  0.00     0.238 A 
ATOM     29  C   LIG     1     153.802 157.907 151.806  0.00  0.00     0.052 A 
ATOM     30  O   LIG     1     155.703 158.721 153.025  0.00  0.00    -0.283 OA
ENDBRANCH  20  22
ENDBRANCH  19  20
ENDBRANCH   3  19
BRANCH   4  31
ATOM     31  O   LIG     1     151.532 154.058 148.326  0.00  0.00    -0.441 OA
BRANCH  31  32
ATOM     32  C   LIG     1     151.809 153.404 149.498  0.00  0.00     0.342 C 
ATOM     33  O   LIG     1     151.149 152.360 149.708  0.00  0.00    -0.245 OA
BRANCH  32  34
ATOM     34  C   LIG     1     152.850 153.783 150.391  0.00  0.00     0.082 A 
ATOM     35  C   LIG     1     154.117 154.194 149.909  0.00  0.00     0.052 A 
ATOM     36  C   LIG     1     155.140 154.587 150.796  0.00  0.00     0.238 A 
ATOM     37  C   LIG     1     154.907 154.580 152.184  0.00  0.00     0.273 A 
ATOM     38  O   LIG     1     156.351 154.973 150.321  0.00  0.00    -0.283 OA
ATOM     39  O   LIG     1     155.894 154.971 153.030  0.00  0.00    -0.280 OA
ATOM     40  C   LIG     1     153.655 154.167 152.682  0.00  0.00     0.238 A 
ATOM     41  O   LIG     1     153.438 154.140 154.020  0.00  0.00    -0.283 OA
ATOM     42  C   LIG     1     152.637 153.783 151.789  0.00  0.00     0.052 A 
ENDBRANCH  32  34
ENDBRANCH  31  32
ENDBRANCH   4  31
BRANCH   6  43
ATOM     43  C   LIG     1     146.616 154.011 147.333  0.00  0.00     0.215 C 
ATOM     44  O   LIG     1     146.187 153.471 148.580  0.00  0.00    -0.218 OA
ENDBRANCH   6  43
BRANCH   5  45
ATOM     45  O   LIG     1     149.417 153.244 146.516  0.00  0.00    -0.443 OA
BRANCH  45  46
ATOM     46  C   LIG     1     150.028 152.029 146.367  0.00  0.00     0.341 C 
ATOM     47  O   LIG     1     149.758 151.183 147.251  0.00  0.00    -0.245 OA
BRANCH  46  48
ATOM     48  C   LIG     1     150.986 151.717 145.369  0.00  0.00     0.082 A 
ATOM     49  C   LIG     1     152.310 152.314 145.488  0.00  0.00     0.052 A 
ATOM     50  C   LIG     1     153.259 152.038 144.481  0.00  0.00     0.238 A 
ATOM     51  O   LIG     1     154.494 152.595 144.555  0.00  0.00    -0.283 OA
ATOM     52  C   LIG     1     152.970 151.194 143.384  0.00  0.00     0.273 A 
ATOM     53  O   LIG     1     153.933 150.955 142.451  0.00  0.00    -0.280 OA
ATOM     54  C   LIG     1     151.641 150.611 143.298  0.00  0.00     0.238 A 
ATOM     55  O   LIG     1     151.475 149.796 142.177  0.00  0.00    -0.283 OA
ATOM     56  C   LIG     1     150.572 150.850 144.282  0.00  0.00     0.052 A 
ENDBRANCH  46  48
ENDBRANCH  45  46
ENDBRANCH   5  45
TORSDOF 13
ENDMDL
MODEL 8
REMARK VINA RESULT:      -9.2      3.722      8.172
REMARK  13 active torsions:
REMARK  status: ('A' for Active; 'I' for Inactive)
REMARK    1  A    between atoms: C_2  and  O_3 
REMARK    2  A    between atoms: C_15  and  O_16 
REMARK    3  A    between atoms: C_28  and  O_29 
REMARK    4  A    between atoms: C_41  and  O_42 
REMARK    5  A    between atoms: C_54  and  C_55 
REMARK    6  A    between atoms: O_3  and  C_4 
REMARK    7  A    between atoms: C_4  and  C_6 
REMARK    8  A    between atoms: O_16  and  C_17 
REMARK    9  A    between atoms: C_17  and  C_19 
REMARK   10  A    between atoms: O_29  and  C_30 
REMARK   11  A    between atoms: C_30  and  C_32 
REMARK   12  A    between atoms: O_42  and  C_43 
REMARK   13  A    between atoms: C_43  and  C_45 
ROOT
ATOM      1  O   LIG     1     148.167 154.152 147.436  0.00  0.00    -0.314 OA
ATOM      2  C   LIG     1     149.324 153.289 147.393  0.00  0.00     0.335 C 
ATOM      3  C   LIG     1     150.642 154.103 147.534  0.00  0.00     0.282 C 
ATOM      4  C   LIG     1     150.572 155.011 148.799  0.00  0.00     0.257 C 
ATOM      5  C   LIG     1     149.269 155.864 148.811  0.00  0.00     0.242 C 
ATOM      6  C   LIG     1     148.024 154.945 148.629  0.00  0.00     0.195 C 
ENDROOT
BRANCH   2   7
ATOM      7  O   LIG     1     149.264 152.655 146.110  0.00  0.00    -0.417 OA
BRANCH   7   8
ATOM      8  C   LIG     1     149.399 151.306 145.961  0.00  0.00     0.343 C 
ATOM      9  O   LIG     1     149.774 150.654 146.964  0.00  0.00    -0.245 OA
BRANCH   8  10
ATOM     10  C   LIG     1     149.060 150.677 144.731  0.00  0.00     0.082 A 
ATOM     11  C   LIG     1     150.064 150.150 143.882  0.00  0.00     0.052 A 
ATOM     12  C   LIG     1     149.730 149.430 142.718  0.00  0.00     0.238 A 
ATOM     13  C   LIG     1     148.376 149.224 142.385  0.00  0.00     0.273 A 
ATOM     14  O   LIG     1     150.708 148.926 141.927  0.00  0.00    -0.283 OA
ATOM     15  C   LIG     1     147.366 149.766 143.200  0.00  0.00     0.238 A 
ATOM     16  O   LIG     1     148.025 148.503 141.290  0.00  0.00    -0.280 OA
ATOM     17  C   LIG     1     147.706 150.499 144.353  0.00  0.00     0.052 A 
ATOM     18  O   LIG     1     146.063 149.564 142.877  0.00  0.00    -0.283 OA
ENDBRANCH   8  10
ENDBRANCH   7   8
ENDBRANCH   2   7
BRANCH   3  19
ATOM     19  O   LIG     1     151.792 153.246 147.654  0.00  0.00    -0.439 OA
BRANCH  19  20
ATOM     20  C   LIG     1     152.836 153.175 146.780  0.00  0.00     0.342 C 
ATOM     21  O   LIG     1     153.528 154.215 146.679  0.00  0.00    -0.245 OA
BRANCH  20  22
ATOM     22  C   LIG     1     153.089 152.035 145.967  0.00  0.00     0.082 A 
ATOM     23  C   LIG     1     153.342 152.171 144.580  0.00  0.00     0.052 A 
ATOM     24  C   LIG     1     153.590 151.045 143.770  0.00  0.00     0.238 A 
ATOM     25  O   LIG     1     153.826 151.235 142.446  0.00  0.00    -0.283 OA
ATOM     26  C   LIG     1     153.585 149.755 144.335  0.00  0.00     0.273 A 
ATOM     27  O   LIG     1     153.824 148.676 143.542  0.00  0.00    -0.280 OA
ATOM     28  C   LIG     1     153.333 149.599 145.713  0.00  0.00     0.238 A 
ATOM     29  C   LIG     1     153.092 150.732 146.517  0.00  0.00     0.052 A 
ATOM     30  O   LIG     1     153.321 148.357 146.259  0.00  0.00    -0.283 OA
ENDBRANCH  20  22
ENDBRANCH  19  20
ENDBRANCH   3  19
BRANCH   4  31
ATOM     31  O   LIG     1     151.702 155.904 148.866  0.00  0.00    -0.441 OA
BRANCH  31  32
ATOM     32  C   LIG     1     152.680 155.933 149.825  0.00  0.00     0.342 C 
ATOM     33  O   LIG     1     152.763 154.916 150.550  0.00  0.00    -0.245 OA
BRANCH  32  34
ATOM     34  C   LIG     1     153.639 156.978 149.948  0.00  0.00     0.082 A 
ATOM     35  C   LIG     1     154.076 157.710 148.817  0.00  0.00     0.052 A 
ATOM     36  C   LIG     1     155.011 158.758 148.946  0.00  0.00     0.238 A 
ATOM     37  C   LIG     1     155.518 159.094 150.215  0.00  0.00     0.273 A 
ATOM     38  O   LIG     1     155.426 159.447 147.853  0.00  0.00    -0.283 OA
ATOM     39  O   LIG     1     156.409 160.111 150.331  0.00  0.00    -0.280 OA
ATOM     40  C   LIG     1     155.100 158.372 151.350  0.00  0.00     0.238 A 
ATOM     41  O   LIG     1     155.605 158.682 152.570  0.00  0.00    -0.283 OA
ATOM     42  C   LIG     1     154.161 157.332 151.214  0.00  0.00     0.052 A 
ENDBRANCH  32  34
ENDBRANCH  31  32
ENDBRANCH   4  31
BRANCH   6  43
ATOM     43  C   LIG     1     146.703 155.745 148.495  0.00  0.00     0.215 C 
ATOM     44  O   LIG     1     145.923 155.627 149.682  0.00  0.00    -0.218 OA
ENDBRANCH   6  43
BRANCH   5  45
ATOM     45  O   LIG     1     149.145 156.559 150.068  0.00  0.00    -0.443 OA
BRANCH  45  46
ATOM     46  C   LIG     1     149.037 157.904 150.298  0.00  0.00     0.341 C 
ATOM     47  O   LIG     1     147.877 158.315 150.532  0.00  0.00    -0.245 OA
BRANCH  46  48
ATOM     48  C   LIG     1     150.102 158.834 150.191  0.00  0.00     0.082 A 
ATOM     49  C   LIG     1     150.795 159.217 151.415  0.00  0.00     0.052 A 
ATOM     50  C   LIG     1     151.834 160.168 151.323  0.00  0.00     0.238 A 
ATOM     51  O   LIG     1     152.484 160.557 152.449  0.00  0.00    -0.283 OA
ATOM     52  C   LIG     1     152.227 160.739 150.091  0.00  0.00     0.273 A 
ATOM     53  O   LIG     1     153.245 161.642 150.066  0.00  0.00    -0.280 OA
ATOM     54  C   LIG     1     151.517 160.333 148.889  0.00  0.00     0.238 A 
ATOM     55  O   LIG     1     151.994 160.959 147.736  0.00  0.00    -0.283 OA
ATOM     56  C   LIG     1     150.407 159.364 148.875  0.00  0.00     0.052 A 
ENDBRANCH  46  48
ENDBRANCH  45  46
ENDBRANCH   5  45
TORSDOF 13
ENDMDL
MODEL 9
REMARK VINA RESULT:      -9.2      1.295      2.418
REMARK  13 active torsions:
REMARK  status: ('A' for Active; 'I' for Inactive)
REMARK    1  A    between atoms: C_2  and  O_3 
REMARK    2  A    between atoms: C_15  and  O_16 
REMARK    3  A    between atoms: C_28  and  O_29 
REMARK    4  A    between atoms: C_41  and  O_42 
REMARK    5  A    between atoms: C_54  and  C_55 
REMARK    6  A    between atoms: O_3  and  C_4 
REMARK    7  A    between atoms: C_4  and  C_6 
REMARK    8  A    between atoms: O_16  and  C_17 
REMARK    9  A    between atoms: C_17  and  C_19 
REMARK   10  A    between atoms: O_29  and  C_30 
REMARK   11  A    between atoms: C_30  and  C_32 
REMARK   12  A    between atoms: O_42  and  C_43 
REMARK   13  A    between atoms: C_43  and  C_45 
ROOT
ATOM      1  O   LIG     1     152.277 161.068 151.254  0.00  0.00    -0.314 OA
ATOM      2  C   LIG     1     152.461 159.682 150.891  0.00  0.00     0.335 C 
ATOM      3  C   LIG     1     151.109 159.013 150.513  0.00  0.00     0.282 C 
ATOM      4  C   LIG     1     150.381 159.863 149.428  0.00  0.00     0.257 C 
ATOM      5  C   LIG     1     150.277 161.356 149.857  0.00  0.00     0.242 C 
ATOM      6  C   LIG     1     151.684 161.904 150.243  0.00  0.00     0.195 C 
ENDROOT
BRANCH   2   7
ATOM      7  O   LIG     1     153.013 159.064 152.060  0.00  0.00    -0.417 OA
BRANCH   7   8
ATOM      8  C   LIG     1     154.113 158.260 152.003  0.00  0.00     0.343 C 
ATOM      9  O   LIG     1     155.229 158.823 151.901  0.00  0.00    -0.245 OA
BRANCH   8  10
ATOM     10  C   LIG     1     153.983 156.849 152.123  0.00  0.00     0.082 A 
ATOM     11  C   LIG     1     153.641 156.251 153.362  0.00  0.00     0.052 A 
ATOM     12  C   LIG     1     153.403 154.866 153.462  0.00  0.00     0.238 A 
ATOM     13  C   LIG     1     153.504 154.053 152.315  0.00  0.00     0.273 A 
ATOM     14  O   LIG     1     153.066 154.319 154.655  0.00  0.00    -0.283 OA
ATOM     15  C   LIG     1     153.872 154.623 151.083  0.00  0.00     0.238 A 
ATOM     16  O   LIG     1     153.244 152.722 152.374  0.00  0.00    -0.280 OA
ATOM     17  C   LIG     1     154.125 156.006 150.993  0.00  0.00     0.052 A 
ATOM     18  O   LIG     1     153.967 153.837 149.981  0.00  0.00    -0.283 OA
ENDBRANCH   8  10
ENDBRANCH   7   8
ENDBRANCH   2   7
BRANCH   3  19
ATOM     19  O   LIG     1     151.294 157.683 149.996  0.00  0.00    -0.439 OA
BRANCH  19  20
ATOM     20  C   LIG     1     151.590 157.355 148.705  0.00  0.00     0.342 C 
ATOM     21  O   LIG     1     152.564 157.964 148.204  0.00  0.00    -0.245 OA
BRANCH  20  22
ATOM     22  C   LIG     1     150.807 156.450 147.937  0.00  0.00     0.082 A 
ATOM     23  C   LIG     1     150.081 156.892 146.804  0.00  0.00     0.052 A 
ATOM     24  C   LIG     1     149.302 156.000 146.042  0.00  0.00     0.238 A 
ATOM     25  O   LIG     1     148.628 156.480 144.966  0.00  0.00    -0.283 OA
ATOM     26  C   LIG     1     149.230 154.640 146.403  0.00  0.00     0.273 A 
ATOM     27  O   LIG     1     148.473 153.790 145.660  0.00  0.00    -0.280 OA
ATOM     28  C   LIG     1     149.944 154.181 147.528  0.00  0.00     0.238 A 
ATOM     29  C   LIG     1     150.725 155.080 148.282  0.00  0.00     0.052 A 
ATOM     30  O   LIG     1     149.872 152.873 147.883  0.00  0.00    -0.283 OA
ENDBRANCH  20  22
ENDBRANCH  19  20
ENDBRANCH   3  19
BRANCH   4  31
ATOM     31  O   LIG     1     149.051 159.367 149.178  0.00  0.00    -0.441 OA
BRANCH  31  32
ATOM     32  C   LIG     1     148.246 158.677 150.045  0.00  0.00     0.342 C 
ATOM     33  O   LIG     1     147.862 159.311 151.054  0.00  0.00    -0.245 OA
BRANCH  32  34
ATOM     34  C   LIG     1     147.756 157.363 149.798  0.00  0.00     0.082 A 
ATOM     35  C   LIG     1     146.885 157.097 148.713  0.00  0.00     0.052 A 
ATOM     36  C   LIG     1     146.418 155.791 148.460  0.00  0.00     0.238 A 
ATOM     37  C   LIG     1     146.822 154.727 149.288  0.00  0.00     0.273 A 
ATOM     38  O   LIG     1     145.579 155.550 147.421  0.00  0.00    -0.283 OA
ATOM     39  O   LIG     1     146.376 153.472 149.030  0.00  0.00    -0.280 OA
ATOM     40  C   LIG     1     147.682 154.975 150.377  0.00  0.00     0.238 A 
ATOM     41  O   LIG     1     148.053 153.954 151.188  0.00  0.00    -0.283 OA
ATOM     42  C   LIG     1     148.150 156.281 150.619  0.00  0.00     0.052 A 
ENDBRANCH  32  34
ENDBRANCH  31  32
ENDBRANCH   4  31
BRANCH   6  43
ATOM     43  C   LIG     1     151.632 163.346 150.810  0.00  0.00     0.215 C 
ATOM     44  O   LIG     1     152.662 164.147 150.239  0.00  0.00    -0.218 OA
ENDBRANCH   6  43
BRANCH   5  45
ATOM     45  O   LIG     1     149.762 162.150 148.768  0.00  0.00    -0.443 OA
BRANCH  45  46
ATOM     46  C   LIG     1     150.329 162.406 147.550  0.00  0.00     0.341 C 
ATOM     47  O   LIG     1     150.850 163.539 147.430  0.00  0.00    -0.245 OA
BRANCH  46  48
ATOM     48  C   LIG     1     150.276 161.539 146.430  0.00  0.00     0.082 A 
ATOM     49  C   LIG     1     148.975 161.008 146.043  0.00  0.00     0.052 A 
ATOM     50  C   LIG     1     148.917 160.116 144.950  0.00  0.00     0.238 A 
ATOM     51  O   LIG     1     147.723 159.591 144.579  0.00  0.00    -0.283 OA
ATOM     52  C   LIG     1     150.069 159.743 144.219  0.00  0.00     0.273 A 
ATOM     53  O   LIG     1     149.946 158.888 143.167  0.00  0.00    -0.280 OA
ATOM     54  C   LIG     1     151.350 160.294 144.629  0.00  0.00     0.238 A 
ATOM     55  O   LIG     1     152.411 159.858 143.833  0.00  0.00    -0.283 OA
ATOM     56  C   LIG     1     151.525 161.216 145.765  0.00  0.00     0.052 A 
ENDBRANCH  46  48
ENDBRANCH  45  46
ENDBRANCH   5  45
TORSDOF 13
ENDMDL
MODEL 10
REMARK VINA RESULT:      -9.2      1.643      6.370
REMARK  13 active torsions:
REMARK  status: ('A' for Active; 'I' for Inactive)
REMARK    1  A    between atoms: C_2  and  O_3 
REMARK    2  A    between atoms: C_15  and  O_16 
REMARK    3  A    between atoms: C_28  and  O_29 
REMARK    4  A    between atoms: C_41  and  O_42 
REMARK    5  A    between atoms: C_54  and  C_55 
REMARK    6  A    between atoms: O_3  and  C_4 
REMARK    7  A    between atoms: C_4  and  C_6 
REMARK    8  A    between atoms: O_16  and  C_17 
REMARK    9  A    between atoms: C_17  and  C_19 
REMARK   10  A    between atoms: O_29  and  C_30 
REMARK   11  A    between atoms: C_30  and  C_32 
REMARK   12  A    between atoms: O_42  and  C_43 
REMARK   13  A    between atoms: C_43  and  C_45 
ROOT
ATOM      1  O   LIG     1     153.754 159.928 151.247  0.00  0.00    -0.314 OA
ATOM      2  C   LIG     1     152.382 160.258 151.549  0.00  0.00     0.335 C 
ATOM      3  C   LIG     1     151.416 159.120 151.111  0.00  0.00     0.282 C 
ATOM      4  C   LIG     1     151.891 157.762 151.711  0.00  0.00     0.257 C 
ATOM      5  C   LIG     1     153.394 157.503 151.403  0.00  0.00     0.242 C 
ATOM      6  C   LIG     1     154.254 158.722 151.854  0.00  0.00     0.195 C 
ENDROOT
BRANCH   2   7
ATOM      7  O   LIG     1     152.116 161.452 150.802  0.00  0.00    -0.417 OA
BRANCH   7   8
ATOM      8  C   LIG     1     152.801 161.763 149.665  0.00  0.00     0.343 C 
ATOM      9  O   LIG     1     153.765 162.558 149.776  0.00  0.00    -0.245 OA
BRANCH   8  10
ATOM     10  C   LIG     1     152.463 161.150 148.427  0.00  0.00     0.082 A 
ATOM     11  C   LIG     1     151.415 161.662 147.623  0.00  0.00     0.052 A 
ATOM     12  C   LIG     1     151.147 161.128 146.347  0.00  0.00     0.238 A 
ATOM     13  C   LIG     1     151.931 160.067 145.852  0.00  0.00     0.273 A 
ATOM     14  O   LIG     1     150.146 161.642 145.592  0.00  0.00    -0.283 OA
ATOM     15  C   LIG     1     152.957 159.526 146.648  0.00  0.00     0.238 A 
ATOM     16  O   LIG     1     151.721 159.558 144.612  0.00  0.00    -0.280 OA
ATOM     17  C   LIG     1     153.209 160.052 147.930  0.00  0.00     0.052 A 
ATOM     18  O   LIG     1     153.711 158.504 146.168  0.00  0.00    -0.283 OA
ENDBRANCH   8  10
ENDBRANCH   7   8
ENDBRANCH   2   7
BRANCH   3  19
ATOM     19  O   LIG     1     150.067 159.362 151.548  0.00  0.00    -0.439 OA
BRANCH  19  20
ATOM     20  C   LIG     1     149.083 159.971 150.825  0.00  0.00     0.342 C 
ATOM     21  O   LIG     1     148.822 161.151 151.156  0.00  0.00    -0.245 OA
BRANCH  20  22
ATOM     22  C   LIG     1     148.337 159.301 149.816  0.00  0.00     0.082 A 
ATOM     23  C   LIG     1     147.117 158.650 150.123  0.00  0.00     0.052 A 
ATOM     24  C   LIG     1     146.374 157.984 149.129  0.00  0.00     0.238 A 
ATOM     25  O   LIG     1     145.212 157.377 149.480  0.00  0.00    -0.283 OA
ATOM     26  C   LIG     1     146.844 157.952 147.801  0.00  0.00     0.273 A 
ATOM     27  O   LIG     1     146.119 157.304 146.850  0.00  0.00    -0.280 OA
ATOM     28  C   LIG     1     148.056 158.593 147.476  0.00  0.00     0.238 A 
ATOM     29  C   LIG     1     148.790 159.262 148.477  0.00  0.00     0.052 A 
ATOM     30  O   LIG     1     148.515 158.559 146.199  0.00  0.00    -0.283 OA
ENDBRANCH  20  22
ENDBRANCH  19  20
ENDBRANCH   3  19
BRANCH   4  31
ATOM     31  O   LIG     1     151.121 156.661 151.188  0.00  0.00    -0.441 OA
BRANCH  31  32
ATOM     32  C   LIG     1     150.742 156.457 149.887  0.00  0.00     0.342 C 
ATOM     33  O   LIG     1     151.539 156.872 149.016  0.00  0.00    -0.245 OA
BRANCH  32  34
ATOM     34  C   LIG     1     149.585 155.722 149.504  0.00  0.00     0.082 A 
ATOM     35  C   LIG     1     149.388 155.310 148.163  0.00  0.00     0.052 A 
ATOM     36  C   LIG     1     148.250 154.564 147.792  0.00  0.00     0.238 A 
ATOM     37  C   LIG     1     147.293 154.213 148.761  0.00  0.00     0.273 A 
ATOM     38  O   LIG     1     148.071 154.181 146.502  0.00  0.00    -0.283 OA
ATOM     39  O   LIG     1     146.207 153.486 148.396  0.00  0.00    -0.280 OA
ATOM     40  C   LIG     1     147.469 154.622 150.099  0.00  0.00     0.238 A 
ATOM     41  O   LIG     1     146.535 154.302 151.029  0.00  0.00    -0.283 OA
ATOM     42  C   LIG     1     148.611 155.359 150.464  0.00  0.00     0.052 A 
ENDBRANCH  32  34
ENDBRANCH  31  32
ENDBRANCH   4  31
BRANCH   6  43
ATOM     43  C   LIG     1     155.745 158.587 151.452  0.00  0.00     0.215 C 
ATOM     44  O   LIG     1     156.168 159.725 150.707  0.00  0.00    -0.218 OA
ENDBRANCH   6  43
BRANCH   5  45
ATOM     45  O   LIG     1     153.851 156.334 152.113  0.00  0.00    -0.443 OA
BRANCH  45  46
ATOM     46  C   LIG     1     154.229 155.118 151.611  0.00  0.00     0.341 C 
ATOM     47  O   LIG     1     155.412 154.785 151.853  0.00  0.00    -0.245 OA
BRANCH  46  48
ATOM     48  C   LIG     1     153.424 154.294 150.784  0.00  0.00     0.082 A 
ATOM     49  C   LIG     1     152.329 153.566 151.411  0.00  0.00     0.052 A 
ATOM     50  C   LIG     1     151.543 152.717 150.602  0.00  0.00     0.238 A 
ATOM     51  O   LIG     1     150.528 152.012 151.162  0.00  0.00    -0.283 OA
ATOM     52  C   LIG     1     151.777 152.569 149.216  0.00  0.00     0.273 A 
ATOM     53  O   LIG     1     150.976 151.744 148.486  0.00  0.00    -0.280 OA
ATOM     54  C   LIG     1     152.876 153.313 148.621  0.00  0.00     0.238 A 
ATOM     55  O   LIG     1     153.006 153.089 147.249  0.00  0.00    -0.283 OA
ATOM     56  C   LIG     1     153.767 154.209 149.377  0.00  0.00     0.052 A 
ENDBRANCH  46  48
ENDBRANCH  45  46
ENDBRANCH   5  45
TORSDOF 13
ENDMDL
