MODEL 1
REMARK VINA RESULT:      -8.1      0.000      0.000
REMARK  13 active torsions:
REMARK  status: ('A' for Active; 'I' for Inactive)
REMARK    1  A    between atoms: C_2  and  O_12 
REMARK    2  A    between atoms: C_3  and  O_10 
REMARK    3  A    between atoms: C_4  and  O_8 
REMARK    4  A    between atoms: C_5  and  O_6 
REMARK    5  A    between atoms: C_22  and  C_23 
REMARK    6  A    between atoms: O_12  and  C_13 
REMARK    7  A    between atoms: C_13  and  C_14 
REMARK    8  A    between atoms: C_15  and  C_16 
REMARK    9  A    between atoms: C_23  and  O_24 
REMARK   10  A    between atoms: O_24  and  C_25 
REMARK   11  A    between atoms: C_26  and  O_34 
REMARK   12  A    between atoms: C_27  and  O_32 
REMARK   13  A    between atoms: C_28  and  O_30 
ROOT
ATOM      1  O   LIG     1     182.638 181.036 173.849  0.00  0.00    -0.341 OA
ATOM      2  C   LIG     1     182.428 180.583 172.513  0.00  0.00     0.282 C 
ATOM      3  C   LIG     1     181.092 181.097 171.977  0.00  0.00     0.201 C 
ATOM      4  C   LIG     1     180.985 182.616 172.111  0.00  0.00     0.179 C 
ATOM      5  C   LIG     1     181.372 183.077 173.516  0.00  0.00     0.177 C 
ATOM      6  C   LIG     1     182.707 182.460 173.941  0.00  0.00     0.178 C 
ENDROOT
BRANCH   6   7
ATOM      7  C   LIG     1     183.059 182.812 175.383  0.00  0.00     0.197 C 
BRANCH   7   8
ATOM      8  O   LIG     1     184.389 183.295 175.418  0.00  0.00    -0.346 OA
BRANCH   8   9
ATOM      9  C   LIG     1     184.441 184.711 175.280  0.00  0.00     0.281 C 
ATOM     10  O   LIG     1     184.559 185.114 173.911  0.00  0.00    -0.346 OA
ATOM     11  C   LIG     1     185.798 184.748 173.309  0.00  0.00     0.197 C 
ATOM     12  C   LIG     1     186.964 185.397 174.044  0.00  0.00     0.171 C 
ATOM     13  C   LIG     1     186.958 185.000 175.521  0.00  0.00     0.178 C 
ATOM     14  C   LIG     1     185.583 185.279 176.137  0.00  0.00     0.201 C 
BRANCH  12  15
ATOM     15  O   LIG     1     188.197 185.020 173.448  0.00  0.00    -0.387 OA
ATOM     16  H   LIG     1     188.799 185.782 173.510  0.00  0.00     0.210 HD
ENDBRANCH  12  15
BRANCH  13  17
ATOM     17  O   LIG     1     187.261 183.611 175.637  0.00  0.00    -0.386 OA
ATOM     18  H   LIG     1     188.230 183.522 175.644  0.00  0.00     0.210 HD
ENDBRANCH  13  17
BRANCH  14  19
ATOM     19  O   LIG     1     185.392 186.687 176.249  0.00  0.00    -0.384 OA
ATOM     20  H   LIG     1     184.778 186.857 176.982  0.00  0.00     0.210 HD
ENDBRANCH  14  19
ENDBRANCH   8   9
ENDBRANCH   7   8
ENDBRANCH   6   7
BRANCH   5  21
ATOM     21  O   LIG     1     181.482 184.498 173.533  0.00  0.00    -0.386 OA
ATOM     22  H   LIG     1     180.950 184.831 174.276  0.00  0.00     0.210 HD
ENDBRANCH   5  21
BRANCH   2  23
ATOM     23  O   LIG     1     182.395 179.158 172.487  0.00  0.00    -0.345 OA
BRANCH  23  24
ATOM     24  C   LIG     1     183.502 178.628 171.775  0.00  0.00     0.190 C 
BRANCH  24  25
ATOM     25  C   LIG     1     183.164 177.245 171.320  0.00  0.00     0.001 C 
ATOM     26  C   LIG     1     182.296 176.448 171.963  0.00  0.00     0.006 C 
BRANCH  26  27
ATOM     27  C   LIG     1     181.923 175.086 171.545  0.00  0.00    -0.025 A 
ATOM     28  C   LIG     1     182.739 174.400 170.660  0.00  0.00     0.008 A 
ATOM     29  C   LIG     1     182.384 173.110 170.264  0.00  0.00     0.001 A 
ATOM     30  C   LIG     1     181.218 172.524 170.757  0.00  0.00     0.000 A 
ATOM     31  C   LIG     1     180.407 173.227 171.647  0.00  0.00     0.001 A 
ATOM     32  C   LIG     1     180.761 174.517 172.043  0.00  0.00     0.008 A 
ENDBRANCH  26  27
ENDBRANCH  24  25
ENDBRANCH  23  24
ENDBRANCH   2  23
BRANCH   4  33
ATOM     33  O   LIG     1     179.636 183.021 171.870  0.00  0.00    -0.386 OA
ATOM     34  H   LIG     1     179.503 183.031 170.907  0.00  0.00     0.210 HD
ENDBRANCH   4  33
BRANCH   3  35
ATOM     35  O   LIG     1     180.993 180.734 170.601  0.00  0.00    -0.384 OA
ATOM     36  H   LIG     1     180.176 180.221 170.482  0.00  0.00     0.210 HD
ENDBRANCH   3  35
TORSDOF 13
ENDMDL
MODEL 2
REMARK VINA RESULT:      -8.0      1.219      1.651
REMARK  13 active torsions:
REMARK  status: ('A' for Active; 'I' for Inactive)
REMARK    1  A    between atoms: C_2  and  O_12 
REMARK    2  A    between atoms: C_3  and  O_10 
REMARK    3  A    between atoms: C_4  and  O_8 
REMARK    4  A    between atoms: C_5  and  O_6 
REMARK    5  A    between atoms: C_22  and  C_23 
REMARK    6  A    between atoms: O_12  and  C_13 
REMARK    7  A    between atoms: C_13  and  C_14 
REMARK    8  A    between atoms: C_15  and  C_16 
REMARK    9  A    between atoms: C_23  and  O_24 
REMARK   10  A    between atoms: O_24  and  C_25 
REMARK   11  A    between atoms: C_26  and  O_34 
REMARK   12  A    between atoms: C_27  and  O_32 
REMARK   13  A    between atoms: C_28  and  O_30 
ROOT
ATOM      1  O   LIG     1     182.637 181.146 172.930  0.00  0.00    -0.341 OA
ATOM      2  C   LIG     1     181.496 181.142 172.075  0.00  0.00     0.282 C 
ATOM      3  C   LIG     1     180.332 181.886 172.731  0.00  0.00     0.201 C 
ATOM      4  C   LIG     1     180.744 183.293 173.162  0.00  0.00     0.179 C 
ATOM      5  C   LIG     1     182.058 183.271 173.942  0.00  0.00     0.177 C 
ATOM      6  C   LIG     1     183.121 182.464 173.192  0.00  0.00     0.178 C 
ENDROOT
BRANCH   6   7
ATOM      7  C   LIG     1     184.406 182.330 174.004  0.00  0.00     0.197 C 
BRANCH   7   8
ATOM      8  O   LIG     1     185.295 183.360 173.614  0.00  0.00    -0.346 OA
BRANCH   8   9
ATOM      9  C   LIG     1     185.752 184.115 174.731  0.00  0.00     0.281 C 
ATOM     10  O   LIG     1     185.161 185.418 174.777  0.00  0.00    -0.346 OA
ATOM     11  C   LIG     1     185.562 186.269 173.706  0.00  0.00     0.197 C 
ATOM     12  C   LIG     1     187.070 186.486 173.728  0.00  0.00     0.171 C 
ATOM     13  C   LIG     1     187.808 185.149 173.644  0.00  0.00     0.178 C 
ATOM     14  C   LIG     1     187.287 184.190 174.719  0.00  0.00     0.201 C 
BRANCH  12  15
ATOM     15  O   LIG     1     187.465 187.325 172.652  0.00  0.00    -0.387 OA
ATOM     16  H   LIG     1     188.045 186.803 172.070  0.00  0.00     0.210 HD
ENDBRANCH  12  15
BRANCH  13  17
ATOM     17  O   LIG     1     187.602 184.578 172.353  0.00  0.00    -0.386 OA
ATOM     18  H   LIG     1     187.444 183.626 172.476  0.00  0.00     0.210 HD
ENDBRANCH  13  17
BRANCH  14  19
ATOM     19  O   LIG     1     187.716 184.640 176.001  0.00  0.00    -0.384 OA
ATOM     20  H   LIG     1     188.675 184.500 176.072  0.00  0.00     0.210 HD
ENDBRANCH  14  19
ENDBRANCH   8   9
ENDBRANCH   7   8
ENDBRANCH   6   7
BRANCH   5  21
ATOM     21  O   LIG     1     182.521 184.607 174.123  0.00  0.00    -0.386 OA
ATOM     22  H   LIG     1     182.607 185.017 173.244  0.00  0.00     0.210 HD
ENDBRANCH   5  21
BRANCH   2  23
ATOM     23  O   LIG     1     181.080 179.799 171.832  0.00  0.00    -0.345 OA
BRANCH  23  24
ATOM     24  C   LIG     1     181.981 178.867 172.409  0.00  0.00     0.190 C 
BRANCH  24  25
ATOM     25  C   LIG     1     181.786 177.539 171.750  0.00  0.00     0.001 C 
ATOM     26  C   LIG     1     181.876 176.371 172.405  0.00  0.00     0.006 C 
BRANCH  26  27
ATOM     27  C   LIG     1     181.678 175.042 171.802  0.00  0.00    -0.025 A 
ATOM     28  C   LIG     1     182.560 174.600 170.828  0.00  0.00     0.008 A 
ATOM     29  C   LIG     1     182.372 173.341 170.258  0.00  0.00     0.001 A 
ATOM     30  C   LIG     1     181.305 172.541 170.667  0.00  0.00     0.000 A 
ATOM     31  C   LIG     1     180.426 172.999 171.648  0.00  0.00     0.001 A 
ATOM     32  C   LIG     1     180.614 174.258 172.219  0.00  0.00     0.008 A 
ENDBRANCH  26  27
ENDBRANCH  24  25
ENDBRANCH  23  24
ENDBRANCH   2  23
BRANCH   4  33
ATOM     33  O   LIG     1     179.736 183.844 174.011  0.00  0.00    -0.386 OA
ATOM     34  H   LIG     1     179.483 183.154 174.648  0.00  0.00     0.210 HD
ENDBRANCH   4  33
BRANCH   3  35
ATOM     35  O   LIG     1     179.267 181.972 171.785  0.00  0.00    -0.384 OA
ATOM     36  H   LIG     1     178.432 182.039 172.278  0.00  0.00     0.210 HD
ENDBRANCH   3  35
TORSDOF 13
ENDMDL
MODEL 3
REMARK VINA RESULT:      -8.0      7.960      9.738
REMARK  13 active torsions:
REMARK  status: ('A' for Active; 'I' for Inactive)
REMARK    1  A    between atoms: C_2  and  O_12 
REMARK    2  A    between atoms: C_3  and  O_10 
REMARK    3  A    between atoms: C_4  and  O_8 
REMARK    4  A    between atoms: C_5  and  O_6 
REMARK    5  A    between atoms: C_22  and  C_23 
REMARK    6  A    between atoms: O_12  and  C_13 
REMARK    7  A    between atoms: C_13  and  C_14 
REMARK    8  A    between atoms: C_15  and  C_16 
REMARK    9  A    between atoms: C_23  and  O_24 
REMARK   10  A    between atoms: O_24  and  C_25 
REMARK   11  A    between atoms: C_26  and  O_34 
REMARK   12  A    between atoms: C_27  and  O_32 
REMARK   13  A    between atoms: C_28  and  O_30 
ROOT
ATOM      1  O   LIG     1     184.456 187.656 167.733  0.00  0.00    -0.341 OA
ATOM      2  C   LIG     1     183.453 188.608 167.385  0.00  0.00     0.282 C 
ATOM      3  C   LIG     1     183.194 189.563 168.551  0.00  0.00     0.201 C 
ATOM      4  C   LIG     1     184.487 190.216 169.034  0.00  0.00     0.179 C 
ATOM      5  C   LIG     1     185.588 189.177 169.244  0.00  0.00     0.177 C 
ATOM      6  C   LIG     1     185.716 188.266 168.020  0.00  0.00     0.178 C 
ENDROOT
BRANCH   6   7
ATOM      7  C   LIG     1     186.728 187.148 168.251  0.00  0.00     0.197 C 
BRANCH   7   8
ATOM      8  O   LIG     1     187.123 187.172 169.610  0.00  0.00    -0.346 OA
BRANCH   8   9
ATOM      9  C   LIG     1     186.854 185.935 170.261  0.00  0.00     0.281 C 
ATOM     10  O   LIG     1     185.670 185.996 171.063  0.00  0.00    -0.346 OA
ATOM     11  C   LIG     1     185.782 186.864 172.188  0.00  0.00     0.197 C 
ATOM     12  C   LIG     1     186.898 186.399 173.115  0.00  0.00     0.171 C 
ATOM     13  C   LIG     1     188.230 186.333 172.365  0.00  0.00     0.178 C 
ATOM     14  C   LIG     1     188.075 185.502 171.087  0.00  0.00     0.201 C 
BRANCH  12  15
ATOM     15  O   LIG     1     187.015 187.274 174.229  0.00  0.00    -0.387 OA
ATOM     16  H   LIG     1     187.955 187.311 174.476  0.00  0.00     0.210 HD
ENDBRANCH  12  15
BRANCH  13  17
ATOM     17  O   LIG     1     188.646 187.656 172.027  0.00  0.00    -0.386 OA
ATOM     18  H   LIG     1     189.359 187.904 172.641  0.00  0.00     0.210 HD
ENDBRANCH  13  17
BRANCH  14  19
ATOM     19  O   LIG     1     187.908 184.130 171.434  0.00  0.00    -0.384 OA
ATOM     20  H   LIG     1     187.145 184.053 172.030  0.00  0.00     0.210 HD
ENDBRANCH  14  19
ENDBRANCH   8   9
ENDBRANCH   7   8
ENDBRANCH   6   7
BRANCH   5  21
ATOM     21  O   LIG     1     186.829 189.842 169.468  0.00  0.00    -0.386 OA
ATOM     22  H   LIG     1     186.778 190.720 169.051  0.00  0.00     0.210 HD
ENDBRANCH   5  21
BRANCH   2  23
ATOM     23  O   LIG     1     182.232 187.934 167.086  0.00  0.00    -0.345 OA
BRANCH  23  24
ATOM     24  C   LIG     1     181.791 188.224 165.769  0.00  0.00     0.190 C 
BRANCH  24  25
ATOM     25  C   LIG     1     180.874 187.134 165.318  0.00  0.00     0.001 C 
ATOM     26  C   LIG     1     180.299 187.109 164.105  0.00  0.00     0.006 C 
BRANCH  26  27
ATOM     27  C   LIG     1     179.402 186.050 163.612  0.00  0.00    -0.025 A 
ATOM     28  C   LIG     1     178.244 185.758 164.316  0.00  0.00     0.008 A 
ATOM     29  C   LIG     1     177.395 184.756 163.848  0.00  0.00     0.001 A 
ATOM     30  C   LIG     1     177.714 184.057 162.685  0.00  0.00     0.000 A 
ATOM     31  C   LIG     1     178.883 184.361 161.987  0.00  0.00     0.001 A 
ATOM     32  C   LIG     1     179.732 185.364 162.454  0.00  0.00     0.008 A 
ENDBRANCH  26  27
ENDBRANCH  24  25
ENDBRANCH  23  24
ENDBRANCH   2  23
BRANCH   4  33
ATOM     33  O   LIG     1     184.253 190.869 170.283  0.00  0.00    -0.386 OA
ATOM     34  H   LIG     1     183.636 190.314 170.790  0.00  0.00     0.210 HD
ENDBRANCH   4  33
BRANCH   3  35
ATOM     35  O   LIG     1     182.288 190.573 168.107  0.00  0.00    -0.384 OA
ATOM     36  H   LIG     1     182.047 191.119 168.874  0.00  0.00     0.210 HD
ENDBRANCH   3  35
TORSDOF 13
ENDMDL
MODEL 4
REMARK VINA RESULT:      -7.9      5.587      9.673
REMARK  13 active torsions:
REMARK  status: ('A' for Active; 'I' for Inactive)
REMARK    1  A    between atoms: C_2  and  O_12 
REMARK    2  A    between atoms: C_3  and  O_10 
REMARK    3  A    between atoms: C_4  and  O_8 
REMARK    4  A    between atoms: C_5  and  O_6 
REMARK    5  A    between atoms: C_22  and  C_23 
REMARK    6  A    between atoms: O_12  and  C_13 
REMARK    7  A    between atoms: C_13  and  C_14 
REMARK    8  A    between atoms: C_15  and  C_16 
REMARK    9  A    between atoms: C_23  and  O_24 
REMARK   10  A    between atoms: O_24  and  C_25 
REMARK   11  A    between atoms: C_26  and  O_34 
REMARK   12  A    between atoms: C_27  and  O_32 
REMARK   13  A    between atoms: C_28  and  O_30 
ROOT
ATOM      1  O   LIG     1     181.791 186.504 170.809  0.00  0.00    -0.341 OA
ATOM      2  C   LIG     1     180.376 186.673 170.853  0.00  0.00     0.282 C 
ATOM      3  C   LIG     1     179.691 185.358 171.230  0.00  0.00     0.201 C 
ATOM      4  C   LIG     1     180.260 184.786 172.527  0.00  0.00     0.179 C 
ATOM      5  C   LIG     1     181.787 184.770 172.503  0.00  0.00     0.177 C 
ATOM      6  C   LIG     1     182.339 186.132 172.075  0.00  0.00     0.178 C 
ENDROOT
BRANCH   6   7
ATOM      7  C   LIG     1     183.857 186.108 171.931  0.00  0.00     0.197 C 
BRANCH   7   8
ATOM      8  O   LIG     1     184.430 185.980 173.220  0.00  0.00    -0.346 OA
BRANCH   8   9
ATOM      9  C   LIG     1     185.811 185.639 173.152  0.00  0.00     0.281 C 
ATOM     10  O   LIG     1     186.018 184.349 172.565  0.00  0.00    -0.346 OA
ATOM     11  C   LIG     1     185.521 183.272 173.356  0.00  0.00     0.197 C 
ATOM     12  C   LIG     1     186.215 183.237 174.712  0.00  0.00     0.171 C 
ATOM     13  C   LIG     1     186.024 184.563 175.449  0.00  0.00     0.178 C 
ATOM     14  C   LIG     1     186.441 185.732 174.550  0.00  0.00     0.201 C 
BRANCH  12  15
ATOM     15  O   LIG     1     185.708 182.169 175.500  0.00  0.00    -0.387 OA
ATOM     16  H   LIG     1     185.401 182.546 176.343  0.00  0.00     0.210 HD
ENDBRANCH  12  15
BRANCH  13  17
ATOM     17  O   LIG     1     184.651 184.707 175.813  0.00  0.00    -0.386 OA
ATOM     18  H   LIG     1     184.258 183.817 175.827  0.00  0.00     0.210 HD
ENDBRANCH  13  17
BRANCH  14  19
ATOM     19  O   LIG     1     187.858 185.726 174.396  0.00  0.00    -0.384 OA
ATOM     20  H   LIG     1     188.137 184.829 174.146  0.00  0.00     0.210 HD
ENDBRANCH  14  19
ENDBRANCH   8   9
ENDBRANCH   7   8
ENDBRANCH   6   7
BRANCH   5  21
ATOM     21  O   LIG     1     182.277 184.450 173.803  0.00  0.00    -0.386 OA
ATOM     22  H   LIG     1     183.211 184.719 173.846  0.00  0.00     0.210 HD
ENDBRANCH   5  21
BRANCH   2  23
ATOM     23  O   LIG     1     179.897 187.068 169.569  0.00  0.00    -0.345 OA
BRANCH  23  24
ATOM     24  C   LIG     1     179.770 188.477 169.476  0.00  0.00     0.190 C 
BRANCH  24  25
ATOM     25  C   LIG     1     178.587 188.909 170.281  0.00  0.00     0.001 C 
ATOM     26  C   LIG     1     178.456 190.141 170.796  0.00  0.00     0.006 C 
BRANCH  26  27
ATOM     27  C   LIG     1     177.303 190.615 171.582  0.00  0.00    -0.025 A 
ATOM     28  C   LIG     1     177.445 190.807 172.947  0.00  0.00     0.008 A 
ATOM     29  C   LIG     1     176.354 191.256 173.690  0.00  0.00     0.001 A 
ATOM     30  C   LIG     1     175.135 191.505 173.060  0.00  0.00     0.000 A 
ATOM     31  C   LIG     1     175.007 191.307 171.686  0.00  0.00     0.001 A 
ATOM     32  C   LIG     1     176.099 190.858 170.942  0.00  0.00     0.008 A 
ENDBRANCH  26  27
ENDBRANCH  24  25
ENDBRANCH  23  24
ENDBRANCH   2  23
BRANCH   4  33
ATOM     33  O   LIG     1     179.806 183.441 172.693  0.00  0.00    -0.386 OA
ATOM     34  H   LIG     1     179.219 183.238 171.945  0.00  0.00     0.210 HD
ENDBRANCH   4  33
BRANCH   3  35
ATOM     35  O   LIG     1     178.296 185.612 171.394  0.00  0.00    -0.384 OA
ATOM     36  H   LIG     1     178.187 186.223 172.141  0.00  0.00     0.210 HD
ENDBRANCH   3  35
TORSDOF 13
ENDMDL
MODEL 5
REMARK VINA RESULT:      -7.8      5.780      8.036
REMARK  13 active torsions:
REMARK  status: ('A' for Active; 'I' for Inactive)
REMARK    1  A    between atoms: C_2  and  O_12 
REMARK    2  A    between atoms: C_3  and  O_10 
REMARK    3  A    between atoms: C_4  and  O_8 
REMARK    4  A    between atoms: C_5  and  O_6 
REMARK    5  A    between atoms: C_22  and  C_23 
REMARK    6  A    between atoms: O_12  and  C_13 
REMARK    7  A    between atoms: C_13  and  C_14 
REMARK    8  A    between atoms: C_15  and  C_16 
REMARK    9  A    between atoms: C_23  and  O_24 
REMARK   10  A    between atoms: O_24  and  C_25 
REMARK   11  A    between atoms: C_26  and  O_34 
REMARK   12  A    between atoms: C_27  and  O_32 
REMARK   13  A    between atoms: C_28  and  O_30 
ROOT
ATOM      1  O   LIG     1     186.850 183.276 169.116  0.00  0.00    -0.341 OA
ATOM      2  C   LIG     1     188.015 182.773 168.465  0.00  0.00     0.282 C 
ATOM      3  C   LIG     1     189.005 183.906 168.190  0.00  0.00     0.201 C 
ATOM      4  C   LIG     1     189.328 184.685 169.464  0.00  0.00     0.179 C 
ATOM      5  C   LIG     1     188.055 185.068 170.217  0.00  0.00     0.177 C 
ATOM      6  C   LIG     1     187.139 183.854 170.390  0.00  0.00     0.178 C 
ENDROOT
BRANCH   6   7
ATOM      7  C   LIG     1     185.810 184.235 171.035  0.00  0.00     0.197 C 
BRANCH   7   8
ATOM      8  O   LIG     1     186.068 184.744 172.331  0.00  0.00    -0.346 OA
BRANCH   8   9
ATOM      9  C   LIG     1     185.495 183.924 173.344  0.00  0.00     0.281 C 
ATOM     10  O   LIG     1     184.404 184.572 174.006  0.00  0.00    -0.346 OA
ATOM     11  C   LIG     1     184.791 185.707 174.777  0.00  0.00     0.197 C 
ATOM     12  C   LIG     1     185.771 185.303 175.871  0.00  0.00     0.171 C 
ATOM     13  C   LIG     1     187.005 184.629 175.268  0.00  0.00     0.178 C 
ATOM     14  C   LIG     1     186.581 183.487 174.339  0.00  0.00     0.201 C 
BRANCH  12  15
ATOM     15  O   LIG     1     186.163 186.439 176.629  0.00  0.00    -0.387 OA
ATOM     16  H   LIG     1     187.095 186.317 176.880  0.00  0.00     0.210 HD
ENDBRANCH  12  15
BRANCH  13  17
ATOM     17  O   LIG     1     187.754 185.593 174.529  0.00  0.00    -0.386 OA
ATOM     18  H   LIG     1     187.255 185.792 173.718  0.00  0.00     0.210 HD
ENDBRANCH  13  17
BRANCH  14  19
ATOM     19  O   LIG     1     186.058 182.414 175.119  0.00  0.00    -0.384 OA
ATOM     20  H   LIG     1     186.462 182.450 176.002  0.00  0.00     0.210 HD
ENDBRANCH  14  19
ENDBRANCH   8   9
ENDBRANCH   7   8
ENDBRANCH   6   7
BRANCH   5  21
ATOM     21  O   LIG     1     188.402 185.584 171.499  0.00  0.00    -0.386 OA
ATOM     22  H   LIG     1     187.598 185.962 171.897  0.00  0.00     0.210 HD
ENDBRANCH   5  21
BRANCH   2  23
ATOM     23  O   LIG     1     187.655 182.189 167.215  0.00  0.00    -0.345 OA
BRANCH  23  24
ATOM     24  C   LIG     1     186.520 181.347 167.346  0.00  0.00     0.190 C 
BRANCH  24  25
ATOM     25  C   LIG     1     185.581 181.626 166.217  0.00  0.00     0.001 C 
ATOM     26  C   LIG     1     185.941 182.282 165.103  0.00  0.00     0.006 C 
BRANCH  26  27
ATOM     27  C   LIG     1     185.055 182.567 163.961  0.00  0.00    -0.025 A 
ATOM     28  C   LIG     1     185.591 183.111 162.805  0.00  0.00     0.008 A 
ATOM     29  C   LIG     1     184.751 183.380 161.724  0.00  0.00     0.001 A 
ATOM     30  C   LIG     1     183.387 183.104 161.814  0.00  0.00     0.000 A 
ATOM     31  C   LIG     1     182.862 182.557 162.984  0.00  0.00     0.001 A 
ATOM     32  C   LIG     1     183.701 182.287 164.065  0.00  0.00     0.008 A 
ENDBRANCH  26  27
ENDBRANCH  24  25
ENDBRANCH  23  24
ENDBRANCH   2  23
BRANCH   4  33
ATOM     33  O   LIG     1     190.019 185.888 169.123  0.00  0.00    -0.386 OA
ATOM     34  H   LIG     1     189.396 186.453 168.636  0.00  0.00     0.210 HD
ENDBRANCH   4  33
BRANCH   3  35
ATOM     35  O   LIG     1     190.203 183.334 167.666  0.00  0.00    -0.384 OA
ATOM     36  H   LIG     1     190.646 184.007 167.123  0.00  0.00     0.210 HD
ENDBRANCH   3  35
TORSDOF 13
ENDMDL
MODEL 6
REMARK VINA RESULT:      -7.8      1.421      1.879
REMARK  13 active torsions:
REMARK  status: ('A' for Active; 'I' for Inactive)
REMARK    1  A    between atoms: C_2  and  O_12 
REMARK    2  A    between atoms: C_3  and  O_10 
REMARK    3  A    between atoms: C_4  and  O_8 
REMARK    4  A    between atoms: C_5  and  O_6 
REMARK    5  A    between atoms: C_22  and  C_23 
REMARK    6  A    between atoms: O_12  and  C_13 
REMARK    7  A    between atoms: C_13  and  C_14 
REMARK    8  A    between atoms: C_15  and  C_16 
REMARK    9  A    between atoms: C_23  and  O_24 
REMARK   10  A    between atoms: O_24  and  C_25 
REMARK   11  A    between atoms: C_26  and  O_34 
REMARK   12  A    between atoms: C_27  and  O_32 
REMARK   13  A    between atoms: C_28  and  O_30 
ROOT
ATOM      1  O   LIG     1     183.100 182.062 172.351  0.00  0.00    -0.341 OA
ATOM      2  C   LIG     1     181.888 181.314 172.293  0.00  0.00     0.282 C 
ATOM      3  C   LIG     1     180.793 182.005 173.106  0.00  0.00     0.201 C 
ATOM      4  C   LIG     1     180.613 183.460 172.674  0.00  0.00     0.179 C 
ATOM      5  C   LIG     1     181.955 184.185 172.594  0.00  0.00     0.177 C 
ATOM      6  C   LIG     1     182.967 183.367 171.786  0.00  0.00     0.178 C 
ENDROOT
BRANCH   6   7
ATOM      7  C   LIG     1     184.349 184.015 171.790  0.00  0.00     0.197 C 
BRANCH   7   8
ATOM      8  O   LIG     1     184.548 184.643 173.044  0.00  0.00    -0.346 OA
BRANCH   8   9
ATOM      9  C   LIG     1     185.714 185.460 173.046  0.00  0.00     0.281 C 
ATOM     10  O   LIG     1     186.897 184.708 172.753  0.00  0.00    -0.346 OA
ATOM     11  C   LIG     1     187.240 183.760 173.762  0.00  0.00     0.197 C 
ATOM     12  C   LIG     1     187.500 184.461 175.090  0.00  0.00     0.171 C 
ATOM     13  C   LIG     1     186.276 185.270 175.521  0.00  0.00     0.178 C 
ATOM     14  C   LIG     1     185.832 186.200 174.387  0.00  0.00     0.201 C 
BRANCH  12  15
ATOM     15  O   LIG     1     187.830 183.512 176.094  0.00  0.00    -0.387 OA
ATOM     16  H   LIG     1     186.997 183.180 176.470  0.00  0.00     0.210 HD
ENDBRANCH  12  15
BRANCH  13  17
ATOM     17  O   LIG     1     185.214 184.377 175.851  0.00  0.00    -0.386 OA
ATOM     18  H   LIG     1     185.098 184.404 176.817  0.00  0.00     0.210 HD
ENDBRANCH  13  17
BRANCH  14  19
ATOM     19  O   LIG     1     186.789 187.245 174.231  0.00  0.00    -0.384 OA
ATOM     20  H   LIG     1     186.500 187.820 173.503  0.00  0.00     0.210 HD
ENDBRANCH  14  19
ENDBRANCH   8   9
ENDBRANCH   7   8
ENDBRANCH   6   7
BRANCH   5  21
ATOM     21  O   LIG     1     181.771 185.454 171.972  0.00  0.00    -0.386 OA
ATOM     22  H   LIG     1     182.362 185.498 171.200  0.00  0.00     0.210 HD
ENDBRANCH   5  21
BRANCH   2  23
ATOM     23  O   LIG     1     182.096 180.016 172.846  0.00  0.00    -0.345 OA
BRANCH  23  24
ATOM     24  C   LIG     1     182.971 179.244 172.040  0.00  0.00     0.190 C 
BRANCH  24  25
ATOM     25  C   LIG     1     182.537 177.814 172.091  0.00  0.00     0.001 C 
ATOM     26  C   LIG     1     182.529 177.008 171.018  0.00  0.00     0.006 C 
BRANCH  26  27
ATOM     27  C   LIG     1     182.125 175.591 171.024  0.00  0.00    -0.025 A 
ATOM     28  C   LIG     1     182.831 174.680 170.254  0.00  0.00     0.008 A 
ATOM     29  C   LIG     1     182.448 173.340 170.260  0.00  0.00     0.001 A 
ATOM     30  C   LIG     1     181.363 172.927 171.034  0.00  0.00     0.000 A 
ATOM     31  C   LIG     1     180.662 173.855 171.803  0.00  0.00     0.001 A 
ATOM     32  C   LIG     1     181.045 175.196 171.798  0.00  0.00     0.008 A 
ENDBRANCH  26  27
ENDBRANCH  24  25
ENDBRANCH  23  24
ENDBRANCH   2  23
BRANCH   4  33
ATOM     33  O   LIG     1     179.798 184.142 173.629  0.00  0.00    -0.386 OA
ATOM     34  H   LIG     1     178.874 184.049 173.342  0.00  0.00     0.210 HD
ENDBRANCH   4  33
BRANCH   3  35
ATOM     35  O   LIG     1     179.572 181.295 172.905  0.00  0.00    -0.384 OA
ATOM     36  H   LIG     1     179.789 180.365 172.729  0.00  0.00     0.210 HD
ENDBRANCH   3  35
TORSDOF 13
ENDMDL
MODEL 7
REMARK VINA RESULT:      -7.7      3.618      4.732
REMARK  13 active torsions:
REMARK  status: ('A' for Active; 'I' for Inactive)
REMARK    1  A    between atoms: C_2  and  O_12 
REMARK    2  A    between atoms: C_3  and  O_10 
REMARK    3  A    between atoms: C_4  and  O_8 
REMARK    4  A    between atoms: C_5  and  O_6 
REMARK    5  A    between atoms: C_22  and  C_23 
REMARK    6  A    between atoms: O_12  and  C_13 
REMARK    7  A    between atoms: C_13  and  C_14 
REMARK    8  A    between atoms: C_15  and  C_16 
REMARK    9  A    between atoms: C_23  and  O_24 
REMARK   10  A    between atoms: O_24  and  C_25 
REMARK   11  A    between atoms: C_26  and  O_34 
REMARK   12  A    between atoms: C_27  and  O_32 
REMARK   13  A    between atoms: C_28  and  O_30 
ROOT
ATOM      1  O   LIG     1     181.179 182.409 171.497  0.00  0.00    -0.341 OA
ATOM      2  C   LIG     1     180.531 181.196 171.122  0.00  0.00     0.282 C 
ATOM      3  C   LIG     1     181.506 180.021 171.204  0.00  0.00     0.201 C 
ATOM      4  C   LIG     1     182.164 179.939 172.581  0.00  0.00     0.179 C 
ATOM      5  C   LIG     1     182.706 181.299 173.018  0.00  0.00     0.177 C 
ATOM      6  C   LIG     1     181.644 182.388 172.848  0.00  0.00     0.178 C 
ENDROOT
BRANCH   6   7
ATOM      7  C   LIG     1     182.198 183.773 173.167  0.00  0.00     0.197 C 
BRANCH   7   8
ATOM      8  O   LIG     1     183.602 183.673 173.317  0.00  0.00    -0.346 OA
BRANCH   8   9
ATOM      9  C   LIG     1     184.122 184.714 174.137  0.00  0.00     0.281 C 
ATOM     10  O   LIG     1     185.060 185.535 173.432  0.00  0.00    -0.346 OA
ATOM     11  C   LIG     1     186.263 184.858 173.076  0.00  0.00     0.197 C 
ATOM     12  C   LIG     1     186.987 184.360 174.321  0.00  0.00     0.171 C 
ATOM     13  C   LIG     1     186.082 183.435 175.136  0.00  0.00     0.178 C 
ATOM     14  C   LIG     1     184.739 184.118 175.411  0.00  0.00     0.201 C 
BRANCH  12  15
ATOM     15  O   LIG     1     188.179 183.676 173.961  0.00  0.00    -0.387 OA
ATOM     16  H   LIG     1     188.706 184.276 173.405  0.00  0.00     0.210 HD
ENDBRANCH  12  15
BRANCH  13  17
ATOM     17  O   LIG     1     185.864 182.228 174.408  0.00  0.00    -0.386 OA
ATOM     18  H   LIG     1     186.525 182.192 173.695  0.00  0.00     0.210 HD
ENDBRANCH  13  17
BRANCH  14  19
ATOM     19  O   LIG     1     184.930 185.177 176.346  0.00  0.00    -0.384 OA
ATOM     20  H   LIG     1     184.988 184.795 177.237  0.00  0.00     0.210 HD
ENDBRANCH  14  19
ENDBRANCH   8   9
ENDBRANCH   7   8
ENDBRANCH   6   7
BRANCH   5  21
ATOM     21  O   LIG     1     183.100 181.233 174.386  0.00  0.00    -0.386 OA
ATOM     22  H   LIG     1     182.958 180.321 174.695  0.00  0.00     0.210 HD
ENDBRANCH   5  21
BRANCH   2  23
ATOM     23  O   LIG     1     180.070 181.293 169.776  0.00  0.00    -0.345 OA
BRANCH  23  24
ATOM     24  C   LIG     1     178.708 181.684 169.722  0.00  0.00     0.190 C 
BRANCH  24  25
ATOM     25  C   LIG     1     177.854 180.457 169.701  0.00  0.00     0.001 C 
ATOM     26  C   LIG     1     176.515 180.490 169.780  0.00  0.00     0.006 C 
BRANCH  26  27
ATOM     27  C   LIG     1     175.634 179.310 169.749  0.00  0.00    -0.025 A 
ATOM     28  C   LIG     1     175.107 178.888 168.538  0.00  0.00     0.008 A 
ATOM     29  C   LIG     1     174.273 177.771 168.509  0.00  0.00     0.001 A 
ATOM     30  C   LIG     1     173.975 177.090 169.689  0.00  0.00     0.000 A 
ATOM     31  C   LIG     1     174.512 177.527 170.900  0.00  0.00     0.001 A 
ATOM     32  C   LIG     1     175.347 178.644 170.930  0.00  0.00     0.008 A 
ENDBRANCH  26  27
ENDBRANCH  24  25
ENDBRANCH  23  24
ENDBRANCH   2  23
BRANCH   4  33
ATOM     33  O   LIG     1     183.259 179.022 172.531  0.00  0.00    -0.386 OA
ATOM     34  H   LIG     1     184.055 179.505 172.809  0.00  0.00     0.210 HD
ENDBRANCH   4  33
BRANCH   3  35
ATOM     35  O   LIG     1     180.779 178.818 170.953  0.00  0.00    -0.384 OA
ATOM     36  H   LIG     1     181.381 178.068 171.090  0.00  0.00     0.210 HD
ENDBRANCH   3  35
TORSDOF 13
ENDMDL
MODEL 8
REMARK VINA RESULT:      -7.7      8.011     10.679
REMARK  13 active torsions:
REMARK  status: ('A' for Active; 'I' for Inactive)
REMARK    1  A    between atoms: C_2  and  O_12 
REMARK    2  A    between atoms: C_3  and  O_10 
REMARK    3  A    between atoms: C_4  and  O_8 
REMARK    4  A    between atoms: C_5  and  O_6 
REMARK    5  A    between atoms: C_22  and  C_23 
REMARK    6  A    between atoms: O_12  and  C_13 
REMARK    7  A    between atoms: C_13  and  C_14 
REMARK    8  A    between atoms: C_15  and  C_16 
REMARK    9  A    between atoms: C_23  and  O_24 
REMARK   10  A    between atoms: O_24  and  C_25 
REMARK   11  A    between atoms: C_26  and  O_34 
REMARK   12  A    between atoms: C_27  and  O_32 
REMARK   13  A    between atoms: C_28  and  O_30 
ROOT
ATOM      1  O   LIG     1     185.995 187.875 166.470  0.00  0.00    -0.341 OA
ATOM      2  C   LIG     1     186.623 188.244 165.244  0.00  0.00     0.282 C 
ATOM      3  C   LIG     1     186.649 189.765 165.093  0.00  0.00     0.201 C 
ATOM      4  C   LIG     1     187.287 190.434 166.310  0.00  0.00     0.179 C 
ATOM      5  C   LIG     1     186.696 189.895 167.612  0.00  0.00     0.177 C 
ATOM      6  C   LIG     1     186.696 188.364 167.615  0.00  0.00     0.178 C 
ENDROOT
BRANCH   6   7
ATOM      7  C   LIG     1     186.005 187.801 168.853  0.00  0.00     0.197 C 
BRANCH   7   8
ATOM      8  O   LIG     1     186.994 187.480 169.814  0.00  0.00    -0.346 OA
BRANCH   8   9
ATOM      9  C   LIG     1     186.786 186.188 170.375  0.00  0.00     0.281 C 
ATOM     10  O   LIG     1     185.646 186.156 171.240  0.00  0.00    -0.346 OA
ATOM     11  C   LIG     1     185.801 186.933 172.425  0.00  0.00     0.197 C 
ATOM     12  C   LIG     1     186.974 186.423 173.252  0.00  0.00     0.171 C 
ATOM     13  C   LIG     1     188.265 186.452 172.430  0.00  0.00     0.178 C 
ATOM     14  C   LIG     1     188.059 185.722 171.099  0.00  0.00     0.201 C 
BRANCH  12  15
ATOM     15  O   LIG     1     187.132 187.208 174.425  0.00  0.00    -0.387 OA
ATOM     16  H   LIG     1     187.982 187.676 174.354  0.00  0.00     0.210 HD
ENDBRANCH  12  15
BRANCH  13  17
ATOM     17  O   LIG     1     188.634 187.807 172.180  0.00  0.00    -0.386 OA
ATOM     18  H   LIG     1     189.517 187.945 172.564  0.00  0.00     0.210 HD
ENDBRANCH  13  17
BRANCH  14  19
ATOM     19  O   LIG     1     187.940 184.322 171.341  0.00  0.00    -0.384 OA
ATOM     20  H   LIG     1     188.145 184.153 172.276  0.00  0.00     0.210 HD
ENDBRANCH  14  19
ENDBRANCH   8   9
ENDBRANCH   7   8
ENDBRANCH   6   7
BRANCH   5  21
ATOM     21  O   LIG     1     187.469 190.368 168.712  0.00  0.00    -0.386 OA
ATOM     22  H   LIG     1     187.285 189.794 169.476  0.00  0.00     0.210 HD
ENDBRANCH   5  21
BRANCH   2  23
ATOM     23  O   LIG     1     185.891 187.704 164.146  0.00  0.00    -0.345 OA
BRANCH  23  24
ATOM     24  C   LIG     1     184.641 188.356 163.988  0.00  0.00     0.190 C 
BRANCH  24  25
ATOM     25  C   LIG     1     183.642 187.367 163.479  0.00  0.00     0.001 C 
ATOM     26  C   LIG     1     182.322 187.477 163.690  0.00  0.00     0.006 C 
BRANCH  26  27
ATOM     27  C   LIG     1     181.301 186.537 163.196  0.00  0.00    -0.025 A 
ATOM     28  C   LIG     1     180.064 187.022 162.801  0.00  0.00     0.008 A 
ATOM     29  C   LIG     1     179.099 186.131 162.334  0.00  0.00     0.001 A 
ATOM     30  C   LIG     1     179.381 184.767 162.268  0.00  0.00     0.000 A 
ATOM     31  C   LIG     1     180.630 184.293 162.669  0.00  0.00     0.001 A 
ATOM     32  C   LIG     1     181.596 185.184 163.137  0.00  0.00     0.008 A 
ENDBRANCH  26  27
ENDBRANCH  24  25
ENDBRANCH  23  24
ENDBRANCH   2  23
BRANCH   4  33
ATOM     33  O   LIG     1     187.040 191.841 166.263  0.00  0.00    -0.386 OA
ATOM     34  H   LIG     1     187.789 192.282 166.698  0.00  0.00     0.210 HD
ENDBRANCH   4  33
BRANCH   3  35
ATOM     35  O   LIG     1     187.405 190.085 163.925  0.00  0.00    -0.384 OA
ATOM     36  H   LIG     1     186.788 190.404 163.245  0.00  0.00     0.210 HD
ENDBRANCH   3  35
TORSDOF 13
ENDMDL
MODEL 9
REMARK VINA RESULT:      -7.7      2.302      2.974
REMARK  13 active torsions:
REMARK  status: ('A' for Active; 'I' for Inactive)
REMARK    1  A    between atoms: C_2  and  O_12 
REMARK    2  A    between atoms: C_3  and  O_10 
REMARK    3  A    between atoms: C_4  and  O_8 
REMARK    4  A    between atoms: C_5  and  O_6 
REMARK    5  A    between atoms: C_22  and  C_23 
REMARK    6  A    between atoms: O_12  and  C_13 
REMARK    7  A    between atoms: C_13  and  C_14 
REMARK    8  A    between atoms: C_15  and  C_16 
REMARK    9  A    between atoms: C_23  and  O_24 
REMARK   10  A    between atoms: O_24  and  C_25 
REMARK   11  A    between atoms: C_26  and  O_34 
REMARK   12  A    between atoms: C_27  and  O_32 
REMARK   13  A    between atoms: C_28  and  O_30 
ROOT
ATOM      1  O   LIG     1     182.764 182.460 171.289  0.00  0.00    -0.341 OA
ATOM      2  C   LIG     1     181.442 181.953 171.117  0.00  0.00     0.282 C 
ATOM      3  C   LIG     1     180.623 182.150 172.394  0.00  0.00     0.201 C 
ATOM      4  C   LIG     1     180.644 183.609 172.848  0.00  0.00     0.179 C 
ATOM      5  C   LIG     1     182.067 184.164 172.866  0.00  0.00     0.177 C 
ATOM      6  C   LIG     1     182.783 183.865 171.546  0.00  0.00     0.178 C 
ENDROOT
BRANCH   6   7
ATOM      7  C   LIG     1     184.244 184.306 171.583  0.00  0.00     0.197 C 
BRANCH   7   8
ATOM      8  O   LIG     1     184.570 184.672 172.911  0.00  0.00    -0.346 OA
BRANCH   8   9
ATOM      9  C   LIG     1     185.762 185.448 172.967  0.00  0.00     0.281 C 
ATOM     10  O   LIG     1     186.929 184.659 172.711  0.00  0.00    -0.346 OA
ATOM     11  C   LIG     1     187.201 183.690 173.721  0.00  0.00     0.197 C 
ATOM     12  C   LIG     1     187.433 184.367 175.066  0.00  0.00     0.171 C 
ATOM     13  C   LIG     1     186.222 185.214 175.460  0.00  0.00     0.178 C 
ATOM     14  C   LIG     1     185.854 186.170 174.320  0.00  0.00     0.201 C 
BRANCH  12  15
ATOM     15  O   LIG     1     187.692 183.397 176.071  0.00  0.00    -0.387 OA
ATOM     16  H   LIG     1     187.142 183.620 176.843  0.00  0.00     0.210 HD
ENDBRANCH  12  15
BRANCH  13  17
ATOM     17  O   LIG     1     185.117 184.355 175.739  0.00  0.00    -0.386 OA
ATOM     18  H   LIG     1     185.324 183.481 175.364  0.00  0.00     0.210 HD
ENDBRANCH  13  17
BRANCH  14  19
ATOM     19  O   LIG     1     186.851 187.183 174.213  0.00  0.00    -0.384 OA
ATOM     20  H   LIG     1     187.374 187.017 173.412  0.00  0.00     0.210 HD
ENDBRANCH  14  19
ENDBRANCH   8   9
ENDBRANCH   7   8
ENDBRANCH   6   7
BRANCH   5  21
ATOM     21  O   LIG     1     182.022 185.574 173.068  0.00  0.00    -0.386 OA
ATOM     22  H   LIG     1     181.487 185.963 172.354  0.00  0.00     0.210 HD
ENDBRANCH   5  21
BRANCH   2  23
ATOM     23  O   LIG     1     181.494 180.555 170.839  0.00  0.00    -0.345 OA
BRANCH  23  24
ATOM     24  C   LIG     1     182.405 179.890 171.699  0.00  0.00     0.190 C 
BRANCH  24  25
ATOM     25  C   LIG     1     181.676 178.807 172.428  0.00  0.00     0.001 C 
ATOM     26  C   LIG     1     180.438 178.403 172.101  0.00  0.00     0.006 C 
BRANCH  26  27
ATOM     27  C   LIG     1     179.688 177.332 172.780  0.00  0.00    -0.025 A 
ATOM     28  C   LIG     1     178.306 177.306 172.683  0.00  0.00     0.008 A 
ATOM     29  C   LIG     1     177.596 176.292 173.326  0.00  0.00     0.001 A 
ATOM     30  C   LIG     1     178.277 175.318 174.057  0.00  0.00     0.000 A 
ATOM     31  C   LIG     1     179.668 175.358 174.145  0.00  0.00     0.001 A 
ATOM     32  C   LIG     1     180.378 176.372 173.502  0.00  0.00     0.008 A 
ENDBRANCH  26  27
ENDBRANCH  24  25
ENDBRANCH  23  24
ENDBRANCH   2  23
BRANCH   4  33
ATOM     33  O   LIG     1     180.117 183.702 174.173  0.00  0.00    -0.386 OA
ATOM     34  H   LIG     1     179.844 184.624 174.314  0.00  0.00     0.210 HD
ENDBRANCH   4  33
BRANCH   3  35
ATOM     35  O   LIG     1     179.278 181.755 172.127  0.00  0.00    -0.384 OA
ATOM     36  H   LIG     1     178.689 182.305 172.669  0.00  0.00     0.210 HD
ENDBRANCH   3  35
TORSDOF 13
ENDMDL
MODEL 10
REMARK VINA RESULT:      -7.6      6.881      9.494
REMARK  13 active torsions:
REMARK  status: ('A' for Active; 'I' for Inactive)
REMARK    1  A    between atoms: C_2  and  O_12 
REMARK    2  A    between atoms: C_3  and  O_10 
REMARK    3  A    between atoms: C_4  and  O_8 
REMARK    4  A    between atoms: C_5  and  O_6 
REMARK    5  A    between atoms: C_22  and  C_23 
REMARK    6  A    between atoms: O_12  and  C_13 
REMARK    7  A    between atoms: C_13  and  C_14 
REMARK    8  A    between atoms: C_15  and  C_16 
REMARK    9  A    between atoms: C_23  and  O_24 
REMARK   10  A    between atoms: O_24  and  C_25 
REMARK   11  A    between atoms: C_26  and  O_34 
REMARK   12  A    between atoms: C_27  and  O_32 
REMARK   13  A    between atoms: C_28  and  O_30 
ROOT
ATOM      1  O   LIG     1     184.342 187.389 168.673  0.00  0.00    -0.341 OA
ATOM      2  C   LIG     1     184.971 187.704 167.433  0.00  0.00     0.282 C 
ATOM      3  C   LIG     1     185.722 189.032 167.535  0.00  0.00     0.201 C 
ATOM      4  C   LIG     1     186.698 189.030 168.710  0.00  0.00     0.179 C 
ATOM      5  C   LIG     1     186.025 188.534 169.989  0.00  0.00     0.177 C 
ATOM      6  C   LIG     1     185.280 187.221 169.737  0.00  0.00     0.178 C 
ENDROOT
BRANCH   6   7
ATOM      7  C   LIG     1     184.504 186.766 170.969  0.00  0.00     0.197 C 
BRANCH   7   8
ATOM      8  O   LIG     1     185.411 186.623 172.046  0.00  0.00    -0.346 OA
BRANCH   8   9
ATOM      9  C   LIG     1     185.338 185.327 172.630  0.00  0.00     0.281 C 
ATOM     10  O   LIG     1     184.316 185.245 173.630  0.00  0.00    -0.346 OA
ATOM     11  C   LIG     1     184.579 186.038 174.786  0.00  0.00     0.197 C 
ATOM     12  C   LIG     1     185.870 185.592 175.461  0.00  0.00     0.171 C 
ATOM     13  C   LIG     1     187.045 185.676 174.486  0.00  0.00     0.178 C 
ATOM     14  C   LIG     1     186.711 184.927 173.191  0.00  0.00     0.201 C 
BRANCH  12  15
ATOM     15  O   LIG     1     186.133 186.392 176.605  0.00  0.00    -0.387 OA
ATOM     16  H   LIG     1     186.772 185.912 177.159  0.00  0.00     0.210 HD
ENDBRANCH  12  15
BRANCH  13  17
ATOM     17  O   LIG     1     187.314 187.045 174.189  0.00  0.00    -0.386 OA
ATOM     18  H   LIG     1     187.303 187.143 173.222  0.00  0.00     0.210 HD
ENDBRANCH  13  17
BRANCH  14  19
ATOM     19  O   LIG     1     186.691 183.525 173.448  0.00  0.00    -0.384 OA
ATOM     20  H   LIG     1     185.775 183.211 173.370  0.00  0.00     0.210 HD
ENDBRANCH  14  19
ENDBRANCH   8   9
ENDBRANCH   7   8
ENDBRANCH   6   7
BRANCH   5  21
ATOM     21  O   LIG     1     187.014 188.330 170.994  0.00  0.00    -0.386 OA
ATOM     22  H   LIG     1     187.786 187.911 170.575  0.00  0.00     0.210 HD
ENDBRANCH   5  21
BRANCH   2  23
ATOM     23  O   LIG     1     183.984 187.832 166.411  0.00  0.00    -0.345 OA
BRANCH  23  24
ATOM     24  C   LIG     1     184.275 186.995 165.303  0.00  0.00     0.190 C 
BRANCH  24  25
ATOM     25  C   LIG     1     183.003 186.378 164.819  0.00  0.00     0.001 C 
ATOM     26  C   LIG     1     182.439 186.681 163.639  0.00  0.00     0.006 C 
BRANCH  26  27
ATOM     27  C   LIG     1     181.196 186.088 163.115  0.00  0.00    -0.025 A 
ATOM     28  C   LIG     1     180.145 186.919 162.759  0.00  0.00     0.008 A 
ATOM     29  C   LIG     1     178.969 186.357 162.263  0.00  0.00     0.001 A 
ATOM     30  C   LIG     1     178.858 184.973 162.130  0.00  0.00     0.000 A 
ATOM     31  C   LIG     1     179.924 184.150 162.492  0.00  0.00     0.001 A 
ATOM     32  C   LIG     1     181.101 184.712 162.989  0.00  0.00     0.008 A 
ENDBRANCH  26  27
ENDBRANCH  24  25
ENDBRANCH  23  24
ENDBRANCH   2  23
BRANCH   4  33
ATOM     33  O   LIG     1     187.164 190.361 168.943  0.00  0.00    -0.386 OA
ATOM     34  H   LIG     1     186.398 190.954 168.868  0.00  0.00     0.210 HD
ENDBRANCH   4  33
BRANCH   3  35
ATOM     35  O   LIG     1     186.442 189.232 166.319  0.00  0.00    -0.384 OA
ATOM     36  H   LIG     1     186.181 188.535 165.695  0.00  0.00     0.210 HD
ENDBRANCH   3  35
TORSDOF 13
ENDMDL
