MODEL 1
REMARK VINA RESULT:      -8.4      0.000      0.000
REMARK  11 active torsions:
REMARK  status: ('A' for Active; 'I' for Inactive)
REMARK    1  A    between atoms: O_1  and  C_9 
REMARK    2  A    between atoms: O_2  and  C_19 
REMARK    3  A    between atoms: O_3  and  C_26 
REMARK    4  A    between atoms: O_4  and  C_27 
REMARK    5  A    between atoms: O_6  and  C_28 
REMARK    6  A    between atoms: O_7  and  C_32 
REMARK    7  A    between atoms: C_10  and  C_19 
REMARK    8  A    between atoms: C_19  and  C_27 
REMARK    9  A    between atoms: C_27  and  C_30 
REMARK   10  A    between atoms: C_30  and  C_31 
REMARK   11  A    between atoms: C_31  and  C_32 
ROOT
HETATM    1  O   UNK     0       7.756  42.271  22.086  0.00  0.00    -0.384 OA
HETATM    2  H   UNK     0       8.725  42.329  22.154  0.00  0.00     0.211 HD
ENDROOT
BRANCH   1   3
HETATM    3  C   UNK     0       7.226  43.614  22.163  0.00  0.00     0.089 C 
HETATM    4  C   UNK     0       7.173  44.228  20.740  0.00  0.00    -0.002 C 
HETATM    5  C   UNK     0       8.683  44.281  20.391  0.00  0.00     0.034 C 
HETATM    6  C   UNK     0       6.356  43.291  19.832  0.00  0.00     0.014 C 
HETATM    7  C   UNK     0       6.550  45.650  20.718  0.00  0.00     0.019 C 
HETATM    8  C   UNK     0       9.350  44.719  21.715  0.00  0.00     0.012 C 
HETATM    9  C   UNK     0       8.324  44.451  22.837  0.00  0.00     0.044 C 
HETATM   10  C   UNK     0       4.930  43.103  20.374  0.00  0.00     0.011 C 
HETATM   11  C   UNK     0       4.840  42.713  21.882  0.00  0.00     0.027 C 
HETATM   12  C   UNK     0       3.360  42.771  22.431  0.00  0.00    -0.023 C 
HETATM   13  C   UNK     0       5.844  43.472  22.763  0.00  0.00    -0.037 C 
HETATM   14  C   UNK     0       3.355  42.570  23.972  0.00  0.00     0.071 C 
HETATM   15  C   UNK     0       2.467  41.673  21.787  0.00  0.00     0.044 C 
HETATM   16  C   UNK     0       2.690  44.138  22.122  0.00  0.00     0.016 C 
HETATM   17  C   UNK     0       3.720  41.140  24.406  0.00  0.00     0.047 C 
HETATM   18  C   UNK     0       4.281  43.558  24.657  0.00  0.00     0.154 C 
HETATM   19  C   UNK     0       2.816  40.100  23.746  0.00  0.00     0.147 C 
HETATM   20  C   UNK     0       2.832  40.250  22.224  0.00  0.00     0.147 C 
HETATM   21  O   UNK     0       4.021  44.026  25.764  0.00  0.00    -0.293 OA
HETATM   22  C   UNK     0       5.566  43.896  24.005  0.00  0.00     0.057 C 
BRANCH   5  23
HETATM   23  C   UNK     0       9.078  45.161  19.211  0.00  0.00     0.084 C 
HETATM   24  C   UNK     0       8.194  44.832  17.997  0.00  0.00     0.049 C 
BRANCH  23  25
HETATM   25  O   UNK     0       8.832  46.529  19.563  0.00  0.00    -0.387 OA
HETATM   26  H   UNK     0       7.911  46.616  19.859  0.00  0.00     0.210 HD
ENDBRANCH  23  25
BRANCH  23  27
HETATM   27  C   UNK     0      10.582  45.017  18.850  0.00  0.00     0.152 C 
BRANCH  27  28
HETATM   28  O   UNK     0      10.801  45.485  17.516  0.00  0.00    -0.393 OA
HETATM   29  H   UNK     0      10.813  44.705  16.933  0.00  0.00     0.210 HD
ENDBRANCH  27  28
BRANCH  27  30
HETATM   30  C   UNK     0      11.123  43.578  18.955  0.00  0.00     0.037 C 
BRANCH  30  31
HETATM   31  C   UNK     0      12.640  43.550  19.219  0.00  0.00     0.040 C 
BRANCH  31  32
HETATM   32  C   UNK     0      13.066  42.666  20.410  0.00  0.00     0.051 C 
HETATM   33  C   UNK     0      14.560  42.344  20.300  0.00  0.00     0.045 C 
HETATM   34  C   UNK     0      12.772  43.321  21.761  0.00  0.00     0.045 C 
BRANCH  32  35
HETATM   35  O   UNK     0      12.345  41.434  20.336  0.00  0.00    -0.391 OA
HETATM   36  H   UNK     0      12.703  40.923  19.591  0.00  0.00     0.210 HD
ENDBRANCH  32  35
ENDBRANCH  31  32
ENDBRANCH  30  31
ENDBRANCH  27  30
ENDBRANCH  23  27
ENDBRANCH   5  23
BRANCH  19  37
HETATM   37  O   UNK     0       1.480  40.271  24.222  0.00  0.00    -0.393 OA
HETATM   38  H   UNK     0       1.169  39.407  24.541  0.00  0.00     0.210 HD
ENDBRANCH  19  37
BRANCH  20  39
HETATM   39  O   UNK     0       1.908  39.324  21.657  0.00  0.00    -0.393 OA
HETATM   40  H   UNK     0       1.221  39.151  22.324  0.00  0.00     0.210 HD
ENDBRANCH  20  39
ENDBRANCH   1   3
TORSDOF 11
ENDMDL
MODEL 2
REMARK VINA RESULT:      -8.4      1.808      8.754
REMARK  11 active torsions:
REMARK  status: ('A' for Active; 'I' for Inactive)
REMARK    1  A    between atoms: O_1  and  C_9 
REMARK    2  A    between atoms: O_2  and  C_19 
REMARK    3  A    between atoms: O_3  and  C_26 
REMARK    4  A    between atoms: O_4  and  C_27 
REMARK    5  A    between atoms: O_6  and  C_28 
REMARK    6  A    between atoms: O_7  and  C_32 
REMARK    7  A    between atoms: C_10  and  C_19 
REMARK    8  A    between atoms: C_19  and  C_27 
REMARK    9  A    between atoms: C_27  and  C_30 
REMARK   10  A    between atoms: C_30  and  C_31 
REMARK   11  A    between atoms: C_31  and  C_32 
ROOT
HETATM    1  O   UNK     0       5.021  42.466  20.349  0.00  0.00    -0.384 OA
HETATM    2  H   UNK     0       4.229  42.556  19.790  0.00  0.00     0.211 HD
ENDROOT
BRANCH   1   3
HETATM    3  C   UNK     0       4.995  43.531  21.327  0.00  0.00     0.089 C 
HETATM    4  C   UNK     0       5.197  42.933  22.743  0.00  0.00    -0.002 C 
HETATM    5  C   UNK     0       3.917  42.069  22.878  0.00  0.00     0.034 C 
HETATM    6  C   UNK     0       6.502  42.118  22.750  0.00  0.00     0.014 C 
HETATM    7  C   UNK     0       5.252  44.017  23.854  0.00  0.00     0.019 C 
HETATM    8  C   UNK     0       2.814  42.944  22.239  0.00  0.00     0.012 C 
HETATM    9  C   UNK     0       3.535  44.006  21.379  0.00  0.00     0.044 C 
HETATM   10  C   UNK     0       7.705  43.000  22.378  0.00  0.00     0.011 C 
HETATM   11  C   UNK     0       7.529  43.849  21.081  0.00  0.00     0.027 C 
HETATM   12  C   UNK     0       8.690  44.902  20.890  0.00  0.00    -0.023 C 
HETATM   13  C   UNK     0       6.127  44.461  20.946  0.00  0.00    -0.037 C 
HETATM   14  C   UNK     0       8.362  45.847  19.700  0.00  0.00     0.071 C 
HETATM   15  C   UNK     0      10.053  44.208  20.606  0.00  0.00     0.044 C 
HETATM   16  C   UNK     0       8.883  45.777  22.159  0.00  0.00     0.016 C 
HETATM   17  C   UNK     0       8.432  45.154  18.327  0.00  0.00     0.047 C 
HETATM   18  C   UNK     0       6.999  46.491  19.871  0.00  0.00     0.154 C 
HETATM   19  C   UNK     0       9.788  44.487  18.100  0.00  0.00     0.147 C 
HETATM   20  C   UNK     0      10.120  43.521  19.238  0.00  0.00     0.147 C 
HETATM   21  O   UNK     0       6.774  47.638  19.488  0.00  0.00    -0.293 OA
HETATM   22  C   UNK     0       5.898  45.683  20.440  0.00  0.00     0.057 C 
BRANCH   5  23
HETATM   23  C   UNK     0       3.557  41.599  24.282  0.00  0.00     0.084 C 
HETATM   24  C   UNK     0       4.695  40.733  24.849  0.00  0.00     0.049 C 
BRANCH  23  25
HETATM   25  O   UNK     0       3.433  42.750  25.128  0.00  0.00    -0.387 OA
HETATM   26  H   UNK     0       3.946  43.480  24.744  0.00  0.00     0.210 HD
ENDBRANCH  23  25
BRANCH  23  27
HETATM   27  C   UNK     0       2.211  40.826  24.316  0.00  0.00     0.152 C 
BRANCH  27  28
HETATM   28  O   UNK     0       1.932  40.406  25.655  0.00  0.00    -0.393 OA
HETATM   29  H   UNK     0       1.523  41.160  26.117  0.00  0.00     0.210 HD
ENDBRANCH  27  28
BRANCH  27  30
HETATM   30  C   UNK     0       2.170  39.586  23.402  0.00  0.00     0.037 C 
BRANCH  30  31
HETATM   31  C   UNK     0       1.646  38.341  24.141  0.00  0.00     0.040 C 
BRANCH  31  32
HETATM   32  C   UNK     0       0.523  37.584  23.402  0.00  0.00     0.051 C 
HETATM   33  C   UNK     0       0.862  37.491  21.910  0.00  0.00     0.045 C 
HETATM   34  C   UNK     0       0.286  36.183  23.971  0.00  0.00     0.045 C 
BRANCH  32  35
HETATM   35  O   UNK     0      -0.686  38.336  23.530  0.00  0.00    -0.391 OA
HETATM   36  H   UNK     0      -1.422  37.706  23.616  0.00  0.00     0.210 HD
ENDBRANCH  32  35
ENDBRANCH  31  32
ENDBRANCH  30  31
ENDBRANCH  27  30
ENDBRANCH  23  27
ENDBRANCH   5  23
BRANCH  19  37
HETATM   37  O   UNK     0      10.799  45.494  18.026  0.00  0.00    -0.393 OA
HETATM   38  H   UNK     0      11.603  45.078  17.672  0.00  0.00     0.210 HD
ENDBRANCH  19  37
BRANCH  20  39
HETATM   39  O   UNK     0      11.428  42.994  19.031  0.00  0.00    -0.393 OA
HETATM   40  H   UNK     0      11.766  43.365  18.198  0.00  0.00     0.210 HD
ENDBRANCH  20  39
ENDBRANCH   1   3
TORSDOF 11
ENDMDL
MODEL 3
REMARK VINA RESULT:      -8.2      2.430      7.476
REMARK  11 active torsions:
REMARK  status: ('A' for Active; 'I' for Inactive)
REMARK    1  A    between atoms: O_1  and  C_9 
REMARK    2  A    between atoms: O_2  and  C_19 
REMARK    3  A    between atoms: O_3  and  C_26 
REMARK    4  A    between atoms: O_4  and  C_27 
REMARK    5  A    between atoms: O_6  and  C_28 
REMARK    6  A    between atoms: O_7  and  C_32 
REMARK    7  A    between atoms: C_10  and  C_19 
REMARK    8  A    between atoms: C_19  and  C_27 
REMARK    9  A    between atoms: C_27  and  C_30 
REMARK   10  A    between atoms: C_30  and  C_31 
REMARK   11  A    between atoms: C_31  and  C_32 
ROOT
HETATM    1  O   UNK     0       9.607  43.924  19.234  0.00  0.00    -0.384 OA
HETATM    2  H   UNK     0      10.445  44.362  19.004  0.00  0.00     0.211 HD
ENDROOT
BRANCH   1   3
HETATM    3  C   UNK     0       9.079  44.569  20.415  0.00  0.00     0.089 C 
HETATM    4  C   UNK     0       7.604  44.138  20.621  0.00  0.00    -0.002 C 
HETATM    5  C   UNK     0       6.946  44.744  19.356  0.00  0.00     0.034 C 
HETATM    6  C   UNK     0       7.546  42.600  20.677  0.00  0.00     0.014 C 
HETATM    7  C   UNK     0       6.975  44.732  21.910  0.00  0.00     0.019 C 
HETATM    8  C   UNK     0       7.642  46.116  19.201  0.00  0.00     0.012 C 
HETATM    9  C   UNK     0       8.935  46.053  20.043  0.00  0.00     0.044 C 
HETATM   10  C   UNK     0       8.415  42.058  21.824  0.00  0.00     0.011 C 
HETATM   11  C   UNK     0       9.874  42.610  21.869  0.00  0.00     0.027 C 
HETATM   12  C   UNK     0      10.630  42.203  23.195  0.00  0.00    -0.023 C 
HETATM   13  C   UNK     0       9.961  44.112  21.557  0.00  0.00    -0.037 C 
HETATM   14  C   UNK     0      11.996  42.940  23.277  0.00  0.00     0.071 C 
HETATM   15  C   UNK     0      10.891  40.671  23.258  0.00  0.00     0.044 C 
HETATM   16  C   UNK     0       9.806  42.575  24.458  0.00  0.00     0.016 C 
HETATM   17  C   UNK     0      13.025  42.443  22.247  0.00  0.00     0.047 C 
HETATM   18  C   UNK     0      11.819  44.440  23.131  0.00  0.00     0.154 C 
HETATM   19  C   UNK     0      13.244  40.934  22.350  0.00  0.00     0.147 C 
HETATM   20  C   UNK     0      11.919  40.180  22.233  0.00  0.00     0.147 C 
HETATM   21  O   UNK     0      12.535  45.237  23.736  0.00  0.00    -0.293 OA
HETATM   22  C   UNK     0      10.814  44.947  22.170  0.00  0.00     0.057 C 
BRANCH   5  23
HETATM   23  C   UNK     0       5.426  44.851  19.364  0.00  0.00     0.084 C 
HETATM   24  C   UNK     0       4.981  45.883  20.414  0.00  0.00     0.049 C 
BRANCH  23  25
HETATM   25  O   UNK     0       4.999  45.333  18.083  0.00  0.00    -0.387 OA
HETATM   26  H   UNK     0       5.720  45.847  17.683  0.00  0.00     0.210 HD
ENDBRANCH  23  25
BRANCH  23  27
HETATM   27  C   UNK     0       4.742  43.480  19.617  0.00  0.00     0.152 C 
BRANCH  27  28
HETATM   28  O   UNK     0       4.013  43.085  18.451  0.00  0.00    -0.393 OA
HETATM   29  H   UNK     0       4.528  42.385  18.010  0.00  0.00     0.210 HD
ENDBRANCH  27  28
BRANCH  27  30
HETATM   30  C   UNK     0       3.777  43.467  20.819  0.00  0.00     0.037 C 
BRANCH  30  31
HETATM   31  C   UNK     0       2.817  42.263  20.775  0.00  0.00     0.040 C 
BRANCH  31  32
HETATM   32  C   UNK     0       2.262  41.838  22.151  0.00  0.00     0.051 C 
HETATM   33  C   UNK     0       2.250  40.309  22.248  0.00  0.00     0.045 C 
HETATM   34  C   UNK     0       3.061  42.428  23.314  0.00  0.00     0.045 C 
BRANCH  32  35
HETATM   35  O   UNK     0       0.911  42.295  22.251  0.00  0.00    -0.391 OA
HETATM   36  H   UNK     0       0.664  42.686  21.396  0.00  0.00     0.210 HD
ENDBRANCH  32  35
ENDBRANCH  31  32
ENDBRANCH  30  31
ENDBRANCH  27  30
ENDBRANCH  23  27
ENDBRANCH   5  23
BRANCH  19  37
HETATM   37  O   UNK     0      13.848  40.633  23.609  0.00  0.00    -0.393 OA
HETATM   38  H   UNK     0      13.493  39.780  23.908  0.00  0.00     0.210 HD
ENDBRANCH  19  37
BRANCH  20  39
HETATM   39  O   UNK     0      12.159  38.788  22.426  0.00  0.00    -0.393 OA
HETATM   40  H   UNK     0      11.417  38.433  22.946  0.00  0.00     0.210 HD
ENDBRANCH  20  39
ENDBRANCH   1   3
TORSDOF 11
ENDMDL
MODEL 4
REMARK VINA RESULT:      -8.0      3.909      9.140
REMARK  11 active torsions:
REMARK  status: ('A' for Active; 'I' for Inactive)
REMARK    1  A    between atoms: O_1  and  C_9 
REMARK    2  A    between atoms: O_2  and  C_19 
REMARK    3  A    between atoms: O_3  and  C_26 
REMARK    4  A    between atoms: O_4  and  C_27 
REMARK    5  A    between atoms: O_6  and  C_28 
REMARK    6  A    between atoms: O_7  and  C_32 
REMARK    7  A    between atoms: C_10  and  C_19 
REMARK    8  A    between atoms: C_19  and  C_27 
REMARK    9  A    between atoms: C_27  and  C_30 
REMARK   10  A    between atoms: C_30  and  C_31 
REMARK   11  A    between atoms: C_31  and  C_32 
ROOT
HETATM    1  O   UNK     0       7.367  43.433  25.436  0.00  0.00    -0.384 OA
HETATM    2  H   UNK     0       7.531  43.510  26.392  0.00  0.00     0.211 HD
ENDROOT
BRANCH   1   3
HETATM    3  C   UNK     0       6.430  42.352  25.233  0.00  0.00     0.089 C 
HETATM    4  C   UNK     0       5.262  42.486  26.244  0.00  0.00    -0.002 C 
HETATM    5  C   UNK     0       6.015  42.281  27.584  0.00  0.00     0.034 C 
HETATM    6  C   UNK     0       4.637  43.885  26.089  0.00  0.00     0.014 C 
HETATM    7  C   UNK     0       4.168  41.401  26.053  0.00  0.00     0.019 C 
HETATM    8  C   UNK     0       7.025  41.154  27.269  0.00  0.00     0.012 C 
HETATM    9  C   UNK     0       7.146  41.087  25.730  0.00  0.00     0.044 C 
HETATM   10  C   UNK     0       4.117  44.100  24.658  0.00  0.00     0.011 C 
HETATM   11  C   UNK     0       5.135  43.763  23.525  0.00  0.00     0.027 C 
HETATM   12  C   UNK     0       4.467  43.774  22.094  0.00  0.00    -0.023 C 
HETATM   13  C   UNK     0       5.950  42.491  23.804  0.00  0.00    -0.037 C 
HETATM   14  C   UNK     0       5.471  43.241  21.033  0.00  0.00     0.071 C 
HETATM   15  C   UNK     0       4.026  45.207  21.679  0.00  0.00     0.044 C 
HETATM   16  C   UNK     0       3.199  42.879  22.049  0.00  0.00     0.016 C 
HETATM   17  C   UNK     0       6.645  44.198  20.762  0.00  0.00     0.047 C 
HETATM   18  C   UNK     0       6.010  41.879  21.425  0.00  0.00     0.154 C 
HETATM   19  C   UNK     0       6.158  45.590  20.360  0.00  0.00     0.147 C 
HETATM   20  C   UNK     0       5.198  46.156  21.407  0.00  0.00     0.147 C 
HETATM   21  O   UNK     0       6.273  41.021  20.583  0.00  0.00    -0.293 OA
HETATM   22  C   UNK     0       6.303  41.613  22.851  0.00  0.00     0.057 C 
BRANCH   5  23
HETATM   23  C   UNK     0       5.157  41.980  28.807  0.00  0.00     0.084 C 
HETATM   24  C   UNK     0       5.199  40.474  29.115  0.00  0.00     0.049 C 
BRANCH  23  25
HETATM   25  O   UNK     0       5.721  42.663  29.935  0.00  0.00    -0.387 OA
HETATM   26  H   UNK     0       5.016  43.146  30.396  0.00  0.00     0.210 HD
ENDBRANCH  23  25
BRANCH  23  27
HETATM   27  C   UNK     0       3.692  42.464  28.631  0.00  0.00     0.152 C 
BRANCH  27  28
HETATM   28  O   UNK     0       3.513  43.709  29.314  0.00  0.00    -0.393 OA
HETATM   29  H   UNK     0       2.578  43.763  29.580  0.00  0.00     0.210 HD
ENDBRANCH  27  28
BRANCH  27  30
HETATM   30  C   UNK     0       2.632  41.472  29.147  0.00  0.00     0.037 C 
BRANCH  30  31
HETATM   31  C   UNK     0       1.941  41.979  30.427  0.00  0.00     0.040 C 
BRANCH  31  32
HETATM   32  C   UNK     0       2.505  41.389  31.736  0.00  0.00     0.051 C 
HETATM   33  C   UNK     0       1.549  41.701  32.893  0.00  0.00     0.045 C 
HETATM   34  C   UNK     0       2.740  39.880  31.647  0.00  0.00     0.045 C 
BRANCH  32  35
HETATM   35  O   UNK     0       3.753  42.026  32.015  0.00  0.00    -0.391 OA
HETATM   36  H   UNK     0       3.565  42.922  32.341  0.00  0.00     0.210 HD
ENDBRANCH  32  35
ENDBRANCH  31  32
ENDBRANCH  30  31
ENDBRANCH  27  30
ENDBRANCH  23  27
ENDBRANCH   5  23
BRANCH  19  37
HETATM   37  O   UNK     0       5.488  45.507  19.101  0.00  0.00    -0.393 OA
HETATM   38  H   UNK     0       6.127  45.752  18.412  0.00  0.00     0.210 HD
ENDBRANCH  19  37
BRANCH  20  39
HETATM   39  O   UNK     0       4.700  47.411  20.948  0.00  0.00    -0.393 OA
HETATM   40  H   UNK     0       5.011  47.533  20.035  0.00  0.00     0.210 HD
ENDBRANCH  20  39
ENDBRANCH   1   3
TORSDOF 11
ENDMDL
MODEL 5
REMARK VINA RESULT:      -8.0      2.249      8.050
REMARK  11 active torsions:
REMARK  status: ('A' for Active; 'I' for Inactive)
REMARK    1  A    between atoms: O_1  and  C_9 
REMARK    2  A    between atoms: O_2  and  C_19 
REMARK    3  A    between atoms: O_3  and  C_26 
REMARK    4  A    between atoms: O_4  and  C_27 
REMARK    5  A    between atoms: O_6  and  C_28 
REMARK    6  A    between atoms: O_7  and  C_32 
REMARK    7  A    between atoms: C_10  and  C_19 
REMARK    8  A    between atoms: C_19  and  C_27 
REMARK    9  A    between atoms: C_27  and  C_30 
REMARK   10  A    between atoms: C_30  and  C_31 
REMARK   11  A    between atoms: C_31  and  C_32 
ROOT
HETATM    1  O   UNK     0       7.127  42.220  23.086  0.00  0.00    -0.384 OA
HETATM    2  H   UNK     0       7.309  43.054  23.553  0.00  0.00     0.211 HD
ENDROOT
BRANCH   1   3
HETATM    3  C   UNK     0       7.159  42.492  21.667  0.00  0.00     0.089 C 
HETATM    4  C   UNK     0       6.015  43.475  21.305  0.00  0.00    -0.002 C 
HETATM    5  C   UNK     0       4.774  42.611  21.644  0.00  0.00     0.034 C 
HETATM    6  C   UNK     0       6.155  44.734  22.180  0.00  0.00     0.014 C 
HETATM    7  C   UNK     0       6.016  43.879  19.806  0.00  0.00     0.019 C 
HETATM    8  C   UNK     0       5.161  41.199  21.146  0.00  0.00     0.012 C 
HETATM    9  C   UNK     0       6.698  41.193  20.988  0.00  0.00     0.044 C 
HETATM   10  C   UNK     0       7.517  45.411  21.957  0.00  0.00     0.011 C 
HETATM   11  C   UNK     0       8.753  44.465  22.057  0.00  0.00     0.027 C 
HETATM   12  C   UNK     0      10.087  45.166  21.584  0.00  0.00    -0.023 C 
HETATM   13  C   UNK     0       8.521  43.096  21.398  0.00  0.00    -0.037 C 
HETATM   14  C   UNK     0      11.240  44.126  21.516  0.00  0.00     0.071 C 
HETATM   15  C   UNK     0      10.509  46.307  22.553  0.00  0.00     0.044 C 
HETATM   16  C   UNK     0       9.929  45.803  20.177  0.00  0.00     0.016 C 
HETATM   17  C   UNK     0      11.703  43.629  22.897  0.00  0.00     0.047 C 
HETATM   18  C   UNK     0      10.857  42.938  20.653  0.00  0.00     0.154 C 
HETATM   19  C   UNK     0      12.103  44.787  23.809  0.00  0.00     0.147 C 
HETATM   20  C   UNK     0      10.971  45.808  23.927  0.00  0.00     0.147 C 
HETATM   21  O   UNK     0      11.685  42.350  19.959  0.00  0.00    -0.293 OA
HETATM   22  C   UNK     0       9.468  42.431  20.720  0.00  0.00     0.057 C 
BRANCH   5  23
HETATM   23  C   UNK     0       3.439  43.088  21.084  0.00  0.00     0.084 C 
HETATM   24  C   UNK     0       3.149  44.516  21.575  0.00  0.00     0.049 C 
BRANCH  23  25
HETATM   25  O   UNK     0       3.538  43.138  19.655  0.00  0.00    -0.387 OA
HETATM   26  H   UNK     0       3.070  42.374  19.280  0.00  0.00     0.210 HD
ENDBRANCH  23  25
BRANCH  23  27
HETATM   27  C   UNK     0       2.272  42.132  21.455  0.00  0.00     0.152 C 
BRANCH  27  28
HETATM   28  O   UNK     0       1.115  42.465  20.681  0.00  0.00    -0.393 OA
HETATM   29  H   UNK     0       0.774  41.638  20.297  0.00  0.00     0.210 HD
ENDBRANCH  27  28
BRANCH  27  30
HETATM   30  C   UNK     0       1.881  42.160  22.946  0.00  0.00     0.037 C 
BRANCH  30  31
HETATM   31  C   UNK     0       2.376  40.908  23.695  0.00  0.00     0.040 C 
BRANCH  31  32
HETATM   32  C   UNK     0       3.273  41.205  24.915  0.00  0.00     0.051 C 
HETATM   33  C   UNK     0       3.562  42.709  24.984  0.00  0.00     0.045 C 
HETATM   34  C   UNK     0       2.650  40.733  26.230  0.00  0.00     0.045 C 
BRANCH  32  35
HETATM   35  O   UNK     0       4.518  40.527  24.733  0.00  0.00    -0.391 OA
HETATM   36  H   UNK     0       5.157  40.904  25.360  0.00  0.00     0.210 HD
ENDBRANCH  32  35
ENDBRANCH  31  32
ENDBRANCH  30  31
ENDBRANCH  27  30
ENDBRANCH  23  27
ENDBRANCH   5  23
BRANCH  19  37
HETATM   37  O   UNK     0      13.262  45.427  23.272  0.00  0.00    -0.393 OA
HETATM   38  H   UNK     0      13.954  45.402  23.954  0.00  0.00     0.210 HD
ENDBRANCH  19  37
BRANCH  20  39
HETATM   39  O   UNK     0      11.421  46.911  24.710  0.00  0.00    -0.393 OA
HETATM   40  H   UNK     0      11.522  47.672  24.113  0.00  0.00     0.210 HD
ENDBRANCH  20  39
ENDBRANCH   1   3
TORSDOF 11
ENDMDL
MODEL 6
REMARK VINA RESULT:      -7.9      2.136      3.989
REMARK  11 active torsions:
REMARK  status: ('A' for Active; 'I' for Inactive)
REMARK    1  A    between atoms: O_1  and  C_9 
REMARK    2  A    between atoms: O_2  and  C_19 
REMARK    3  A    between atoms: O_3  and  C_26 
REMARK    4  A    between atoms: O_4  and  C_27 
REMARK    5  A    between atoms: O_6  and  C_28 
REMARK    6  A    between atoms: O_7  and  C_32 
REMARK    7  A    between atoms: C_10  and  C_19 
REMARK    8  A    between atoms: C_19  and  C_27 
REMARK    9  A    between atoms: C_27  and  C_30 
REMARK   10  A    between atoms: C_30  and  C_31 
REMARK   11  A    between atoms: C_31  and  C_32 
ROOT
HETATM    1  O   UNK     0       8.404  44.297  23.570  0.00  0.00    -0.384 OA
HETATM    2  H   UNK     0       8.153  45.167  23.927  0.00  0.00     0.211 HD
ENDROOT
BRANCH   1   3
HETATM    3  C   UNK     0       8.742  44.474  22.175  0.00  0.00     0.089 C 
HETATM    4  C   UNK     0       9.606  43.277  21.699  0.00  0.00    -0.002 C 
HETATM    5  C   UNK     0      10.872  43.469  22.572  0.00  0.00     0.034 C 
HETATM    6  C   UNK     0       8.840  41.974  21.990  0.00  0.00     0.014 C 
HETATM    7  C   UNK     0       9.959  43.349  20.189  0.00  0.00     0.019 C 
HETATM    8  C   UNK     0      11.086  45.000  22.578  0.00  0.00     0.012 C 
HETATM    9  C   UNK     0       9.748  45.635  22.139  0.00  0.00     0.044 C 
HETATM   10  C   UNK     0       7.482  41.959  21.269  0.00  0.00     0.011 C 
HETATM   11  C   UNK     0       6.607  43.234  21.476  0.00  0.00     0.027 C 
HETATM   12  C   UNK     0       5.347  43.259  20.526  0.00  0.00    -0.023 C 
HETATM   13  C   UNK     0       7.420  44.537  21.440  0.00  0.00    -0.037 C 
HETATM   14  C   UNK     0       4.626  44.632  20.632  0.00  0.00     0.071 C 
HETATM   15  C   UNK     0       4.331  42.140  20.892  0.00  0.00     0.044 C 
HETATM   16  C   UNK     0       5.747  43.039  19.041  0.00  0.00     0.016 C 
HETATM   17  C   UNK     0       3.919  44.853  21.980  0.00  0.00     0.047 C 
HETATM   18  C   UNK     0       5.587  45.777  20.373  0.00  0.00     0.154 C 
HETATM   19  C   UNK     0       2.935  43.726  22.293  0.00  0.00     0.147 C 
HETATM   20  C   UNK     0       3.626  42.364  22.234  0.00  0.00     0.147 C 
HETATM   21  O   UNK     0       5.227  46.807  19.805  0.00  0.00    -0.293 OA
HETATM   22  C   UNK     0       6.969  45.676  20.893  0.00  0.00     0.057 C 
BRANCH   5  23
HETATM   23  C   UNK     0      12.117  42.701  22.145  0.00  0.00     0.084 C 
HETATM   24  C   UNK     0      12.865  42.189  23.387  0.00  0.00     0.049 C 
BRANCH  23  25
HETATM   25  O   UNK     0      11.704  41.553  21.391  0.00  0.00    -0.387 OA
HETATM   26  H   UNK     0      11.204  41.851  20.613  0.00  0.00     0.210 HD
ENDBRANCH  23  25
BRANCH  23  27
HETATM   27  C   UNK     0      13.057  43.555  21.251  0.00  0.00     0.152 C 
BRANCH  27  28
HETATM   28  O   UNK     0      13.306  42.866  20.022  0.00  0.00    -0.393 OA
HETATM   29  H   UNK     0      13.854  42.089  20.230  0.00  0.00     0.210 HD
ENDBRANCH  27  28
BRANCH  27  30
HETATM   30  C   UNK     0      14.412  43.894  21.901  0.00  0.00     0.037 C 
BRANCH  30  31
HETATM   31  C   UNK     0      15.596  43.552  20.977  0.00  0.00     0.040 C 
BRANCH  31  32
HETATM   32  C   UNK     0      16.606  42.550  21.575  0.00  0.00     0.051 C 
HETATM   33  C   UNK     0      16.861  42.896  23.046  0.00  0.00     0.045 C 
HETATM   34  C   UNK     0      16.134  41.099  21.455  0.00  0.00     0.045 C 
BRANCH  32  35
HETATM   35  O   UNK     0      17.842  42.684  20.872  0.00  0.00    -0.391 OA
HETATM   36  H   UNK     0      18.417  43.275  21.387  0.00  0.00     0.210 HD
ENDBRANCH  32  35
ENDBRANCH  31  32
ENDBRANCH  30  31
ENDBRANCH  27  30
ENDBRANCH  23  27
ENDBRANCH   5  23
BRANCH  19  37
HETATM   37  O   UNK     0       1.870  43.756  21.340  0.00  0.00    -0.393 OA
HETATM   38  H   UNK     0       1.372  44.579  21.483  0.00  0.00     0.210 HD
ENDBRANCH  19  37
BRANCH  20  39
HETATM   39  O   UNK     0       2.655  41.341  22.441  0.00  0.00    -0.393 OA
HETATM   40  H   UNK     0       3.128  40.541  22.727  0.00  0.00     0.210 HD
ENDBRANCH  20  39
ENDBRANCH   1   3
TORSDOF 11
ENDMDL
MODEL 7
REMARK VINA RESULT:      -7.9      1.789      2.388
REMARK  11 active torsions:
REMARK  status: ('A' for Active; 'I' for Inactive)
REMARK    1  A    between atoms: O_1  and  C_9 
REMARK    2  A    between atoms: O_2  and  C_19 
REMARK    3  A    between atoms: O_3  and  C_26 
REMARK    4  A    between atoms: O_4  and  C_27 
REMARK    5  A    between atoms: O_6  and  C_28 
REMARK    6  A    between atoms: O_7  and  C_32 
REMARK    7  A    between atoms: C_10  and  C_19 
REMARK    8  A    between atoms: C_19  and  C_27 
REMARK    9  A    between atoms: C_27  and  C_30 
REMARK   10  A    between atoms: C_30  and  C_31 
REMARK   11  A    between atoms: C_31  and  C_32 
ROOT
HETATM    1  O   UNK     0       7.884  41.339  22.031  0.00  0.00    -0.384 OA
HETATM    2  H   UNK     0       7.414  41.370  21.180  0.00  0.00     0.211 HD
ENDROOT
BRANCH   1   3
HETATM    3  C   UNK     0       8.002  42.695  22.520  0.00  0.00     0.089 C 
HETATM    4  C   UNK     0       8.682  43.575  21.439  0.00  0.00    -0.002 C 
HETATM    5  C   UNK     0      10.085  42.919  21.373  0.00  0.00     0.034 C 
HETATM    6  C   UNK     0       7.877  43.456  20.133  0.00  0.00     0.014 C 
HETATM    7  C   UNK     0       8.789  45.067  21.853  0.00  0.00     0.019 C 
HETATM    8  C   UNK     0      10.414  42.604  22.850  0.00  0.00     0.012 C 
HETATM    9  C   UNK     0       9.074  42.644  23.619  0.00  0.00     0.044 C 
HETATM   10  C   UNK     0       6.422  43.911  20.338  0.00  0.00     0.011 C 
HETATM   11  C   UNK     0       5.693  43.268  21.559  0.00  0.00     0.027 C 
HETATM   12  C   UNK     0       4.300  43.951  21.854  0.00  0.00    -0.023 C 
HETATM   13  C   UNK     0       6.587  43.151  22.803  0.00  0.00    -0.037 C 
HETATM   14  C   UNK     0       3.714  43.411  23.188  0.00  0.00     0.071 C 
HETATM   15  C   UNK     0       3.274  43.675  20.717  0.00  0.00     0.044 C 
HETATM   16  C   UNK     0       4.434  45.493  21.977  0.00  0.00     0.016 C 
HETATM   17  C   UNK     0       3.255  41.944  23.109  0.00  0.00     0.047 C 
HETATM   18  C   UNK     0       4.704  43.569  24.326  0.00  0.00     0.154 C 
HETATM   19  C   UNK     0       2.252  41.726  21.977  0.00  0.00     0.147 C 
HETATM   20  C   UNK     0       2.818  42.214  20.643  0.00  0.00     0.147 C 
HETATM   21  O   UNK     0       4.336  43.816  25.474  0.00  0.00    -0.293 OA
HETATM   22  C   UNK     0       6.141  43.337  24.055  0.00  0.00     0.057 C 
BRANCH   5  23
HETATM   23  C   UNK     0      11.181  43.722  20.683  0.00  0.00     0.084 C 
HETATM   24  C   UNK     0      10.569  44.955  19.997  0.00  0.00     0.049 C 
BRANCH  23  25
HETATM   25  O   UNK     0      12.093  44.196  21.682  0.00  0.00    -0.387 OA
HETATM   26  H   UNK     0      12.805  44.694  21.247  0.00  0.00     0.210 HD
ENDBRANCH  23  25
BRANCH  23  27
HETATM   27  C   UNK     0      11.981  42.867  19.663  0.00  0.00     0.152 C 
BRANCH  27  28
HETATM   28  O   UNK     0      11.952  41.493  20.061  0.00  0.00    -0.393 OA
HETATM   29  H   UNK     0      12.294  41.447  20.971  0.00  0.00     0.210 HD
ENDBRANCH  27  28
BRANCH  27  30
HETATM   30  C   UNK     0      13.453  43.293  19.498  0.00  0.00     0.037 C 
BRANCH  30  31
HETATM   31  C   UNK     0      14.426  42.155  19.861  0.00  0.00     0.040 C 
BRANCH  31  32
HETATM   32  C   UNK     0      15.096  42.303  21.244  0.00  0.00     0.051 C 
HETATM   33  C   UNK     0      16.190  41.241  21.399  0.00  0.00     0.045 C 
HETATM   34  C   UNK     0      15.688  43.697  21.463  0.00  0.00     0.045 C 
BRANCH  32  35
HETATM   35  O   UNK     0      14.108  42.066  22.249  0.00  0.00    -0.391 OA
HETATM   36  H   UNK     0      14.525  41.556  22.963  0.00  0.00     0.210 HD
ENDBRANCH  32  35
ENDBRANCH  31  32
ENDBRANCH  30  31
ENDBRANCH  27  30
ENDBRANCH  23  27
ENDBRANCH   5  23
BRANCH  19  37
HETATM   37  O   UNK     0       1.052  42.444  22.270  0.00  0.00    -0.393 OA
HETATM   38  H   UNK     0       0.823  42.267  23.198  0.00  0.00     0.210 HD
ENDBRANCH  19  37
BRANCH  20  39
HETATM   39  O   UNK     0       1.818  42.076  19.637  0.00  0.00    -0.393 OA
HETATM   40  H   UNK     0       1.272  42.881  19.654  0.00  0.00     0.210 HD
ENDBRANCH  20  39
ENDBRANCH   1   3
TORSDOF 11
ENDMDL
MODEL 8
REMARK VINA RESULT:      -7.8      1.630      8.125
REMARK  11 active torsions:
REMARK  status: ('A' for Active; 'I' for Inactive)
REMARK    1  A    between atoms: O_1  and  C_9 
REMARK    2  A    between atoms: O_2  and  C_19 
REMARK    3  A    between atoms: O_3  and  C_26 
REMARK    4  A    between atoms: O_4  and  C_27 
REMARK    5  A    between atoms: O_6  and  C_28 
REMARK    6  A    between atoms: O_7  and  C_32 
REMARK    7  A    between atoms: C_10  and  C_19 
REMARK    8  A    between atoms: C_19  and  C_27 
REMARK    9  A    between atoms: C_27  and  C_30 
REMARK   10  A    between atoms: C_30  and  C_31 
REMARK   11  A    between atoms: C_31  and  C_32 
ROOT
HETATM    1  O   UNK     0       6.827  41.747  20.475  0.00  0.00    -0.384 OA
HETATM    2  H   UNK     0       5.959  41.308  20.489  0.00  0.00     0.211 HD
ENDROOT
BRANCH   1   3
HETATM    3  C   UNK     0       6.611  43.147  20.185  0.00  0.00     0.089 C 
HETATM    4  C   UNK     0       5.803  43.792  21.341  0.00  0.00    -0.002 C 
HETATM    5  C   UNK     0       4.463  43.021  21.223  0.00  0.00     0.034 C 
HETATM    6  C   UNK     0       6.552  43.541  22.663  0.00  0.00     0.014 C 
HETATM    7  C   UNK     0       5.582  45.317  21.147  0.00  0.00     0.019 C 
HETATM    8  C   UNK     0       4.236  42.910  19.698  0.00  0.00     0.012 C 
HETATM    9  C   UNK     0       5.602  43.177  19.027  0.00  0.00     0.044 C 
HETATM   10  C   UNK     0       7.967  44.139  22.616  0.00  0.00     0.011 C 
HETATM   11  C   UNK     0       8.810  43.753  21.361  0.00  0.00     0.027 C 
HETATM   12  C   UNK     0      10.148  44.585  21.256  0.00  0.00    -0.023 C 
HETATM   13  C   UNK     0       7.991  43.755  20.061  0.00  0.00    -0.037 C 
HETATM   14  C   UNK     0      10.844  44.305  19.895  0.00  0.00     0.071 C 
HETATM   15  C   UNK     0      11.138  44.223  22.400  0.00  0.00     0.044 C 
HETATM   16  C   UNK     0       9.881  46.111  21.355  0.00  0.00     0.016 C 
HETATM   17  C   UNK     0      11.429  42.886  19.784  0.00  0.00     0.047 C 
HETATM   18  C   UNK     0       9.900  44.554  18.735  0.00  0.00     0.154 C 
HETATM   19  C   UNK     0      12.392  42.580  20.930  0.00  0.00     0.147 C 
HETATM   20  C   UNK     0      11.721  42.810  22.285  0.00  0.00     0.147 C 
HETATM   21  O   UNK     0      10.299  45.003  17.661  0.00  0.00    -0.293 OA
HETATM   22  C   UNK     0       8.478  44.167  18.880  0.00  0.00     0.057 C 
BRANCH   5  23
HETATM   23  C   UNK     0       3.268  43.617  21.957  0.00  0.00     0.084 C 
HETATM   24  C   UNK     0       3.397  45.148  22.005  0.00  0.00     0.049 C 
BRANCH  23  25
HETATM   25  O   UNK     0       2.081  43.310  21.212  0.00  0.00    -0.387 OA
HETATM   26  H   UNK     0       1.896  44.042  20.600  0.00  0.00     0.210 HD
ENDBRANCH  23  25
BRANCH  23  27
HETATM   27  C   UNK     0       3.106  43.034  23.387  0.00  0.00     0.152 C 
BRANCH  27  28
HETATM   28  O   UNK     0       3.877  43.810  24.311  0.00  0.00    -0.393 OA
HETATM   29  H   UNK     0       4.557  44.281  23.798  0.00  0.00     0.210 HD
ENDBRANCH  27  28
BRANCH  27  30
HETATM   30  C   UNK     0       3.532  41.559  23.521  0.00  0.00     0.037 C 
BRANCH  30  31
HETATM   31  C   UNK     0       4.330  41.303  24.813  0.00  0.00     0.040 C 
BRANCH  31  32
HETATM   32  C   UNK     0       3.468  40.902  26.028  0.00  0.00     0.051 C 
HETATM   33  C   UNK     0       2.134  40.325  25.542  0.00  0.00     0.045 C 
HETATM   34  C   UNK     0       4.171  39.893  26.939  0.00  0.00     0.045 C 
BRANCH  32  35
HETATM   35  O   UNK     0       3.186  42.078  26.789  0.00  0.00    -0.391 OA
HETATM   36  H   UNK     0       2.309  42.402  26.524  0.00  0.00     0.210 HD
ENDBRANCH  32  35
ENDBRANCH  31  32
ENDBRANCH  30  31
ENDBRANCH  27  30
ENDBRANCH  23  27
ENDBRANCH   5  23
BRANCH  19  37
HETATM   37  O   UNK     0      13.536  43.430  20.821  0.00  0.00    -0.393 OA
HETATM   38  H   UNK     0      14.179  43.144  21.491  0.00  0.00     0.210 HD
ENDBRANCH  19  37
BRANCH  20  39
HETATM   39  O   UNK     0      12.680  42.602  23.319  0.00  0.00    -0.393 OA
HETATM   40  H   UNK     0      12.205  42.628  24.167  0.00  0.00     0.210 HD
ENDBRANCH  20  39
ENDBRANCH   1   3
TORSDOF 11
ENDMDL
MODEL 9
REMARK VINA RESULT:      -7.8      2.210      8.080
REMARK  11 active torsions:
REMARK  status: ('A' for Active; 'I' for Inactive)
REMARK    1  A    between atoms: O_1  and  C_9 
REMARK    2  A    between atoms: O_2  and  C_19 
REMARK    3  A    between atoms: O_3  and  C_26 
REMARK    4  A    between atoms: O_4  and  C_27 
REMARK    5  A    between atoms: O_6  and  C_28 
REMARK    6  A    between atoms: O_7  and  C_32 
REMARK    7  A    between atoms: C_10  and  C_19 
REMARK    8  A    between atoms: C_19  and  C_27 
REMARK    9  A    between atoms: C_27  and  C_30 
REMARK   10  A    between atoms: C_30  and  C_31 
REMARK   11  A    between atoms: C_31  and  C_32 
ROOT
HETATM    1  O   UNK     0       9.785  46.108  21.362  0.00  0.00    -0.384 OA
HETATM    2  H   UNK     0      10.405  45.914  20.637  0.00  0.00     0.211 HD
ENDROOT
BRANCH   1   3
HETATM    3  C   UNK     0       9.187  44.859  21.778  0.00  0.00     0.089 C 
HETATM    4  C   UNK     0       8.546  44.161  20.550  0.00  0.00    -0.002 C 
HETATM    5  C   UNK     0       7.434  45.179  20.186  0.00  0.00     0.034 C 
HETATM    6  C   UNK     0       9.623  44.000  19.461  0.00  0.00     0.014 C 
HETATM    7  C   UNK     0       7.937  42.775  20.892  0.00  0.00     0.019 C 
HETATM    8  C   UNK     0       6.886  45.630  21.559  0.00  0.00     0.012 C 
HETATM    9  C   UNK     0       7.955  45.250  22.608  0.00  0.00     0.044 C 
HETATM   10  C   UNK     0      10.808  43.167  19.977  0.00  0.00     0.011 C 
HETATM   11  C   UNK     0      11.397  43.629  21.346  0.00  0.00     0.027 C 
HETATM   12  C   UNK     0      12.441  42.598  21.930  0.00  0.00    -0.023 C 
HETATM   13  C   UNK     0      10.318  44.039  22.360  0.00  0.00    -0.037 C 
HETATM   14  C   UNK     0      12.842  43.006  23.375  0.00  0.00     0.071 C 
HETATM   15  C   UNK     0      13.729  42.533  21.060  0.00  0.00     0.044 C 
HETATM   16  C   UNK     0      11.856  41.160  21.981  0.00  0.00     0.016 C 
HETATM   17  C   UNK     0      13.699  44.283  23.437  0.00  0.00     0.047 C 
HETATM   18  C   UNK     0      11.619  43.175  24.256  0.00  0.00     0.154 C 
HETATM   19  C   UNK     0      14.949  44.168  22.566  0.00  0.00     0.147 C 
HETATM   20  C   UNK     0      14.581  43.805  21.127  0.00  0.00     0.147 C 
HETATM   21  O   UNK     0      11.638  42.881  25.451  0.00  0.00    -0.293 OA
HETATM   22  C   UNK     0      10.403  43.786  23.675  0.00  0.00     0.057 C 
BRANCH   5  23
HETATM   23  C   UNK     0       6.340  44.685  19.248  0.00  0.00     0.084 C 
HETATM   24  C   UNK     0       5.369  45.834  18.929  0.00  0.00     0.049 C 
BRANCH  23  25
HETATM   25  O   UNK     0       6.949  44.285  18.013  0.00  0.00    -0.387 OA
HETATM   26  H   UNK     0       7.533  44.997  17.704  0.00  0.00     0.210 HD
ENDBRANCH  23  25
BRANCH  23  27
HETATM   27  C   UNK     0       5.575  43.465  19.828  0.00  0.00     0.152 C 
BRANCH  27  28
HETATM   28  O   UNK     0       5.361  42.497  18.796  0.00  0.00    -0.393 OA
HETATM   29  H   UNK     0       4.404  42.326  18.751  0.00  0.00     0.210 HD
ENDBRANCH  27  28
BRANCH  27  30
HETATM   30  C   UNK     0       4.211  43.814  20.455  0.00  0.00     0.037 C 
BRANCH  30  31
HETATM   31  C   UNK     0       4.058  43.224  21.869  0.00  0.00     0.040 C 
BRANCH  31  32
HETATM   32  C   UNK     0       3.134  41.991  21.952  0.00  0.00     0.051 C 
HETATM   33  C   UNK     0       2.462  41.946  23.329  0.00  0.00     0.045 C 
HETATM   34  C   UNK     0       2.070  41.980  20.852  0.00  0.00     0.045 C 
BRANCH  32  35
HETATM   35  O   UNK     0       3.938  40.817  21.818  0.00  0.00    -0.391 OA
HETATM   36  H   UNK     0       4.283  40.590  22.697  0.00  0.00     0.210 HD
ENDBRANCH  32  35
ENDBRANCH  31  32
ENDBRANCH  30  31
ENDBRANCH  27  30
ENDBRANCH  23  27
ENDBRANCH   5  23
BRANCH  19  37
HETATM   37  O   UNK     0      15.803  43.157  23.104  0.00  0.00    -0.393 OA
HETATM   38  H   UNK     0      15.664  42.348  22.583  0.00  0.00     0.210 HD
ENDBRANCH  19  37
BRANCH  20  39
HETATM   39  O   UNK     0      15.778  43.619  20.375  0.00  0.00    -0.393 OA
HETATM   40  H   UNK     0      15.538  43.648  19.433  0.00  0.00     0.210 HD
ENDBRANCH  20  39
ENDBRANCH   1   3
TORSDOF 11
ENDMDL
