REMARK VINA RESULT:      -7.8      1.413      1.887
REMARK  Name = 9823887
REMARK                            x       y       z     vdW  Elec       q    Type
REMARK                         _______ _______ _______ _____ _____    ______ ____
ROOT
ATOM      1  O   LIG    1      183.109 182.081 172.363  0.00  0.00    -0.341 OA
ATOM      2  C   LIG    1      181.899 181.328 172.311  0.00  0.00    +0.282 C 
ATOM      3  C   LIG    1      180.800 182.024 173.116  0.00  0.00    +0.201 C 
ATOM      4  C   LIG    1      180.616 183.474 172.668  0.00  0.00    +0.179 C 
ATOM      5  C   LIG    1      181.956 184.202 172.583  0.00  0.00    +0.177 C 
ATOM     22  C   LIG    1      182.972 183.380 171.786  0.00  0.00    +0.178 C 
ENDROOT
BRANCH   5   6
ATOM      6  O   LIG    1      181.769 185.464 171.948  0.00  0.00    -0.386 OA
ATOM      7  H   LIG    1      182.586 185.682 171.467  0.00  0.00    +0.210 HD
ENDBRANCH   5   6
BRANCH   4   8
ATOM      8  O   LIG    1      179.798 184.163 173.615  0.00  0.00    -0.386 OA
ATOM      9  H   LIG    1      179.712 185.083 173.310  0.00  0.00    +0.210 HD
ENDBRANCH   4   8
BRANCH   3  10
ATOM     10  O   LIG    1      179.581 181.308 172.920  0.00  0.00    -0.384 OA
ATOM     11  H   LIG    1      179.700 180.409 173.269  0.00  0.00    +0.210 HD
ENDBRANCH   3  10
BRANCH   2  12
ATOM     12  O   LIG    1      182.110 180.037 172.878  0.00  0.00    -0.345 OA
BRANCH  12  13
ATOM     13  C   LIG    1      182.936 179.236 172.048  0.00  0.00    +0.190 C 
BRANCH  13  14
ATOM     14  C   LIG    1      182.424 177.832 172.068  0.00  0.00    +0.001 C 
ATOM     15  C   LIG    1      182.680 176.940 171.099  0.00  0.00    +0.006 C 
BRANCH  15  16
ATOM     16  C   LIG    1      182.209 175.545 171.083  0.00  0.00    -0.025 A 
ATOM     17  C   LIG    1      182.868 174.615 170.294  0.00  0.00    +0.008 A 
ATOM     18  C   LIG    1      182.422 173.294 170.280  0.00  0.00    +0.001 A 
ATOM     19  C   LIG    1      181.323 172.919 171.053  0.00  0.00    +0.000 A 
ATOM     20  C   LIG    1      180.670 173.866 171.841  0.00  0.00    +0.001 A 
ATOM     21  C   LIG    1      181.116 175.188 171.856  0.00  0.00    +0.008 A 
ENDBRANCH  15  16
ENDBRANCH  13  14
ENDBRANCH  12  13
ENDBRANCH   2  12
BRANCH  22  23
ATOM     23  C   LIG    1      184.352 184.032 171.786  0.00  0.00    +0.197 C 
BRANCH  23  24
ATOM     24  O   LIG    1      184.549 184.669 173.035  0.00  0.00    -0.346 OA
BRANCH  24  25
ATOM     25  C   LIG    1      185.722 185.475 173.037  0.00  0.00    +0.281 C 
ATOM     26  C   LIG    1      185.848 186.212 174.380  0.00  0.00    +0.201 C 
ATOM     27  C   LIG    1      186.285 185.277 175.512  0.00  0.00    +0.178 C 
ATOM     28  C   LIG    1      187.501 184.457 175.078  0.00  0.00    +0.171 C 
ATOM     29  C   LIG    1      187.234 183.762 173.749  0.00  0.00    +0.197 C 
ATOM     36  O   LIG    1      186.898 184.713 172.742  0.00  0.00    -0.346 OA
BRANCH  28  30
ATOM     30  O   LIG    1      187.824 183.504 176.081  0.00  0.00    -0.387 OA
ATOM     31  H   LIG    1      187.767 182.621 175.676  0.00  0.00    +0.210 HD
ENDBRANCH  28  30
BRANCH  27  32
ATOM     32  O   LIG    1      185.215 184.393 175.841  0.00  0.00    -0.386 OA
ATOM     33  H   LIG    1      185.600 183.515 176.008  0.00  0.00    +0.210 HD
ENDBRANCH  27  32
BRANCH  26  34
ATOM     34  O   LIG    1      186.813 187.249 174.224  0.00  0.00    -0.384 OA
ATOM     35  H   LIG    1      187.668 186.843 174.002  0.00  0.00    +0.210 HD
ENDBRANCH  26  34
ENDBRANCH  24  25
ENDBRANCH  23  24
ENDBRANCH  22  23
TORSDOF 13
