REMARK  Name = 3PE
REMARK  37 active torsions:
REMARK  status: ('A' for Active; 'I' for Inactive)
REMARK    1  A    between atoms: P_1  and  O_3
REMARK    2  A    between atoms: P_1  and  O_5
REMARK    3  A    between atoms: O_3  and  C_9
REMARK    4  A    between atoms: O_5  and  C_7
REMARK    5  A    between atoms: C_7  and  C_8
REMARK    6  A    between atoms: C_9  and  C_10
REMARK    7  A    between atoms: C_10  and  C_11
REMARK    8  A    between atoms: C_10  and  O_31
REMARK    9  A    between atoms: C_11  and  O_12
REMARK   10  A    between atoms: O_12  and  C_14
REMARK   11  A    between atoms: C_14  and  C_15
REMARK   12  A    between atoms: C_15  and  C_16
REMARK   13  A    between atoms: C_16  and  C_17
REMARK   14  A    between atoms: C_17  and  C_18
REMARK   15  A    between atoms: C_18  and  C_19
REMARK   16  A    between atoms: C_19  and  C_20
REMARK   17  A    between atoms: C_20  and  C_21
REMARK   18  A    between atoms: C_21  and  C_22
REMARK   19  A    between atoms: C_22  and  C_23
REMARK   20  A    between atoms: C_23  and  C_24
REMARK   21  A    between atoms: C_24  and  C_25
REMARK   22  A    between atoms: C_25  and  C_26
REMARK   23  A    between atoms: C_26  and  C_27
REMARK   24  A    between atoms: C_27  and  C_28
REMARK   25  A    between atoms: C_28  and  C_29
REMARK   26  A    between atoms: O_31  and  C_33
REMARK   27  A    between atoms: C_33  and  C_34
REMARK   28  A    between atoms: C_34  and  C_35
REMARK   29  A    between atoms: C_35  and  C_36
REMARK   30  A    between atoms: C_36  and  C_37
REMARK   31  A    between atoms: C_37  and  C_38
REMARK   32  A    between atoms: C_38  and  C_39
REMARK   33  A    between atoms: C_39  and  C_40
REMARK   34  A    between atoms: C_40  and  C_41
REMARK   35  A    between atoms: C_41  and  C_42
REMARK   36  A    between atoms: C_42  and  C_43
REMARK   37  A    between atoms: C_43  and  C_44
REMARK                            x       y       z     vdW  Elec       q    Type
REMARK                         _______ _______ _______ _____ _____    ______ ____
ROOT
ATOM      1  C   UNL     1     178.953 155.040 148.492  0.00  0.00    +0.242 C 
ENDROOT
BRANCH   1   2
ATOM      2  C   UNL     1     180.040 155.960 149.039  0.00  0.00    +0.196 C 
BRANCH   2   3
ATOM      3  O   UNL     1     180.428 155.491 150.309  0.00  0.00    -0.310 OA
BRANCH   3   4
ATOM      4  P   UNL     1     181.522 156.342 151.192  0.00  0.00    +0.214 P 
ATOM      5  O   UNL     1     182.748 155.524 151.416  0.00  0.00    -0.517 OA
ATOM      6  O   UNL     1     181.530 157.706 150.592  0.00  0.00    -0.437 OA
BRANCH   4   7
ATOM      7  O   UNL     1     180.788 156.391 152.672  0.00  0.00    -0.312 OA
BRANCH   7   8
ATOM      8  C   UNL     1     181.499 155.960 153.807  0.00  0.00    +0.170 C 
BRANCH   8   9
ATOM      9  C   UNL     1     180.747 156.406 155.041  0.00  0.00    +0.142 C 
ATOM     10  N   UNL     1     179.332 155.960 155.014  0.00  0.00    -0.129 NA
ENDBRANCH   8   9
ENDBRANCH   7   8
ENDBRANCH   4   7
ENDBRANCH   3   4
ENDBRANCH   2   3
ENDBRANCH   1   2
BRANCH   1  11
ATOM     11  C   UNL     1     177.570 155.555 148.829  0.00  0.00    +0.254 C 
BRANCH  11  12
ATOM     12  O   UNL     1     176.973 155.960 147.601  0.00  0.00    -0.444 OA
BRANCH  12  13
ATOM     13  C   UNL     1     175.651 156.091 147.553  0.00  0.00    +0.317 C 
ATOM     14  O   UNL     1     174.916 155.635 148.389  0.00  0.00    -0.250 OA
BRANCH  13  15
ATOM     15  C   UNL     1     175.227 156.875 146.344  0.00  0.00    +0.110 C 
BRANCH  15  16
ATOM     16  C   UNL     1     173.726 157.074 146.226  0.00  0.00    +0.012 C 
BRANCH  16  17
ATOM     17  C   UNL     1     173.395 158.140 145.192  0.00  0.00    +0.001 C 
BRANCH  17  18
ATOM     18  C   UNL     1     172.250 157.751 144.268  0.00  0.00    +0.000 C 
BRANCH  18  19
ATOM     19  C   UNL     1     170.891 158.223 144.763  0.00  0.00    +0.000 C 
BRANCH  19  20
ATOM     20  C   UNL     1     169.800 158.114 143.707  0.00  0.00    +0.000 C 
BRANCH  20  21
ATOM     21  C   UNL     1     168.545 158.897 144.062  0.00  0.00    +0.000 C 
BRANCH  21  22
ATOM     22  C   UNL     1     168.625 160.375 143.706  0.00  0.00    +0.000 C 
BRANCH  22  23
ATOM     23  C   UNL     1     167.715 160.757 142.546  0.00  0.00    +0.000 C 
BRANCH  23  24
ATOM     24  C   UNL     1     167.836 162.220 142.141  0.00  0.00    +0.000 C 
BRANCH  24  25
ATOM     25  C   UNL     1     166.786 162.644 141.124  0.00  0.00    +0.000 C 
BRANCH  25  26
ATOM     26  C   UNL     1     167.149 162.310 139.685  0.00  0.00    +0.000 C 
BRANCH  26  27
ATOM     27  C   UNL     1     165.967 162.431 138.735  0.00  0.00    +0.000 C 
BRANCH  27  28
ATOM     28  C   UNL     1     164.847 161.447 139.043  0.00  0.00    +0.000 C 
BRANCH  28  29
ATOM     29  C   UNL     1     163.832 161.321 137.915  0.00  0.00    +0.000 C 
ATOM     30  C   UNL     1     162.819 160.204 138.136  0.00  0.00    +0.000 C 
ENDBRANCH  28  29
ENDBRANCH  27  28
ENDBRANCH  26  27
ENDBRANCH  25  26
ENDBRANCH  24  25
ENDBRANCH  23  24
ENDBRANCH  22  23
ENDBRANCH  21  22
ENDBRANCH  20  21
ENDBRANCH  19  20
ENDBRANCH  18  19
ENDBRANCH  17  18
ENDBRANCH  16  17
ENDBRANCH  15  16
ENDBRANCH  13  15
ENDBRANCH  12  13
ENDBRANCH  11  12
ENDBRANCH   1  11
BRANCH   1  31
ATOM     31  O   UNL     1     178.945 154.923 147.060  0.00  0.00    -0.446 OA
BRANCH  31  32
ATOM     32  C   UNL     1     179.906 155.390 146.291  0.00  0.00    +0.317 C 
ATOM     33  O   UNL     1     180.972 154.830 146.148  0.00  0.00    -0.250 OA
BRANCH  32  34
ATOM     34  C   UNL     1     179.510 156.675 145.618  0.00  0.00    +0.110 C 
BRANCH  34  35
ATOM     35  C   UNL     1     179.831 156.742 144.135  0.00  0.00    +0.012 C 
BRANCH  35  36
ATOM     36  C   UNL     1     178.644 156.300 143.291  0.00  0.00    +0.001 C 
BRANCH  36  37
ATOM     37  C   UNL     1     177.551 157.356 143.198  0.00  0.00    +0.000 C 
BRANCH  37  38
ATOM     38  C   UNL     1     177.969 158.555 142.358  0.00  0.00    +0.000 C 
BRANCH  38  39
ATOM     39  C   UNL     1     177.141 159.805 142.622  0.00  0.00    +0.000 C 
BRANCH  39  40
ATOM     40  C   UNL     1     175.721 159.720 142.078  0.00  0.00    +0.000 C 
BRANCH  40  41
ATOM     41  C   UNL     1     174.843 160.891 142.500  0.00  0.00    +0.000 C 
BRANCH  41  42
ATOM     42  C   UNL     1     173.767 161.236 141.478  0.00  0.00    +0.000 C 
BRANCH  42  43
ATOM     43  C   UNL     1     172.837 160.075 141.152  0.00  0.00    +0.000 C 
BRANCH  43  44
ATOM     44  C   UNL     1     171.835 160.405 140.052  0.00  0.00    +0.000 C 
ATOM     45  C   UNL     1     170.842 159.283 139.773  0.00  0.00    +0.000 C 
ENDBRANCH  43  44
ENDBRANCH  42  43
ENDBRANCH  41  42
ENDBRANCH  40  41
ENDBRANCH  39  40
ENDBRANCH  38  39
ENDBRANCH  37  38
ENDBRANCH  36  37
ENDBRANCH  35  36
ENDBRANCH  34  35
ENDBRANCH  32  34
ENDBRANCH  31  32
ENDBRANCH   1  31
TORSDOF 37
