MODEL 1
REMARK VINA RESULT:    -9.347      0.000      0.000
REMARK INTER + INTRA:         -28.657
REMARK INTER:                 -24.067
REMARK INTRA:                  -4.590
REMARK UNBOUND:                -6.470
REMARK  31 active torsions:
REMARK  status: ('A' for Active; 'I' for Inactive)
REMARK    1  A    between atoms: O_2  and  C_27 
REMARK    2  A    between atoms: O_2  and  C_33 
REMARK    3  A    between atoms: O_3  and  C_34 
REMARK    4  A    between atoms: O_3  and  C_28 
REMARK    5  A    between atoms: O_4  and  C_35 
REMARK    6  A    between atoms: O_4  and  C_29 
REMARK    7  A    between atoms: O_5  and  C_36 
REMARK    8  A    between atoms: O_5  and  C_31 
REMARK    9  A    between atoms: O_6  and  C_32 
REMARK   10  A    between atoms: O_6  and  C_39 
REMARK   11  A    between atoms: O_12  and  C_51 
REMARK   12  A    between atoms: O_13  and  C_52 
REMARK   13  A    between atoms: O_14  and  C_53 
REMARK   14  A    between atoms: O_15  and  C_54 
REMARK   15  A    between atoms: O_16  and  C_55 
REMARK   16  A    between atoms: O_17  and  C_56 
REMARK   17  A    between atoms: O_18  and  C_59 
REMARK   18  A    between atoms: O_19  and  C_60 
REMARK   19  A    between atoms: O_20  and  C_61 
REMARK   20  A    between atoms: O_21  and  C_62 
REMARK   21  A    between atoms: O_22  and  C_63 
REMARK   22  A    between atoms: O_23  and  C_64 
REMARK   23  A    between atoms: O_24  and  C_65 
REMARK   24  A    between atoms: O_25  and  C_66 
REMARK   25  A    between atoms: O_26  and  C_67 
REMARK   26  A    between atoms: C_30  and  C_32 
REMARK   27  A    between atoms: C_33  and  C_37 
REMARK   28  A    between atoms: C_34  and  C_38 
REMARK   29  A    between atoms: C_35  and  C_40 
REMARK   30  A    between atoms: C_36  and  C_41 
REMARK   31  A    between atoms: C_39  and  C_42 
ROOT
HETATM    1  O   UNL     1      87.839  11.673  38.275  1.00  0.00    -0.348 OA
HETATM    2  C   UNL     1      90.687  12.076  38.198  1.00  0.00     0.198 C 
HETATM    3  C   UNL     1      90.009  10.882  37.489  1.00  0.00     0.195 C 
HETATM    4  C   UNL     1      89.835  12.442  39.441  1.00  0.00     0.220 C 
HETATM    5  C   UNL     1      88.570  11.295  37.098  1.00  0.00     0.181 C 
HETATM    6  C   UNL     1      88.413  12.799  38.938  1.00  0.00     0.302 C 
ENDROOT
BRANCH   5   7
HETATM    7  C   UNL     1      87.837  10.156  36.371  1.00  0.00     0.213 C 
BRANCH   7   8
HETATM    8  O   UNL     1      87.778  10.388  34.953  1.00  0.00    -0.315 OA
BRANCH   8   9
HETATM    9  C   UNL     1      86.518  10.405  34.439  1.00  0.00     0.293 C 
HETATM   10  O   UNL     1      85.488  10.129  35.029  1.00  0.00    -0.259 OA
BRANCH   9  11
HETATM   11  C   UNL     1      86.561  10.821  33.020  1.00  0.00     0.045 A 
HETATM   12  C   UNL     1      87.308  10.098  32.073  1.00  0.00     0.057 A 
HETATM   13  C   UNL     1      87.265  10.489  30.739  1.00  0.00     0.102 A 
HETATM   14  C   UNL     1      86.500  11.586  30.354  1.00  0.00     0.132 A 
HETATM   15  C   UNL     1      85.770  12.298  31.295  1.00  0.00     0.102 A 
HETATM   16  C   UNL     1      85.784  11.920  32.631  1.00  0.00     0.057 A 
BRANCH  13  17
HETATM   17  O   UNL     1      87.946   9.817  29.762  1.00  0.00    -0.358 OA
HETATM   18  H   UNL     1      88.345   9.019  30.150  1.00  0.00     0.217 HD
ENDBRANCH  13  17
BRANCH  14  19
HETATM   19  O   UNL     1      86.449  11.972  29.043  1.00  0.00    -0.356 OA
HETATM   20  H   UNL     1      87.267  12.492  28.908  1.00  0.00     0.218 HD
ENDBRANCH  14  19
BRANCH  15  21
HETATM   21  O   UNL     1      85.021  13.373  30.913  1.00  0.00    -0.358 OA
HETATM   22  H   UNL     1      85.659  14.115  30.860  1.00  0.00     0.217 HD
ENDBRANCH  15  21
ENDBRANCH   9  11
ENDBRANCH   8   9
ENDBRANCH   7   8
ENDBRANCH   5   7
BRANCH   3  23
HETATM   23  O   UNL     1      90.722  10.491  36.296  1.00  0.00    -0.307 OA
BRANCH  23  24
HETATM   24  C   UNL     1      91.139   9.244  35.950  1.00  0.00     0.294 C 
HETATM   25  O   UNL     1      91.043   8.320  36.749  1.00  0.00    -0.259 OA
BRANCH  24  26
HETATM   26  C   UNL     1      91.637   8.957  34.583  1.00  0.00     0.045 A 
HETATM   27  C   UNL     1      92.746   8.133  34.339  1.00  0.00     0.057 A 
HETATM   28  C   UNL     1      93.218   7.989  33.038  1.00  0.00     0.102 A 
HETATM   29  C   UNL     1      92.538   8.575  31.979  1.00  0.00     0.132 A 
HETATM   30  C   UNL     1      91.382   9.307  32.212  1.00  0.00     0.102 A 
HETATM   31  C   UNL     1      90.919   9.500  33.506  1.00  0.00     0.057 A 
BRANCH  28  32
HETATM   32  O   UNL     1      94.360   7.292  32.755  1.00  0.00    -0.358 OA
HETATM   33  H   UNL     1      94.141   6.346  32.669  1.00  0.00     0.217 HD
ENDBRANCH  28  32
BRANCH  29  34
HETATM   34  O   UNL     1      92.997   8.439  30.698  1.00  0.00    -0.356 OA
HETATM   35  H   UNL     1      92.636   7.577  30.403  1.00  0.00     0.218 HD
ENDBRANCH  29  34
BRANCH  30  36
HETATM   36  O   UNL     1      90.701   9.857  31.167  1.00  0.00    -0.358 OA
HETATM   37  H   UNL     1      90.944  10.804  31.180  1.00  0.00     0.217 HD
ENDBRANCH  30  36
ENDBRANCH  24  26
ENDBRANCH  23  24
ENDBRANCH   3  23
BRANCH   6  38
HETATM   38  O   UNL     1      87.609  13.139  40.082  1.00  0.00    -0.283 OA
BRANCH  38  39
HETATM   39  C   UNL     1      87.365  12.383  41.178  1.00  0.00     0.295 C 
HETATM   40  O   UNL     1      87.210  11.171  41.069  1.00  0.00    -0.259 OA
BRANCH  39  41
HETATM   41  C   UNL     1      87.165  13.018  42.500  1.00  0.00     0.045 A 
HETATM   42  C   UNL     1      88.214  13.624  43.212  1.00  0.00     0.057 A 
HETATM   43  C   UNL     1      87.930  14.263  44.416  1.00  0.00     0.102 A 
HETATM   44  C   UNL     1      86.647  14.215  44.951  1.00  0.00     0.132 A 
HETATM   45  C   UNL     1      85.638  13.528  44.290  1.00  0.00     0.102 A 
HETATM   46  C   UNL     1      85.882  12.935  43.061  1.00  0.00     0.057 A 
BRANCH  43  47
HETATM   47  O   UNL     1      88.876  14.966  45.108  1.00  0.00    -0.358 OA
HETATM   48  H   UNL     1      89.650  14.396  45.263  1.00  0.00     0.217 HD
ENDBRANCH  43  47
BRANCH  44  49
HETATM   49  O   UNL     1      86.360  14.836  46.137  1.00  0.00    -0.356 OA
HETATM   50  H   UNL     1      85.536  14.409  46.447  1.00  0.00     0.218 HD
ENDBRANCH  44  49
BRANCH  45  51
HETATM   51  O   UNL     1      84.396  13.434  44.845  1.00  0.00    -0.358 OA
HETATM   52  H   UNL     1      84.239  14.302  45.267  1.00  0.00     0.217 HD
ENDBRANCH  45  51
ENDBRANCH  39  41
ENDBRANCH  38  39
ENDBRANCH   6  38
BRANCH   2  53
HETATM   53  O   UNL     1      92.098  11.853  38.465  1.00  0.00    -0.306 OA
BRANCH  53  54
HETATM   54  C   UNL     1      93.006  12.731  37.996  1.00  0.00     0.294 C 
HETATM   55  O   UNL     1      92.868  13.424  36.999  1.00  0.00    -0.259 OA
BRANCH  54  56
HETATM   56  C   UNL     1      94.229  12.711  38.824  1.00  0.00     0.045 A 
HETATM   57  C   UNL     1      95.041  11.569  38.774  1.00  0.00     0.057 A 
HETATM   58  C   UNL     1      96.235  11.536  39.481  1.00  0.00     0.102 A 
HETATM   59  C   UNL     1      96.641  12.648  40.203  1.00  0.00     0.132 A 
HETATM   60  C   UNL     1      95.841  13.785  40.244  1.00  0.00     0.102 A 
HETATM   61  C   UNL     1      94.620  13.824  39.578  1.00  0.00     0.057 A 
BRANCH  58  62
HETATM   62  O   UNL     1      97.042  10.433  39.477  1.00  0.00    -0.358 OA
HETATM   63  H   UNL     1      97.479  10.370  40.346  1.00  0.00     0.217 HD
ENDBRANCH  58  62
BRANCH  59  64
HETATM   64  O   UNL     1      97.837  12.644  40.867  1.00  0.00    -0.356 OA
HETATM   65  H   UNL     1      98.113  13.585  40.872  1.00  0.00     0.218 HD
ENDBRANCH  59  64
BRANCH  60  66
HETATM   66  O   UNL     1      96.266  14.890  40.923  1.00  0.00    -0.358 OA
HETATM   67  H   UNL     1      95.820  15.640  40.479  1.00  0.00     0.217 HD
ENDBRANCH  60  66
ENDBRANCH  54  56
ENDBRANCH  53  54
ENDBRANCH   2  53
BRANCH   4  68
HETATM   68  O   UNL     1      90.405  13.566  40.156  1.00  0.00    -0.304 OA
BRANCH  68  69
HETATM   69  C   UNL     1      91.110  13.357  41.310  1.00  0.00     0.294 C 
HETATM   70  O   UNL     1      91.278  12.240  41.771  1.00  0.00    -0.259 OA
BRANCH  69  71
HETATM   71  C   UNL     1      91.559  14.567  42.035  1.00  0.00     0.045 A 
HETATM   72  C   UNL     1      90.703  15.666  42.203  1.00  0.00     0.057 A 
HETATM   73  C   UNL     1      91.112  16.715  43.021  1.00  0.00     0.102 A 
HETATM   74  C   UNL     1      92.360  16.680  43.635  1.00  0.00     0.132 A 
HETATM   75  C   UNL     1      93.230  15.625  43.397  1.00  0.00     0.102 A 
HETATM   76  C   UNL     1      92.846  14.567  42.585  1.00  0.00     0.057 A 
BRANCH  73  77
HETATM   77  O   UNL     1      90.317  17.798  43.272  1.00  0.00    -0.358 OA
HETATM   78  H   UNL     1      90.796  18.403  43.869  1.00  0.00     0.217 HD
ENDBRANCH  73  77
BRANCH  74  79
HETATM   79  O   UNL     1      92.753  17.680  44.484  1.00  0.00    -0.356 OA
HETATM   80  H   UNL     1      92.688  17.279  45.376  1.00  0.00     0.218 HD
ENDBRANCH  74  79
BRANCH  75  81
HETATM   81  O   UNL     1      94.460  15.614  43.991  1.00  0.00    -0.358 OA
HETATM   82  H   UNL     1      94.435  14.830  44.581  1.00  0.00     0.217 HD
ENDBRANCH  75  81
ENDBRANCH  69  71
ENDBRANCH  68  69
ENDBRANCH   4  68
TORSDOF 31
ENDMDL
MODEL 2
REMARK VINA RESULT:    -9.293     14.635     18.986
REMARK INTER + INTRA:         -28.530
REMARK INTER:                 -22.214
REMARK INTRA:                  -6.316
REMARK UNBOUND:                -6.470
REMARK  31 active torsions:
REMARK  status: ('A' for Active; 'I' for Inactive)
REMARK    1  A    between atoms: O_2  and  C_27 
REMARK    2  A    between atoms: O_2  and  C_33 
REMARK    3  A    between atoms: O_3  and  C_34 
REMARK    4  A    between atoms: O_3  and  C_28 
REMARK    5  A    between atoms: O_4  and  C_35 
REMARK    6  A    between atoms: O_4  and  C_29 
REMARK    7  A    between atoms: O_5  and  C_36 
REMARK    8  A    between atoms: O_5  and  C_31 
REMARK    9  A    between atoms: O_6  and  C_32 
REMARK   10  A    between atoms: O_6  and  C_39 
REMARK   11  A    between atoms: O_12  and  C_51 
REMARK   12  A    between atoms: O_13  and  C_52 
REMARK   13  A    between atoms: O_14  and  C_53 
REMARK   14  A    between atoms: O_15  and  C_54 
REMARK   15  A    between atoms: O_16  and  C_55 
REMARK   16  A    between atoms: O_17  and  C_56 
REMARK   17  A    between atoms: O_18  and  C_59 
REMARK   18  A    between atoms: O_19  and  C_60 
REMARK   19  A    between atoms: O_20  and  C_61 
REMARK   20  A    between atoms: O_21  and  C_62 
REMARK   21  A    between atoms: O_22  and  C_63 
REMARK   22  A    between atoms: O_23  and  C_64 
REMARK   23  A    between atoms: O_24  and  C_65 
REMARK   24  A    between atoms: O_25  and  C_66 
REMARK   25  A    between atoms: O_26  and  C_67 
REMARK   26  A    between atoms: C_30  and  C_32 
REMARK   27  A    between atoms: C_33  and  C_37 
REMARK   28  A    between atoms: C_34  and  C_38 
REMARK   29  A    between atoms: C_35  and  C_40 
REMARK   30  A    between atoms: C_36  and  C_41 
REMARK   31  A    between atoms: C_39  and  C_42 
ROOT
HETATM    1  O   UNL     1      80.818  23.988  39.451  1.00  0.00    -0.348 OA
HETATM    2  C   UNL     1      79.022  24.880  37.387  1.00  0.00     0.198 C 
HETATM    3  C   UNL     1      80.515  24.594  37.107  1.00  0.00     0.195 C 
HETATM    4  C   UNL     1      78.893  25.358  38.857  1.00  0.00     0.220 C 
HETATM    5  C   UNL     1      81.005  23.519  38.107  1.00  0.00     0.181 C 
HETATM    6  C   UNL     1      79.445  24.226  39.761  1.00  0.00     0.302 C 
ENDROOT
BRANCH   5   7
HETATM    7  C   UNL     1      82.485  23.172  37.875  1.00  0.00     0.213 C 
BRANCH   7   8
HETATM    8  O   UNL     1      83.199  24.274  37.290  1.00  0.00    -0.315 OA
BRANCH   8   9
HETATM    9  C   UNL     1      84.344  24.612  37.943  1.00  0.00     0.293 C 
HETATM   10  O   UNL     1      85.307  23.892  38.143  1.00  0.00    -0.259 OA
BRANCH   9  11
HETATM   11  C   UNL     1      84.268  26.019  38.394  1.00  0.00     0.045 A 
HETATM   12  C   UNL     1      85.119  26.506  39.403  1.00  0.00     0.057 A 
HETATM   13  C   UNL     1      85.056  27.852  39.747  1.00  0.00     0.102 A 
HETATM   14  C   UNL     1      84.155  28.698  39.107  1.00  0.00     0.132 A 
HETATM   15  C   UNL     1      83.314  28.209  38.116  1.00  0.00     0.102 A 
HETATM   16  C   UNL     1      83.368  26.873  37.743  1.00  0.00     0.057 A 
BRANCH  13  17
HETATM   17  O   UNL     1      85.870  28.397  40.700  1.00  0.00    -0.358 OA
HETATM   18  H   UNL     1      85.383  28.442  41.542  1.00  0.00     0.217 HD
ENDBRANCH  13  17
BRANCH  14  19
HETATM   19  O   UNL     1      84.091  30.024  39.437  1.00  0.00    -0.356 OA
HETATM   20  H   UNL     1      84.802  30.146  40.099  1.00  0.00     0.218 HD
ENDBRANCH  14  19
BRANCH  15  21
HETATM   21  O   UNL     1      82.433  29.042  37.492  1.00  0.00    -0.358 OA
HETATM   22  H   UNL     1      82.360  28.691  36.580  1.00  0.00     0.217 HD
ENDBRANCH  15  21
ENDBRANCH   9  11
ENDBRANCH   8   9
ENDBRANCH   7   8
ENDBRANCH   5   7
BRANCH   3  23
HETATM   23  O   UNL     1      80.725  24.112  35.763  1.00  0.00    -0.307 OA
BRANCH  23  24
HETATM   24  C   UNL     1      80.983  24.847  34.649  1.00  0.00     0.294 C 
HETATM   25  O   UNL     1      81.824  25.738  34.682  1.00  0.00    -0.259 OA
BRANCH  24  26
HETATM   26  C   UNL     1      80.320  24.539  33.359  1.00  0.00     0.045 A 
HETATM   27  C   UNL     1      80.019  23.229  32.956  1.00  0.00     0.057 A 
HETATM   28  C   UNL     1      79.487  23.007  31.690  1.00  0.00     0.102 A 
HETATM   29  C   UNL     1      79.166  24.081  30.869  1.00  0.00     0.132 A 
HETATM   30  C   UNL     1      79.371  25.380  31.309  1.00  0.00     0.102 A 
HETATM   31  C   UNL     1      79.942  25.623  32.551  1.00  0.00     0.057 A 
BRANCH  28  32
HETATM   32  O   UNL     1      79.280  21.747  31.202  1.00  0.00    -0.358 OA
HETATM   33  H   UNL     1      80.063  21.473  30.690  1.00  0.00     0.217 HD
ENDBRANCH  28  32
BRANCH  29  34
HETATM   34  O   UNL     1      78.645  23.871  29.622  1.00  0.00    -0.356 OA
HETATM   35  H   UNL     1      78.342  24.758  29.336  1.00  0.00     0.218 HD
ENDBRANCH  29  34
BRANCH  30  36
HETATM   36  O   UNL     1      79.028  26.433  30.513  1.00  0.00    -0.358 OA
HETATM   37  H   UNL     1      79.622  26.365  29.738  1.00  0.00     0.217 HD
ENDBRANCH  30  36
ENDBRANCH  24  26
ENDBRANCH  23  24
ENDBRANCH   3  23
BRANCH   6  38
HETATM   38  O   UNL     1      79.334  24.658  41.130  1.00  0.00    -0.283 OA
BRANCH  38  39
HETATM   39  C   UNL     1      79.030  23.907  42.214  1.00  0.00     0.295 C 
HETATM   40  O   UNL     1      77.876  23.856  42.625  1.00  0.00    -0.259 OA
BRANCH  39  41
HETATM   41  C   UNL     1      80.099  23.234  42.986  1.00  0.00     0.045 A 
HETATM   42  C   UNL     1      80.680  23.810  44.128  1.00  0.00     0.057 A 
HETATM   43  C   UNL     1      81.629  23.082  44.841  1.00  0.00     0.102 A 
HETATM   44  C   UNL     1      82.066  21.848  44.371  1.00  0.00     0.132 A 
HETATM   45  C   UNL     1      81.560  21.331  43.186  1.00  0.00     0.102 A 
HETATM   46  C   UNL     1      80.570  22.009  42.491  1.00  0.00     0.057 A 
BRANCH  43  47
HETATM   47  O   UNL     1      82.157  23.530  46.020  1.00  0.00    -0.358 OA
HETATM   48  H   UNL     1      82.260  22.778  46.631  1.00  0.00     0.217 HD
ENDBRANCH  43  47
BRANCH  44  49
HETATM   49  O   UNL     1      83.003  21.128  45.062  1.00  0.00    -0.356 OA
HETATM   50  H   UNL     1      83.752  21.035  44.440  1.00  0.00     0.218 HD
ENDBRANCH  44  49
BRANCH  45  51
HETATM   51  O   UNL     1      82.031  20.148  42.698  1.00  0.00    -0.358 OA
HETATM   52  H   UNL     1      81.788  20.148  41.751  1.00  0.00     0.217 HD
ENDBRANCH  45  51
ENDBRANCH  39  41
ENDBRANCH  38  39
ENDBRANCH   6  38
BRANCH   2  53
HETATM   53  O   UNL     1      78.416  25.758  36.401  1.00  0.00    -0.306 OA
BRANCH  53  54
HETATM   54  C   UNL     1      77.451  25.277  35.592  1.00  0.00     0.294 C 
HETATM   55  O   UNL     1      77.082  24.112  35.550  1.00  0.00    -0.259 OA
BRANCH  54  56
HETATM   56  C   UNL     1      76.926  26.342  34.713  1.00  0.00     0.045 A 
HETATM   57  C   UNL     1      75.593  26.252  34.290  1.00  0.00     0.057 A 
HETATM   58  C   UNL     1      75.039  27.266  33.522  1.00  0.00     0.102 A 
HETATM   59  C   UNL     1      75.795  28.386  33.209  1.00  0.00     0.132 A 
HETATM   60  C   UNL     1      77.115  28.480  33.637  1.00  0.00     0.102 A 
HETATM   61  C   UNL     1      77.703  27.455  34.371  1.00  0.00     0.057 A 
BRANCH  58  62
HETATM   62  O   UNL     1      73.751  27.205  33.072  1.00  0.00    -0.358 OA
HETATM   63  H   UNL     1      73.195  27.756  33.654  1.00  0.00     0.217 HD
ENDBRANCH  58  62
BRANCH  59  64
HETATM   64  O   UNL     1      75.247  29.413  32.491  1.00  0.00    -0.356 OA
HETATM   65  H   UNL     1      76.006  29.803  32.009  1.00  0.00     0.218 HD
ENDBRANCH  59  64
BRANCH  60  66
HETATM   66  O   UNL     1      77.840  29.603  33.358  1.00  0.00    -0.358 OA
HETATM   67  H   UNL     1      78.360  29.369  32.561  1.00  0.00     0.217 HD
ENDBRANCH  60  66
ENDBRANCH  54  56
ENDBRANCH  53  54
ENDBRANCH   2  53
BRANCH   4  68
HETATM   68  O   UNL     1      77.513  25.637  39.198  1.00  0.00    -0.304 OA
BRANCH  68  69
HETATM   69  C   UNL     1      77.145  26.897  39.586  1.00  0.00     0.294 C 
HETATM   70  O   UNL     1      76.908  27.171  40.751  1.00  0.00    -0.259 OA
BRANCH  69  71
HETATM   71  C   UNL     1      76.932  27.883  38.502  1.00  0.00     0.045 A 
HETATM   72  C   UNL     1      75.697  27.975  37.843  1.00  0.00     0.057 A 
HETATM   73  C   UNL     1      75.495  29.016  36.942  1.00  0.00     0.102 A 
HETATM   74  C   UNL     1      76.514  29.928  36.682  1.00  0.00     0.132 A 
HETATM   75  C   UNL     1      77.757  29.779  37.280  1.00  0.00     0.102 A 
HETATM   76  C   UNL     1      77.985  28.749  38.183  1.00  0.00     0.057 A 
BRANCH  73  77
HETATM   77  O   UNL     1      74.305  29.202  36.296  1.00  0.00    -0.358 OA
HETATM   78  H   UNL     1      74.458  29.775  35.522  1.00  0.00     0.217 HD
ENDBRANCH  73  77
BRANCH  74  79
HETATM   79  O   UNL     1      76.311  30.987  35.839  1.00  0.00    -0.356 OA
HETATM   80  H   UNL     1      75.337  31.040  35.747  1.00  0.00     0.218 HD
ENDBRANCH  74  79
BRANCH  75  81
HETATM   81  O   UNL     1      78.755  30.669  37.001  1.00  0.00    -0.358 OA
HETATM   82  H   UNL     1      79.426  30.136  36.523  1.00  0.00     0.217 HD
ENDBRANCH  75  81
ENDBRANCH  69  71
ENDBRANCH  68  69
ENDBRANCH   4  68
TORSDOF 31
ENDMDL
MODEL 3
REMARK VINA RESULT:    -9.238     14.731     19.127
REMARK INTER + INTRA:         -28.400
REMARK INTER:                 -22.242
REMARK INTRA:                  -6.158
REMARK UNBOUND:                -6.470
REMARK  31 active torsions:
REMARK  status: ('A' for Active; 'I' for Inactive)
REMARK    1  A    between atoms: O_2  and  C_27 
REMARK    2  A    between atoms: O_2  and  C_33 
REMARK    3  A    between atoms: O_3  and  C_34 
REMARK    4  A    between atoms: O_3  and  C_28 
REMARK    5  A    between atoms: O_4  and  C_35 
REMARK    6  A    between atoms: O_4  and  C_29 
REMARK    7  A    between atoms: O_5  and  C_36 
REMARK    8  A    between atoms: O_5  and  C_31 
REMARK    9  A    between atoms: O_6  and  C_32 
REMARK   10  A    between atoms: O_6  and  C_39 
REMARK   11  A    between atoms: O_12  and  C_51 
REMARK   12  A    between atoms: O_13  and  C_52 
REMARK   13  A    between atoms: O_14  and  C_53 
REMARK   14  A    between atoms: O_15  and  C_54 
REMARK   15  A    between atoms: O_16  and  C_55 
REMARK   16  A    between atoms: O_17  and  C_56 
REMARK   17  A    between atoms: O_18  and  C_59 
REMARK   18  A    between atoms: O_19  and  C_60 
REMARK   19  A    between atoms: O_20  and  C_61 
REMARK   20  A    between atoms: O_21  and  C_62 
REMARK   21  A    between atoms: O_22  and  C_63 
REMARK   22  A    between atoms: O_23  and  C_64 
REMARK   23  A    between atoms: O_24  and  C_65 
REMARK   24  A    between atoms: O_25  and  C_66 
REMARK   25  A    between atoms: O_26  and  C_67 
REMARK   26  A    between atoms: C_30  and  C_32 
REMARK   27  A    between atoms: C_33  and  C_37 
REMARK   28  A    between atoms: C_34  and  C_38 
REMARK   29  A    between atoms: C_35  and  C_40 
REMARK   30  A    between atoms: C_36  and  C_41 
REMARK   31  A    between atoms: C_39  and  C_42 
ROOT
HETATM    1  O   UNL     1      80.774  24.072  39.390  1.00  0.00    -0.348 OA
HETATM    2  C   UNL     1      78.974  24.955  37.325  1.00  0.00     0.198 C 
HETATM    3  C   UNL     1      80.463  24.653  37.041  1.00  0.00     0.195 C 
HETATM    4  C   UNL     1      78.858  25.452  38.790  1.00  0.00     0.220 C 
HETATM    5  C   UNL     1      80.949  23.586  38.051  1.00  0.00     0.181 C 
HETATM    6  C   UNL     1      79.405  24.327  39.705  1.00  0.00     0.302 C 
ENDROOT
BRANCH   5   7
HETATM    7  C   UNL     1      82.425  23.222  37.815  1.00  0.00     0.213 C 
BRANCH   7   8
HETATM    8  O   UNL     1      83.155  24.325  37.251  1.00  0.00    -0.315 OA
BRANCH   8   9
HETATM    9  C   UNL     1      84.290  24.652  37.926  1.00  0.00     0.293 C 
HETATM   10  O   UNL     1      85.217  23.907  38.193  1.00  0.00    -0.259 OA
BRANCH   9  11
HETATM   11  C   UNL     1      84.253  26.081  38.306  1.00  0.00     0.045 A 
HETATM   12  C   UNL     1      83.388  26.983  37.662  1.00  0.00     0.057 A 
HETATM   13  C   UNL     1      83.343  28.303  38.098  1.00  0.00     0.102 A 
HETATM   14  C   UNL     1      84.150  28.722  39.151  1.00  0.00     0.132 A 
HETATM   15  C   UNL     1      85.006  27.827  39.779  1.00  0.00     0.102 A 
HETATM   16  C   UNL     1      85.060  26.501  39.373  1.00  0.00     0.057 A 
BRANCH  13  17
HETATM   17  O   UNL     1      82.508  29.227  37.534  1.00  0.00    -0.358 OA
HETATM   18  H   UNL     1      83.012  30.041  37.358  1.00  0.00     0.217 HD
ENDBRANCH  13  17
BRANCH  14  19
HETATM   19  O   UNL     1      84.107  30.017  39.589  1.00  0.00    -0.356 OA
HETATM   20  H   UNL     1      84.296  30.552  38.791  1.00  0.00     0.218 HD
ENDBRANCH  14  19
BRANCH  15  21
HETATM   21  O   UNL     1      85.796  28.242  40.810  1.00  0.00    -0.358 OA
HETATM   22  H   UNL     1      85.303  28.982  41.221  1.00  0.00     0.217 HD
ENDBRANCH  15  21
ENDBRANCH   9  11
ENDBRANCH   8   9
ENDBRANCH   7   8
ENDBRANCH   5   7
BRANCH   3  23
HETATM   23  O   UNL     1      80.662  24.152  35.702  1.00  0.00    -0.307 OA
BRANCH  23  24
HETATM   24  C   UNL     1      81.015  24.859  34.595  1.00  0.00     0.294 C 
HETATM   25  O   UNL     1      81.960  25.638  34.640  1.00  0.00    -0.259 OA
BRANCH  24  26
HETATM   26  C   UNL     1      80.325  24.646  33.300  1.00  0.00     0.045 A 
HETATM   27  C   UNL     1      80.186  23.378  32.715  1.00  0.00     0.057 A 
HETATM   28  C   UNL     1      79.616  23.267  31.451  1.00  0.00     0.102 A 
HETATM   29  C   UNL     1      79.101  24.389  30.815  1.00  0.00     0.132 A 
HETATM   30  C   UNL     1      79.149  25.627  31.438  1.00  0.00     0.102 A 
HETATM   31  C   UNL     1      79.754  25.768  32.681  1.00  0.00     0.057 A 
BRANCH  28  32
HETATM   32  O   UNL     1      79.557  22.074  30.786  1.00  0.00    -0.358 OA
HETATM   33  H   UNL     1      78.752  22.057  30.236  1.00  0.00     0.217 HD
ENDBRANCH  28  32
BRANCH  29  34
HETATM   34  O   UNL     1      78.541  24.288  29.571  1.00  0.00    -0.356 OA
HETATM   35  H   UNL     1      77.598  24.513  29.712  1.00  0.00     0.218 HD
ENDBRANCH  29  34
BRANCH  30  36
HETATM   36  O   UNL     1      78.616  26.722  30.824  1.00  0.00    -0.358 OA
HETATM   37  H   UNL     1      79.068  26.767  29.957  1.00  0.00     0.217 HD
ENDBRANCH  30  36
ENDBRANCH  24  26
ENDBRANCH  23  24
ENDBRANCH   3  23
BRANCH   6  38
HETATM   38  O   UNL     1      79.306  24.776  41.069  1.00  0.00    -0.283 OA
BRANCH  38  39
HETATM   39  C   UNL     1      78.991  24.044  42.163  1.00  0.00     0.295 C 
HETATM   40  O   UNL     1      77.859  24.094  42.633  1.00  0.00    -0.259 OA
BRANCH  39  41
HETATM   41  C   UNL     1      80.032  23.268  42.873  1.00  0.00     0.045 A 
HETATM   42  C   UNL     1      80.456  22.001  42.439  1.00  0.00     0.057 A 
HETATM   43  C   UNL     1      81.491  21.367  43.120  1.00  0.00     0.102 A 
HETATM   44  C   UNL     1      82.028  21.937  44.270  1.00  0.00     0.132 A 
HETATM   45  C   UNL     1      81.535  23.142  44.750  1.00  0.00     0.102 A 
HETATM   46  C   UNL     1      80.545  23.822  44.056  1.00  0.00     0.057 A 
BRANCH  43  47
HETATM   47  O   UNL     1      82.030  20.186  42.692  1.00  0.00    -0.358 OA
HETATM   48  H   UNL     1      81.388  19.469  42.841  1.00  0.00     0.217 HD
ENDBRANCH  43  47
BRANCH  44  49
HETATM   49  O   UNL     1      83.042  21.318  44.949  1.00  0.00    -0.356 OA
HETATM   50  H   UNL     1      83.655  21.009  44.252  1.00  0.00     0.218 HD
ENDBRANCH  44  49
BRANCH  45  51
HETATM   51  O   UNL     1      82.023  23.670  45.909  1.00  0.00    -0.358 OA
HETATM   52  H   UNL     1      81.508  24.489  46.052  1.00  0.00     0.217 HD
ENDBRANCH  45  51
ENDBRANCH  39  41
ENDBRANCH  38  39
ENDBRANCH   6  38
BRANCH   2  53
HETATM   53  O   UNL     1      78.370  25.827  36.332  1.00  0.00    -0.306 OA
BRANCH  53  54
HETATM   54  C   UNL     1      77.350  25.365  35.581  1.00  0.00     0.294 C 
HETATM   55  O   UNL     1      77.012  24.194  35.494  1.00  0.00    -0.259 OA
BRANCH  54  56
HETATM   56  C   UNL     1      76.717  26.466  34.827  1.00  0.00     0.045 A 
HETATM   57  C   UNL     1      77.534  27.511  34.374  1.00  0.00     0.057 A 
HETATM   58  C   UNL     1      76.993  28.529  33.601  1.00  0.00     0.102 A 
HETATM   59  C   UNL     1      75.653  28.488  33.245  1.00  0.00     0.132 A 
HETATM   60  C   UNL     1      74.845  27.445  33.686  1.00  0.00     0.102 A 
HETATM   61  C   UNL     1      75.357  26.438  34.497  1.00  0.00     0.057 A 
BRANCH  58  62
HETATM   62  O   UNL     1      77.751  29.576  33.159  1.00  0.00    -0.358 OA
HETATM   63  H   UNL     1      77.412  30.394  33.568  1.00  0.00     0.217 HD
ENDBRANCH  58  62
BRANCH  59  64
HETATM   64  O   UNL     1      75.119  29.461  32.446  1.00  0.00    -0.356 OA
HETATM   65  H   UNL     1      75.875  29.774  31.907  1.00  0.00     0.218 HD
ENDBRANCH  59  64
BRANCH  60  66
HETATM   66  O   UNL     1      73.537  27.391  33.298  1.00  0.00    -0.358 OA
HETATM   67  H   UNL     1      73.358  26.437  33.165  1.00  0.00     0.217 HD
ENDBRANCH  60  66
ENDBRANCH  54  56
ENDBRANCH  53  54
ENDBRANCH   2  53
BRANCH   4  68
HETATM   68  O   UNL     1      77.482  25.748  39.136  1.00  0.00    -0.304 OA
BRANCH  68  69
HETATM   69  C   UNL     1      77.159  26.962  39.679  1.00  0.00     0.294 C 
HETATM   70  O   UNL     1      76.952  27.100  40.874  1.00  0.00    -0.259 OA
BRANCH  69  71
HETATM   71  C   UNL     1      76.955  28.077  38.726  1.00  0.00     0.045 A 
HETATM   72  C   UNL     1      78.020  28.912  38.356  1.00  0.00     0.057 A 
HETATM   73  C   UNL     1      77.818  29.846  37.344  1.00  0.00     0.102 A 
HETATM   74  C   UNL     1      76.572  29.963  36.736  1.00  0.00     0.132 A 
HETATM   75  C   UNL     1      75.506  29.186  37.167  1.00  0.00     0.102 A 
HETATM   76  C   UNL     1      75.681  28.247  38.174  1.00  0.00     0.057 A 
BRANCH  73  77
HETATM   77  O   UNL     1      78.818  30.663  36.895  1.00  0.00    -0.358 OA
HETATM   78  H   UNL     1      78.775  31.504  37.387  1.00  0.00     0.217 HD
ENDBRANCH  73  77
BRANCH  74  79
HETATM   79  O   UNL     1      76.375  30.841  35.704  1.00  0.00    -0.356 OA
HETATM   80  H   UNL     1      75.583  31.353  35.970  1.00  0.00     0.218 HD
ENDBRANCH  74  79
BRANCH  75  81
HETATM   81  O   UNL     1      74.283  29.326  36.574  1.00  0.00    -0.358 OA
HETATM   82  H   UNL     1      73.746  28.598  36.956  1.00  0.00     0.217 HD
ENDBRANCH  75  81
ENDBRANCH  69  71
ENDBRANCH  68  69
ENDBRANCH   4  68
TORSDOF 31
ENDMDL
MODEL 4
REMARK VINA RESULT:    -9.220     13.799     18.682
REMARK INTER + INTRA:         -28.357
REMARK INTER:                 -21.049
REMARK INTRA:                  -7.307
REMARK UNBOUND:                -6.470
REMARK  31 active torsions:
REMARK  status: ('A' for Active; 'I' for Inactive)
REMARK    1  A    between atoms: O_2  and  C_27 
REMARK    2  A    between atoms: O_2  and  C_33 
REMARK    3  A    between atoms: O_3  and  C_34 
REMARK    4  A    between atoms: O_3  and  C_28 
REMARK    5  A    between atoms: O_4  and  C_35 
REMARK    6  A    between atoms: O_4  and  C_29 
REMARK    7  A    between atoms: O_5  and  C_36 
REMARK    8  A    between atoms: O_5  and  C_31 
REMARK    9  A    between atoms: O_6  and  C_32 
REMARK   10  A    between atoms: O_6  and  C_39 
REMARK   11  A    between atoms: O_12  and  C_51 
REMARK   12  A    between atoms: O_13  and  C_52 
REMARK   13  A    between atoms: O_14  and  C_53 
REMARK   14  A    between atoms: O_15  and  C_54 
REMARK   15  A    between atoms: O_16  and  C_55 
REMARK   16  A    between atoms: O_17  and  C_56 
REMARK   17  A    between atoms: O_18  and  C_59 
REMARK   18  A    between atoms: O_19  and  C_60 
REMARK   19  A    between atoms: O_20  and  C_61 
REMARK   20  A    between atoms: O_21  and  C_62 
REMARK   21  A    between atoms: O_22  and  C_63 
REMARK   22  A    between atoms: O_23  and  C_64 
REMARK   23  A    between atoms: O_24  and  C_65 
REMARK   24  A    between atoms: O_25  and  C_66 
REMARK   25  A    between atoms: O_26  and  C_67 
REMARK   26  A    between atoms: C_30  and  C_32 
REMARK   27  A    between atoms: C_33  and  C_37 
REMARK   28  A    between atoms: C_34  and  C_38 
REMARK   29  A    between atoms: C_35  and  C_40 
REMARK   30  A    between atoms: C_36  and  C_41 
REMARK   31  A    between atoms: C_39  and  C_42 
ROOT
HETATM    1  O   UNL     1      76.910  25.296  38.308  1.00  0.00    -0.348 OA
HETATM    2  C   UNL     1      78.053  23.474  36.396  1.00  0.00     0.198 C 
HETATM    3  C   UNL     1      78.847  23.983  37.621  1.00  0.00     0.195 C 
HETATM    4  C   UNL     1      77.049  24.582  35.983  1.00  0.00     0.220 C 
HETATM    5  C   UNL     1      77.847  24.305  38.757  1.00  0.00     0.181 C 
HETATM    6  C   UNL     1      76.128  24.849  37.201  1.00  0.00     0.302 C 
ENDROOT
BRANCH   5   7
HETATM    7  C   UNL     1      78.572  24.803  40.018  1.00  0.00     0.213 C 
BRANCH   7   8
HETATM    8  O   UNL     1      78.399  23.895  41.118  1.00  0.00    -0.315 OA
BRANCH   8   9
HETATM    9  C   UNL     1      79.343  24.004  42.091  1.00  0.00     0.293 C 
HETATM   10  O   UNL     1      79.511  24.953  42.838  1.00  0.00    -0.259 OA
BRANCH   9  11
HETATM   11  C   UNL     1      80.169  22.778  42.130  1.00  0.00     0.045 A 
HETATM   12  C   UNL     1      80.912  22.437  43.274  1.00  0.00     0.057 A 
HETATM   13  C   UNL     1      81.621  21.241  43.287  1.00  0.00     0.102 A 
HETATM   14  C   UNL     1      81.600  20.402  42.177  1.00  0.00     0.132 A 
HETATM   15  C   UNL     1      80.869  20.747  41.048  1.00  0.00     0.102 A 
HETATM   16  C   UNL     1      80.141  21.928  41.016  1.00  0.00     0.057 A 
BRANCH  13  17
HETATM   17  O   UNL     1      82.344  20.836  44.374  1.00  0.00    -0.358 OA
HETATM   18  H   UNL     1      81.946  21.217  45.176  1.00  0.00     0.217 HD
ENDBRANCH  13  17
BRANCH  14  19
HETATM   19  O   UNL     1      82.291  19.221  42.184  1.00  0.00    -0.356 OA
HETATM   20  H   UNL     1      81.953  18.734  41.405  1.00  0.00     0.218 HD
ENDBRANCH  14  19
BRANCH  15  21
HETATM   21  O   UNL     1      80.851  19.921  39.963  1.00  0.00    -0.358 OA
HETATM   22  H   UNL     1      79.904  19.714  39.822  1.00  0.00     0.217 HD
ENDBRANCH  15  21
ENDBRANCH   9  11
ENDBRANCH   8   9
ENDBRANCH   7   8
ENDBRANCH   5   7
BRANCH   3  23
HETATM   23  O   UNL     1      79.790  22.997  38.095  1.00  0.00    -0.307 OA
BRANCH  23  24
HETATM   24  C   UNL     1      80.961  22.623  37.516  1.00  0.00     0.294 C 
HETATM   25  O   UNL     1      81.157  21.447  37.230  1.00  0.00    -0.259 OA
BRANCH  24  26
HETATM   26  C   UNL     1      81.986  23.628  37.143  1.00  0.00     0.045 A 
HETATM   27  C   UNL     1      82.791  24.276  38.092  1.00  0.00     0.057 A 
HETATM   28  C   UNL     1      83.661  25.280  37.679  1.00  0.00     0.102 A 
HETATM   29  C   UNL     1      83.803  25.570  36.329  1.00  0.00     0.132 A 
HETATM   30  C   UNL     1      83.079  24.859  35.383  1.00  0.00     0.102 A 
HETATM   31  C   UNL     1      82.172  23.884  35.776  1.00  0.00     0.057 A 
BRANCH  28  32
HETATM   32  O   UNL     1      84.386  26.022  38.570  1.00  0.00    -0.358 OA
HETATM   33  H   UNL     1      85.335  25.925  38.366  1.00  0.00     0.217 HD
ENDBRANCH  28  32
BRANCH  29  34
HETATM   34  O   UNL     1      84.654  26.558  35.915  1.00  0.00    -0.356 OA
HETATM   35  H   UNL     1      84.120  27.090  35.289  1.00  0.00     0.218 HD
ENDBRANCH  29  34
BRANCH  30  36
HETATM   36  O   UNL     1      83.242  25.127  34.056  1.00  0.00    -0.358 OA
HETATM   37  H   UNL     1      83.045  24.282  33.604  1.00  0.00     0.217 HD
ENDBRANCH  30  36
ENDBRANCH  24  26
ENDBRANCH  23  24
ENDBRANCH   3  23
BRANCH   6  38
HETATM   38  O   UNL     1      75.192  25.878  36.832  1.00  0.00    -0.283 OA
BRANCH  38  39
HETATM   39  C   UNL     1      75.300  27.211  37.041  1.00  0.00     0.295 C 
HETATM   40  O   UNL     1      74.635  27.753  37.917  1.00  0.00    -0.259 OA
BRANCH  39  41
HETATM   41  C   UNL     1      76.127  28.047  36.143  1.00  0.00     0.045 A 
HETATM   42  C   UNL     1      77.410  28.495  36.499  1.00  0.00     0.057 A 
HETATM   43  C   UNL     1      78.155  29.218  35.571  1.00  0.00     0.102 A 
HETATM   44  C   UNL     1      77.595  29.573  34.347  1.00  0.00     0.132 A 
HETATM   45  C   UNL     1      76.290  29.213  34.042  1.00  0.00     0.102 A 
HETATM   46  C   UNL     1      75.550  28.442  34.927  1.00  0.00     0.057 A 
BRANCH  43  47
HETATM   47  O   UNL     1      79.448  29.591  35.805  1.00  0.00    -0.358 OA
HETATM   48  H   UNL     1      79.478  30.548  35.983  1.00  0.00     0.217 HD
ENDBRANCH  43  47
BRANCH  44  49
HETATM   49  O   UNL     1      78.318  30.289  33.430  1.00  0.00    -0.356 OA
HETATM   50  H   UNL     1      79.199  30.399  33.842  1.00  0.00     0.218 HD
ENDBRANCH  44  49
BRANCH  45  51
HETATM   51  O   UNL     1      75.726  29.613  32.867  1.00  0.00    -0.358 OA
HETATM   52  H   UNL     1      76.305  29.247  32.169  1.00  0.00     0.217 HD
ENDBRANCH  45  51
ENDBRANCH  39  41
ENDBRANCH  38  39
ENDBRANCH   6  38
BRANCH   2  53
HETATM   53  O   UNL     1      78.907  22.989  35.326  1.00  0.00    -0.306 OA
BRANCH  53  54
HETATM   54  C   UNL     1      78.608  21.822  34.720  1.00  0.00     0.294 C 
HETATM   55  O   UNL     1      77.801  21.001  35.131  1.00  0.00    -0.259 OA
BRANCH  54  56
HETATM   56  C   UNL     1      79.431  21.637  33.508  1.00  0.00     0.045 A 
HETATM   57  C   UNL     1      80.638  22.345  33.414  1.00  0.00     0.057 A 
HETATM   58  C   UNL     1      81.475  22.147  32.326  1.00  0.00     0.102 A 
HETATM   59  C   UNL     1      81.135  21.218  31.353  1.00  0.00     0.132 A 
HETATM   60  C   UNL     1      79.943  20.509  31.451  1.00  0.00     0.102 A 
HETATM   61  C   UNL     1      79.069  20.723  32.511  1.00  0.00     0.057 A 
BRANCH  58  62
HETATM   62  O   UNL     1      82.648  22.834  32.187  1.00  0.00    -0.358 OA
HETATM   63  H   UNL     1      82.743  23.091  31.251  1.00  0.00     0.217 HD
ENDBRANCH  58  62
BRANCH  59  64
HETATM   64  O   UNL     1      81.973  20.981  30.299  1.00  0.00    -0.356 OA
HETATM   65  H   UNL     1      81.940  20.009  30.177  1.00  0.00     0.218 HD
ENDBRANCH  59  64
BRANCH  60  66
HETATM   66  O   UNL     1      79.635  19.569  30.511  1.00  0.00    -0.358 OA
HETATM   67  H   UNL     1      79.152  18.874  31.005  1.00  0.00     0.217 HD
ENDBRANCH  60  66
ENDBRANCH  54  56
ENDBRANCH  53  54
ENDBRANCH   2  53
BRANCH   4  68
HETATM   68  O   UNL     1      76.257  24.172  34.842  1.00  0.00    -0.304 OA
BRANCH  68  69
HETATM   69  C   UNL     1      76.207  24.960  33.724  1.00  0.00     0.294 C 
HETATM   70  O   UNL     1      75.152  25.382  33.277  1.00  0.00    -0.259 OA
BRANCH  69  71
HETATM   71  C   UNL     1      77.488  25.178  33.015  1.00  0.00     0.045 A 
HETATM   72  C   UNL     1      78.467  26.034  33.541  1.00  0.00     0.057 A 
HETATM   73  C   UNL     1      79.712  26.088  32.922  1.00  0.00     0.102 A 
HETATM   74  C   UNL     1      79.964  25.327  31.785  1.00  0.00     0.132 A 
HETATM   75  C   UNL     1      78.962  24.546  31.227  1.00  0.00     0.102 A 
HETATM   76  C   UNL     1      77.711  24.474  31.826  1.00  0.00     0.057 A 
BRANCH  73  77
HETATM   77  O   UNL     1      80.733  26.861  33.401  1.00  0.00    -0.358 OA
HETATM   78  H   UNL     1      80.363  27.711  33.703  1.00  0.00     0.217 HD
ENDBRANCH  73  77
BRANCH  74  79
HETATM   79  O   UNL     1      81.201  25.331  31.197  1.00  0.00    -0.356 OA
HETATM   80  H   UNL     1      81.781  24.887  31.850  1.00  0.00     0.218 HD
ENDBRANCH  74  79
BRANCH  75  81
HETATM   81  O   UNL     1      79.217  23.819  30.099  1.00  0.00    -0.358 OA
HETATM   82  H   UNL     1      79.111  22.886  30.385  1.00  0.00     0.217 HD
ENDBRANCH  75  81
ENDBRANCH  69  71
ENDBRANCH  68  69
ENDBRANCH   4  68
TORSDOF 31
ENDMDL
MODEL 5
REMARK VINA RESULT:    -9.205     13.241     20.029
REMARK INTER + INTRA:         -28.320
REMARK INTER:                 -22.957
REMARK INTRA:                  -5.363
REMARK UNBOUND:                -6.470
REMARK  31 active torsions:
REMARK  status: ('A' for Active; 'I' for Inactive)
REMARK    1  A    between atoms: O_2  and  C_27 
REMARK    2  A    between atoms: O_2  and  C_33 
REMARK    3  A    between atoms: O_3  and  C_34 
REMARK    4  A    between atoms: O_3  and  C_28 
REMARK    5  A    between atoms: O_4  and  C_35 
REMARK    6  A    between atoms: O_4  and  C_29 
REMARK    7  A    between atoms: O_5  and  C_36 
REMARK    8  A    between atoms: O_5  and  C_31 
REMARK    9  A    between atoms: O_6  and  C_32 
REMARK   10  A    between atoms: O_6  and  C_39 
REMARK   11  A    between atoms: O_12  and  C_51 
REMARK   12  A    between atoms: O_13  and  C_52 
REMARK   13  A    between atoms: O_14  and  C_53 
REMARK   14  A    between atoms: O_15  and  C_54 
REMARK   15  A    between atoms: O_16  and  C_55 
REMARK   16  A    between atoms: O_17  and  C_56 
REMARK   17  A    between atoms: O_18  and  C_59 
REMARK   18  A    between atoms: O_19  and  C_60 
REMARK   19  A    between atoms: O_20  and  C_61 
REMARK   20  A    between atoms: O_21  and  C_62 
REMARK   21  A    between atoms: O_22  and  C_63 
REMARK   22  A    between atoms: O_23  and  C_64 
REMARK   23  A    between atoms: O_24  and  C_65 
REMARK   24  A    between atoms: O_25  and  C_66 
REMARK   25  A    between atoms: O_26  and  C_67 
REMARK   26  A    between atoms: C_30  and  C_32 
REMARK   27  A    between atoms: C_33  and  C_37 
REMARK   28  A    between atoms: C_34  and  C_38 
REMARK   29  A    between atoms: C_35  and  C_40 
REMARK   30  A    between atoms: C_36  and  C_41 
REMARK   31  A    between atoms: C_39  and  C_42 
ROOT
HETATM    1  O   UNL     1      80.804  21.920  33.508  1.00  0.00    -0.348 OA
HETATM    2  C   UNL     1      79.166  23.854  32.145  1.00  0.00     0.198 C 
HETATM    3  C   UNL     1      79.324  23.851  33.682  1.00  0.00     0.195 C 
HETATM    4  C   UNL     1      79.305  22.392  31.647  1.00  0.00     0.220 C 
HETATM    5  C   UNL     1      80.708  23.252  34.034  1.00  0.00     0.181 C 
HETATM    6  C   UNL     1      80.702  21.884  32.084  1.00  0.00     0.302 C 
ENDROOT
BRANCH   5   7
HETATM    7  C   UNL     1      80.941  23.233  35.554  1.00  0.00     0.213 C 
BRANCH   7   8
HETATM    8  O   UNL     1      82.317  23.489  35.878  1.00  0.00    -0.315 OA
BRANCH   8   9
HETATM    9  C   UNL     1      82.666  24.803  35.851  1.00  0.00     0.293 C 
HETATM   10  O   UNL     1      82.296  25.637  35.042  1.00  0.00    -0.259 OA
BRANCH   9  11
HETATM   11  C   UNL     1      83.585  25.103  36.970  1.00  0.00     0.045 A 
HETATM   12  C   UNL     1      84.681  24.268  37.254  1.00  0.00     0.057 A 
HETATM   13  C   UNL     1      85.555  24.626  38.276  1.00  0.00     0.102 A 
HETATM   14  C   UNL     1      85.338  25.788  39.008  1.00  0.00     0.132 A 
HETATM   15  C   UNL     1      84.251  26.605  38.726  1.00  0.00     0.102 A 
HETATM   16  C   UNL     1      83.373  26.278  37.703  1.00  0.00     0.057 A 
BRANCH  13  17
HETATM   17  O   UNL     1      86.653  23.874  38.589  1.00  0.00    -0.358 OA
HETATM   18  H   UNL     1      86.680  23.097  38.003  1.00  0.00     0.217 HD
ENDBRANCH  13  17
BRANCH  14  19
HETATM   19  O   UNL     1      86.197  26.149  40.010  1.00  0.00    -0.356 OA
HETATM   20  H   UNL     1      86.949  26.573  39.548  1.00  0.00     0.218 HD
ENDBRANCH  14  19
BRANCH  15  21
HETATM   21  O   UNL     1      84.043  27.744  39.447  1.00  0.00    -0.358 OA
HETATM   22  H   UNL     1      84.601  27.639  40.246  1.00  0.00     0.217 HD
ENDBRANCH  15  21
ENDBRANCH   9  11
ENDBRANCH   8   9
ENDBRANCH   7   8
ENDBRANCH   5   7
BRANCH   3  23
HETATM   23  O   UNL     1      79.240  25.183  34.233  1.00  0.00    -0.307 OA
BRANCH  23  24
HETATM   24  C   UNL     1      78.203  25.734  34.918  1.00  0.00     0.294 C 
HETATM   25  O   UNL     1      77.165  25.101  35.073  1.00  0.00    -0.259 OA
BRANCH  24  26
HETATM   26  C   UNL     1      78.330  27.065  35.559  1.00  0.00     0.045 A 
HETATM   27  C   UNL     1      77.248  27.947  35.694  1.00  0.00     0.057 A 
HETATM   28  C   UNL     1      77.463  29.219  36.215  1.00  0.00     0.102 A 
HETATM   29  C   UNL     1      78.718  29.577  36.689  1.00  0.00     0.132 A 
HETATM   30  C   UNL     1      79.765  28.667  36.647  1.00  0.00     0.102 A 
HETATM   31  C   UNL     1      79.583  27.408  36.090  1.00  0.00     0.057 A 
BRANCH  28  32
HETATM   32  O   UNL     1      76.471  30.158  36.265  1.00  0.00    -0.358 OA
HETATM   33  H   UNL     1      75.751  29.892  35.664  1.00  0.00     0.217 HD
ENDBRANCH  28  32
BRANCH  29  34
HETATM   34  O   UNL     1      78.938  30.826  37.201  1.00  0.00    -0.356 OA
HETATM   35  H   UNL     1      78.982  30.685  38.169  1.00  0.00     0.218 HD
ENDBRANCH  29  34
BRANCH  30  36
HETATM   36  O   UNL     1      80.989  29.012  37.140  1.00  0.00    -0.358 OA
HETATM   37  H   UNL     1      81.327  28.196  37.562  1.00  0.00     0.217 HD
ENDBRANCH  30  36
ENDBRANCH  24  26
ENDBRANCH  23  24
ENDBRANCH   3  23
BRANCH   6  38
HETATM   38  O   UNL     1      80.843  20.526  31.630  1.00  0.00    -0.283 OA
BRANCH  38  39
HETATM   39  C   UNL     1      81.647  20.059  30.646  1.00  0.00     0.295 C 
HETATM   40  O   UNL     1      82.229  20.842  29.903  1.00  0.00    -0.259 OA
BRANCH  39  41
HETATM   41  C   UNL     1      81.742  18.607  30.378  1.00  0.00     0.045 A 
HETATM   42  C   UNL     1      81.201  17.643  31.246  1.00  0.00     0.057 A 
HETATM   43  C   UNL     1      81.269  16.300  30.887  1.00  0.00     0.102 A 
HETATM   44  C   UNL     1      81.948  15.914  29.736  1.00  0.00     0.132 A 
HETATM   45  C   UNL     1      82.566  16.864  28.936  1.00  0.00     0.102 A 
HETATM   46  C   UNL     1      82.462  18.213  29.241  1.00  0.00     0.057 A 
BRANCH  43  47
HETATM   47  O   UNL     1      80.670  15.317  31.626  1.00  0.00    -0.358 OA
HETATM   48  H   UNL     1      80.067  15.725  32.272  1.00  0.00     0.217 HD
ENDBRANCH  43  47
BRANCH  44  49
HETATM   49  O   UNL     1      82.024  14.594  29.379  1.00  0.00    -0.356 OA
HETATM   50  H   UNL     1      82.959  14.350  29.531  1.00  0.00     0.218 HD
ENDBRANCH  44  49
BRANCH  45  51
HETATM   51  O   UNL     1      83.280  16.478  27.840  1.00  0.00    -0.358 OA
HETATM   52  H   UNL     1      83.455  15.525  27.973  1.00  0.00     0.217 HD
ENDBRANCH  45  51
ENDBRANCH  39  41
ENDBRANCH  38  39
ENDBRANCH   6  38
BRANCH   2  53
HETATM   53  O   UNL     1      77.969  24.545  31.697  1.00  0.00    -0.306 OA
BRANCH  53  54
HETATM   54  C   UNL     1      78.081  25.767  31.140  1.00  0.00     0.294 C 
HETATM   55  O   UNL     1      79.038  26.160  30.489  1.00  0.00    -0.259 OA
BRANCH  54  56
HETATM   56  C   UNL     1      76.906  26.600  31.468  1.00  0.00     0.045 A 
HETATM   57  C   UNL     1      75.631  26.055  31.259  1.00  0.00     0.057 A 
HETATM   58  C   UNL     1      74.502  26.777  31.620  1.00  0.00     0.102 A 
HETATM   59  C   UNL     1      74.638  28.018  32.223  1.00  0.00     0.132 A 
HETATM   60  C   UNL     1      75.904  28.554  32.440  1.00  0.00     0.102 A 
HETATM   61  C   UNL     1      77.047  27.867  32.047  1.00  0.00     0.057 A 
BRANCH  58  62
HETATM   62  O   UNL     1      73.242  26.290  31.412  1.00  0.00    -0.358 OA
HETATM   63  H   UNL     1      73.007  25.714  32.162  1.00  0.00     0.217 HD
ENDBRANCH  58  62
BRANCH  59  64
HETATM   64  O   UNL     1      73.535  28.718  32.624  1.00  0.00    -0.356 OA
HETATM   65  H   UNL     1      72.833  28.039  32.706  1.00  0.00     0.218 HD
ENDBRANCH  59  64
BRANCH  60  66
HETATM   66  O   UNL     1      76.031  29.758  33.070  1.00  0.00    -0.358 OA
HETATM   67  H   UNL     1      75.515  29.659  33.898  1.00  0.00     0.217 HD
ENDBRANCH  60  66
ENDBRANCH  54  56
ENDBRANCH  53  54
ENDBRANCH   2  53
BRANCH   4  68
HETATM   68  O   UNL     1      79.177  22.315  30.206  1.00  0.00    -0.304 OA
BRANCH  68  69
HETATM   69  C   UNL     1      78.045  21.788  29.645  1.00  0.00     0.294 C 
HETATM   70  O   UNL     1      77.120  22.492  29.276  1.00  0.00    -0.259 OA
BRANCH  69  71
HETATM   71  C   UNL     1      77.950  20.311  29.619  1.00  0.00     0.045 A 
HETATM   72  C   UNL     1      78.618  19.563  28.638  1.00  0.00     0.057 A 
HETATM   73  C   UNL     1      78.626  18.175  28.743  1.00  0.00     0.102 A 
HETATM   74  C   UNL     1      77.957  17.547  29.789  1.00  0.00     0.132 A 
HETATM   75  C   UNL     1      77.233  18.294  30.708  1.00  0.00     0.102 A 
HETATM   76  C   UNL     1      77.209  19.680  30.625  1.00  0.00     0.057 A 
BRANCH  73  77
HETATM   77  O   UNL     1      79.293  17.379  27.855  1.00  0.00    -0.358 OA
HETATM   78  H   UNL     1      79.452  17.890  27.040  1.00  0.00     0.217 HD
ENDBRANCH  73  77
BRANCH  74  79
HETATM   79  O   UNL     1      78.001  16.187  29.935  1.00  0.00    -0.356 OA
HETATM   80  H   UNL     1      78.780  16.030  30.508  1.00  0.00     0.218 HD
ENDBRANCH  74  79
BRANCH  75  81
HETATM   81  O   UNL     1      76.564  17.663  31.719  1.00  0.00    -0.358 OA
HETATM   82  H   UNL     1      76.725  18.230  32.503  1.00  0.00     0.217 HD
ENDBRANCH  75  81
ENDBRANCH  69  71
ENDBRANCH  68  69
ENDBRANCH   4  68
TORSDOF 31
ENDMDL
MODEL 6
REMARK VINA RESULT:    -9.012      1.858     10.557
REMARK INTER + INTRA:         -27.863
REMARK INTER:                 -22.347
REMARK INTRA:                  -5.516
REMARK UNBOUND:                -6.470
REMARK  31 active torsions:
REMARK  status: ('A' for Active; 'I' for Inactive)
REMARK    1  A    between atoms: O_2  and  C_27 
REMARK    2  A    between atoms: O_2  and  C_33 
REMARK    3  A    between atoms: O_3  and  C_34 
REMARK    4  A    between atoms: O_3  and  C_28 
REMARK    5  A    between atoms: O_4  and  C_35 
REMARK    6  A    between atoms: O_4  and  C_29 
REMARK    7  A    between atoms: O_5  and  C_36 
REMARK    8  A    between atoms: O_5  and  C_31 
REMARK    9  A    between atoms: O_6  and  C_32 
REMARK   10  A    between atoms: O_6  and  C_39 
REMARK   11  A    between atoms: O_12  and  C_51 
REMARK   12  A    between atoms: O_13  and  C_52 
REMARK   13  A    between atoms: O_14  and  C_53 
REMARK   14  A    between atoms: O_15  and  C_54 
REMARK   15  A    between atoms: O_16  and  C_55 
REMARK   16  A    between atoms: O_17  and  C_56 
REMARK   17  A    between atoms: O_18  and  C_59 
REMARK   18  A    between atoms: O_19  and  C_60 
REMARK   19  A    between atoms: O_20  and  C_61 
REMARK   20  A    between atoms: O_21  and  C_62 
REMARK   21  A    between atoms: O_22  and  C_63 
REMARK   22  A    between atoms: O_23  and  C_64 
REMARK   23  A    between atoms: O_24  and  C_65 
REMARK   24  A    between atoms: O_25  and  C_66 
REMARK   25  A    between atoms: O_26  and  C_67 
REMARK   26  A    between atoms: C_30  and  C_32 
REMARK   27  A    between atoms: C_33  and  C_37 
REMARK   28  A    between atoms: C_34  and  C_38 
REMARK   29  A    between atoms: C_35  and  C_40 
REMARK   30  A    between atoms: C_36  and  C_41 
REMARK   31  A    between atoms: C_39  and  C_42 
ROOT
HETATM    1  O   UNL     1      89.309  13.028  36.553  1.00  0.00    -0.348 OA
HETATM    2  C   UNL     1      91.182  10.846  36.473  1.00  0.00     0.198 C 
HETATM    3  C   UNL     1      91.446  12.123  37.301  1.00  0.00     0.195 C 
HETATM    4  C   UNL     1      90.323  11.242  35.244  1.00  0.00     0.220 C 
HETATM    5  C   UNL     1      90.085  12.727  37.722  1.00  0.00     0.181 C 
HETATM    6  C   UNL     1      89.009  11.866  35.779  1.00  0.00     0.302 C 
ENDROOT
BRANCH   5   7
HETATM    7  C   UNL     1      90.272  13.998  38.568  1.00  0.00     0.213 C 
BRANCH   7   8
HETATM    8  O   UNL     1      90.200  13.709  39.974  1.00  0.00    -0.315 OA
BRANCH   8   9
HETATM    9  C   UNL     1      89.065  14.149  40.580  1.00  0.00     0.293 C 
HETATM   10  O   UNL     1      87.931  14.083  40.137  1.00  0.00    -0.259 OA
BRANCH   9  11
HETATM   11  C   UNL     1      89.394  14.738  41.897  1.00  0.00     0.045 A 
HETATM   12  C   UNL     1      88.619  14.452  43.036  1.00  0.00     0.057 A 
HETATM   13  C   UNL     1      89.006  14.977  44.264  1.00  0.00     0.102 A 
HETATM   14  C   UNL     1      90.139  15.780  44.358  1.00  0.00     0.132 A 
HETATM   15  C   UNL     1      90.896  16.062  43.229  1.00  0.00     0.102 A 
HETATM   16  C   UNL     1      90.540  15.539  41.994  1.00  0.00     0.057 A 
BRANCH  13  17
HETATM   17  O   UNL     1      88.314  14.720  45.415  1.00  0.00    -0.358 OA
HETATM   18  H   UNL     1      88.863  14.163  45.994  1.00  0.00     0.217 HD
ENDBRANCH  13  17
BRANCH  14  19
HETATM   19  O   UNL     1      90.528  16.294  45.564  1.00  0.00    -0.356 OA
HETATM   20  H   UNL     1      90.049  17.145  45.634  1.00  0.00     0.218 HD
ENDBRANCH  14  19
BRANCH  15  21
HETATM   21  O   UNL     1      92.005  16.849  43.326  1.00  0.00    -0.358 OA
HETATM   22  H   UNL     1      92.375  16.874  42.419  1.00  0.00     0.217 HD
ENDBRANCH  15  21
ENDBRANCH   9  11
ENDBRANCH   8   9
ENDBRANCH   7   8
ENDBRANCH   5   7
BRANCH   3  23
HETATM   23  O   UNL     1      92.218  11.841  38.489  1.00  0.00    -0.307 OA
BRANCH  23  24
HETATM   24  C   UNL     1      93.479  12.260  38.778  1.00  0.00     0.294 C 
HETATM   25  O   UNL     1      94.376  12.118  37.955  1.00  0.00    -0.259 OA
BRANCH  24  26
HETATM   26  C   UNL     1      93.778  12.966  40.047  1.00  0.00     0.045 A 
HETATM   27  C   UNL     1      93.168  12.627  41.264  1.00  0.00     0.057 A 
HETATM   28  C   UNL     1      93.422  13.397  42.395  1.00  0.00     0.102 A 
HETATM   29  C   UNL     1      94.348  14.431  42.342  1.00  0.00     0.132 A 
HETATM   30  C   UNL     1      95.026  14.701  41.162  1.00  0.00     0.102 A 
HETATM   31  C   UNL     1      94.754  13.973  40.011  1.00  0.00     0.057 A 
BRANCH  28  32
HETATM   32  O   UNL     1      92.770  13.184  43.577  1.00  0.00    -0.358 OA
HETATM   33  H   UNL     1      92.109  12.478  43.453  1.00  0.00     0.217 HD
ENDBRANCH  28  32
BRANCH  29  34
HETATM   34  O   UNL     1      94.601  15.194  43.448  1.00  0.00    -0.356 OA
HETATM   35  H   UNL     1      95.107  14.599  44.041  1.00  0.00     0.218 HD
ENDBRANCH  29  34
BRANCH  30  36
HETATM   36  O   UNL     1      95.955  15.698  41.122  1.00  0.00    -0.358 OA
HETATM   37  H   UNL     1      95.460  16.511  41.345  1.00  0.00     0.217 HD
ENDBRANCH  30  36
ENDBRANCH  24  26
ENDBRANCH  23  24
ENDBRANCH   3  23
BRANCH   6  38
HETATM   38  O   UNL     1      88.203  12.241  34.648  1.00  0.00    -0.283 OA
BRANCH  38  39
HETATM   39  C   UNL     1      87.231  11.517  34.045  1.00  0.00     0.295 C 
HETATM   40  O   UNL     1      86.620  10.662  34.676  1.00  0.00    -0.259 OA
BRANCH  39  41
HETATM   41  C   UNL     1      86.976  11.662  32.595  1.00  0.00     0.045 A 
HETATM   42  C   UNL     1      86.373  12.806  32.046  1.00  0.00     0.057 A 
HETATM   43  C   UNL     1      86.233  12.897  30.664  1.00  0.00     0.102 A 
HETATM   44  C   UNL     1      86.595  11.829  29.850  1.00  0.00     0.132 A 
HETATM   45  C   UNL     1      87.098  10.662  30.408  1.00  0.00     0.102 A 
HETATM   46  C   UNL     1      87.302  10.570  31.776  1.00  0.00     0.057 A 
BRANCH  43  47
HETATM   47  O   UNL     1      85.757  14.023  30.052  1.00  0.00    -0.358 OA
HETATM   48  H   UNL     1      86.171  14.806  30.455  1.00  0.00     0.217 HD
ENDBRANCH  43  47
BRANCH  44  49
HETATM   49  O   UNL     1      86.456  11.908  28.490  1.00  0.00    -0.356 OA
HETATM   50  H   UNL     1      87.263  11.484  28.133  1.00  0.00     0.218 HD
ENDBRANCH  44  49
BRANCH  45  51
HETATM   51  O   UNL     1      87.397   9.595  29.612  1.00  0.00    -0.358 OA
HETATM   52  H   UNL     1      86.845   8.862  29.950  1.00  0.00     0.217 HD
ENDBRANCH  45  51
ENDBRANCH  39  41
ENDBRANCH  38  39
ENDBRANCH   6  38
BRANCH   2  53
HETATM   53  O   UNL     1      92.394  10.107  36.162  1.00  0.00    -0.306 OA
BRANCH  53  54
HETATM   54  C   UNL     1      92.741   9.054  36.928  1.00  0.00     0.294 C 
HETATM   55  O   UNL     1      92.017   8.511  37.750  1.00  0.00    -0.259 OA
BRANCH  54  56
HETATM   56  C   UNL     1      94.145   8.667  36.681  1.00  0.00     0.045 A 
HETATM   57  C   UNL     1      94.480   8.174  35.413  1.00  0.00     0.057 A 
HETATM   58  C   UNL     1      95.801   7.866  35.116  1.00  0.00     0.102 A 
HETATM   59  C   UNL     1      96.791   8.085  36.062  1.00  0.00     0.132 A 
HETATM   60  C   UNL     1      96.459   8.584  37.318  1.00  0.00     0.102 A 
HETATM   61  C   UNL     1      95.137   8.859  37.651  1.00  0.00     0.057 A 
BRANCH  58  62
HETATM   62  O   UNL     1      96.165   7.361  33.900  1.00  0.00    -0.358 OA
HETATM   63  H   UNL     1      96.581   8.076  33.383  1.00  0.00     0.217 HD
ENDBRANCH  58  62
BRANCH  59  64
HETATM   64  O   UNL     1      98.101   7.828  35.767  1.00  0.00    -0.356 OA
HETATM   65  H   UNL     1      98.174   6.852  35.820  1.00  0.00     0.218 HD
ENDBRANCH  59  64
BRANCH  60  66
HETATM   66  O   UNL     1      97.443   8.835  38.229  1.00  0.00    -0.358 OA
HETATM   67  H   UNL     1      96.977   8.879  39.090  1.00  0.00     0.217 HD
ENDBRANCH  60  66
ENDBRANCH  54  56
ENDBRANCH  53  54
ENDBRANCH   2  53
BRANCH   4  68
HETATM   68  O   UNL     1      90.024  10.088  34.419  1.00  0.00    -0.304 OA
BRANCH  68  69
HETATM   69  C   UNL     1      90.705   9.887  33.250  1.00  0.00     0.294 C 
HETATM   70  O   UNL     1      90.598  10.647  32.301  1.00  0.00    -0.259 OA
BRANCH  69  71
HETATM   71  C   UNL     1      91.488   8.634  33.151  1.00  0.00     0.045 A 
HETATM   72  C   UNL     1      91.095   7.482  33.849  1.00  0.00     0.057 A 
HETATM   73  C   UNL     1      91.770   6.289  33.605  1.00  0.00     0.102 A 
HETATM   74  C   UNL     1      92.832   6.254  32.706  1.00  0.00     0.132 A 
HETATM   75  C   UNL     1      93.262   7.418  32.083  1.00  0.00     0.102 A 
HETATM   76  C   UNL     1      92.606   8.620  32.309  1.00  0.00     0.057 A 
BRANCH  73  77
HETATM   77  O   UNL     1      91.417   5.115  34.209  1.00  0.00    -0.358 OA
HETATM   78  H   UNL     1      91.506   5.224  35.174  1.00  0.00     0.217 HD
ENDBRANCH  73  77
BRANCH  74  79
HETATM   79  O   UNL     1      93.469   5.078  32.418  1.00  0.00    -0.356 OA
HETATM   80  H   UNL     1      93.692   4.702  33.295  1.00  0.00     0.218 HD
ENDBRANCH  74  79
BRANCH  75  81
HETATM   81  O   UNL     1      94.318   7.373  31.218  1.00  0.00    -0.358 OA
HETATM   82  H   UNL     1      94.086   6.653  30.593  1.00  0.00     0.217 HD
ENDBRANCH  75  81
ENDBRANCH  69  71
ENDBRANCH  68  69
ENDBRANCH   4  68
TORSDOF 31
ENDMDL
MODEL 7
REMARK VINA RESULT:    -8.949     12.501     18.224
REMARK INTER + INTRA:         -27.713
REMARK INTER:                 -21.931
REMARK INTRA:                  -5.783
REMARK UNBOUND:                -6.470
REMARK  31 active torsions:
REMARK  status: ('A' for Active; 'I' for Inactive)
REMARK    1  A    between atoms: O_2  and  C_27 
REMARK    2  A    between atoms: O_2  and  C_33 
REMARK    3  A    between atoms: O_3  and  C_34 
REMARK    4  A    between atoms: O_3  and  C_28 
REMARK    5  A    between atoms: O_4  and  C_35 
REMARK    6  A    between atoms: O_4  and  C_29 
REMARK    7  A    between atoms: O_5  and  C_36 
REMARK    8  A    between atoms: O_5  and  C_31 
REMARK    9  A    between atoms: O_6  and  C_32 
REMARK   10  A    between atoms: O_6  and  C_39 
REMARK   11  A    between atoms: O_12  and  C_51 
REMARK   12  A    between atoms: O_13  and  C_52 
REMARK   13  A    between atoms: O_14  and  C_53 
REMARK   14  A    between atoms: O_15  and  C_54 
REMARK   15  A    between atoms: O_16  and  C_55 
REMARK   16  A    between atoms: O_17  and  C_56 
REMARK   17  A    between atoms: O_18  and  C_59 
REMARK   18  A    between atoms: O_19  and  C_60 
REMARK   19  A    between atoms: O_20  and  C_61 
REMARK   20  A    between atoms: O_21  and  C_62 
REMARK   21  A    between atoms: O_22  and  C_63 
REMARK   22  A    between atoms: O_23  and  C_64 
REMARK   23  A    between atoms: O_24  and  C_65 
REMARK   24  A    between atoms: O_25  and  C_66 
REMARK   25  A    between atoms: O_26  and  C_67 
REMARK   26  A    between atoms: C_30  and  C_32 
REMARK   27  A    between atoms: C_33  and  C_37 
REMARK   28  A    between atoms: C_34  and  C_38 
REMARK   29  A    between atoms: C_35  and  C_40 
REMARK   30  A    between atoms: C_36  and  C_41 
REMARK   31  A    between atoms: C_39  and  C_42 
ROOT
HETATM    1  O   UNL     1      79.072  21.375  35.645  1.00  0.00    -0.348 OA
HETATM    2  C   UNL     1      81.003  23.500  35.468  1.00  0.00     0.198 C 
HETATM    3  C   UNL     1      79.925  23.462  36.575  1.00  0.00     0.195 C 
HETATM    4  C   UNL     1      80.421  22.807  34.209  1.00  0.00     0.220 C 
HETATM    5  C   UNL     1      79.556  21.984  36.851  1.00  0.00     0.181 C 
HETATM    6  C   UNL     1      80.053  21.355  34.608  1.00  0.00     0.302 C 
ENDROOT
BRANCH   5   7
HETATM    7  C   UNL     1      78.495  21.869  37.958  1.00  0.00     0.213 C 
BRANCH   7   8
HETATM    8  O   UNL     1      79.062  21.368  39.180  1.00  0.00    -0.315 OA
BRANCH   8   9
HETATM    9  C   UNL     1      78.791  22.125  40.277  1.00  0.00     0.293 C 
HETATM   10  O   UNL     1      77.895  22.943  40.393  1.00  0.00    -0.259 OA
BRANCH   9  11
HETATM   11  C   UNL     1      79.758  21.815  41.353  1.00  0.00     0.045 A 
HETATM   12  C   UNL     1      80.564  20.663  41.296  1.00  0.00     0.057 A 
HETATM   13  C   UNL     1      81.504  20.448  42.298  1.00  0.00     0.102 A 
HETATM   14  C   UNL     1      81.635  21.357  43.344  1.00  0.00     0.132 A 
HETATM   15  C   UNL     1      80.832  22.488  43.397  1.00  0.00     0.102 A 
HETATM   16  C   UNL     1      79.896  22.734  42.402  1.00  0.00     0.057 A 
BRANCH  13  17
HETATM   17  O   UNL     1      82.337  19.364  42.293  1.00  0.00    -0.358 OA
HETATM   18  H   UNL     1      82.210  18.866  43.119  1.00  0.00     0.217 HD
ENDBRANCH  13  17
BRANCH  14  19
HETATM   19  O   UNL     1      82.561  21.154  44.330  1.00  0.00    -0.356 OA
HETATM   20  H   UNL     1      82.580  21.998  44.826  1.00  0.00     0.218 HD
ENDBRANCH  14  19
BRANCH  15  21
HETATM   21  O   UNL     1      80.964  23.376  44.424  1.00  0.00    -0.358 OA
HETATM   22  H   UNL     1      81.558  24.073  44.077  1.00  0.00     0.217 HD
ENDBRANCH  15  21
ENDBRANCH   9  11
ENDBRANCH   8   9
ENDBRANCH   7   8
ENDBRANCH   5   7
BRANCH   3  23
HETATM   23  O   UNL     1      80.395  24.061  37.801  1.00  0.00    -0.307 OA
BRANCH  23  24
HETATM   24  C   UNL     1      79.944  25.199  38.395  1.00  0.00     0.294 C 
HETATM   25  O   UNL     1      80.058  25.346  39.606  1.00  0.00    -0.259 OA
BRANCH  24  26
HETATM   26  C   UNL     1      79.385  26.311  37.590  1.00  0.00     0.045 A 
HETATM   27  C   UNL     1      79.921  27.608  37.614  1.00  0.00     0.057 A 
HETATM   28  C   UNL     1      79.284  28.625  36.911  1.00  0.00     0.102 A 
HETATM   29  C   UNL     1      78.185  28.339  36.112  1.00  0.00     0.132 A 
HETATM   30  C   UNL     1      77.716  27.037  36.009  1.00  0.00     0.102 A 
HETATM   31  C   UNL     1      78.310  26.015  36.738  1.00  0.00     0.057 A 
BRANCH  28  32
HETATM   32  O   UNL     1      79.694  29.926  36.989  1.00  0.00    -0.358 OA
HETATM   33  H   UNL     1      79.037  30.436  37.498  1.00  0.00     0.217 HD
ENDBRANCH  28  32
BRANCH  29  34
HETATM   34  O   UNL     1      77.551  29.334  35.419  1.00  0.00    -0.356 OA
HETATM   35  H   UNL     1      78.068  29.416  34.590  1.00  0.00     0.218 HD
ENDBRANCH  29  34
BRANCH  30  36
HETATM   36  O   UNL     1      76.655  26.755  35.201  1.00  0.00    -0.358 OA
HETATM   37  H   UNL     1      76.300  25.908  35.540  1.00  0.00     0.217 HD
ENDBRANCH  30  36
ENDBRANCH  24  26
ENDBRANCH  23  24
ENDBRANCH   3  23
BRANCH   6  38
HETATM   38  O   UNL     1      79.508  20.700  33.448  1.00  0.00    -0.283 OA
BRANCH  38  39
HETATM   39  C   UNL     1      79.999  19.618  32.799  1.00  0.00     0.295 C 
HETATM   40  O   UNL     1      80.426  18.660  33.435  1.00  0.00    -0.259 OA
BRANCH  39  41
HETATM   41  C   UNL     1      80.136  19.624  31.326  1.00  0.00     0.045 A 
HETATM   42  C   UNL     1      79.051  19.385  30.466  1.00  0.00     0.057 A 
HETATM   43  C   UNL     1      79.246  19.479  29.091  1.00  0.00     0.102 A 
HETATM   44  C   UNL     1      80.519  19.708  28.577  1.00  0.00     0.132 A 
HETATM   45  C   UNL     1      81.605  19.843  29.430  1.00  0.00     0.102 A 
HETATM   46  C   UNL     1      81.425  19.813  30.805  1.00  0.00     0.057 A 
BRANCH  43  47
HETATM   47  O   UNL     1      78.217  19.368  28.199  1.00  0.00    -0.358 OA
HETATM   48  H   UNL     1      77.423  19.792  28.572  1.00  0.00     0.217 HD
ENDBRANCH  43  47
BRANCH  44  49
HETATM   49  O   UNL     1      80.721  19.796  27.226  1.00  0.00    -0.356 OA
HETATM   50  H   UNL     1      79.982  19.291  26.832  1.00  0.00     0.218 HD
ENDBRANCH  44  49
BRANCH  45  51
HETATM   51  O   UNL     1      82.859  20.010  28.922  1.00  0.00    -0.358 OA
HETATM   52  H   UNL     1      83.137  19.119  28.630  1.00  0.00     0.217 HD
ENDBRANCH  45  51
ENDBRANCH  39  41
ENDBRANCH  38  39
ENDBRANCH   6  38
BRANCH   2  53
HETATM   53  O   UNL     1      81.541  24.831  35.243  1.00  0.00    -0.306 OA
BRANCH  53  54
HETATM   54  C   UNL     1      82.871  24.989  35.091  1.00  0.00     0.294 C 
HETATM   55  O   UNL     1      83.477  24.884  34.035  1.00  0.00    -0.259 OA
BRANCH  54  56
HETATM   56  C   UNL     1      83.517  25.257  36.392  1.00  0.00     0.045 A 
HETATM   57  C   UNL     1      84.552  24.404  36.803  1.00  0.00     0.057 A 
HETATM   58  C   UNL     1      85.233  24.661  37.984  1.00  0.00     0.102 A 
HETATM   59  C   UNL     1      84.916  25.783  38.735  1.00  0.00     0.132 A 
HETATM   60  C   UNL     1      83.897  26.635  38.322  1.00  0.00     0.102 A 
HETATM   61  C   UNL     1      83.172  26.372  37.164  1.00  0.00     0.057 A 
BRANCH  58  62
HETATM   62  O   UNL     1      86.232  23.842  38.431  1.00  0.00    -0.358 OA
HETATM   63  H   UNL     1      86.137  23.741  39.396  1.00  0.00     0.217 HD
ENDBRANCH  58  62
BRANCH  59  64
HETATM   64  O   UNL     1      85.610  26.072  39.877  1.00  0.00    -0.356 OA
HETATM   65  H   UNL     1      86.443  25.561  39.790  1.00  0.00     0.218 HD
ENDBRANCH  59  64
BRANCH  60  66
HETATM   66  O   UNL     1      83.617  27.758  39.044  1.00  0.00    -0.358 OA
HETATM   67  H   UNL     1      82.996  27.457  39.740  1.00  0.00     0.217 HD
ENDBRANCH  60  66
ENDBRANCH  54  56
ENDBRANCH  53  54
ENDBRANCH   2  53
BRANCH   4  68
HETATM   68  O   UNL     1      81.383  22.795  33.125  1.00  0.00    -0.304 OA
BRANCH  68  69
HETATM   69  C   UNL     1      81.050  23.324  31.908  1.00  0.00     0.294 C 
HETATM   70  O   UNL     1      81.811  23.282  30.955  1.00  0.00    -0.259 OA
BRANCH  69  71
HETATM   71  C   UNL     1      79.765  24.057  31.838  1.00  0.00     0.045 A 
HETATM   72  C   UNL     1      78.586  23.409  31.438  1.00  0.00     0.057 A 
HETATM   73  C   UNL     1      77.379  24.095  31.535  1.00  0.00     0.102 A 
HETATM   74  C   UNL     1      77.353  25.408  31.994  1.00  0.00     0.132 A 
HETATM   75  C   UNL     1      78.534  26.064  32.310  1.00  0.00     0.102 A 
HETATM   76  C   UNL     1      79.751  25.402  32.222  1.00  0.00     0.057 A 
BRANCH  73  77
HETATM   77  O   UNL     1      76.183  23.517  31.210  1.00  0.00    -0.358 OA
HETATM   78  H   UNL     1      76.346  22.589  30.957  1.00  0.00     0.217 HD
ENDBRANCH  73  77
BRANCH  74  79
HETATM   79  O   UNL     1      76.167  26.076  32.145  1.00  0.00    -0.356 OA
HETATM   80  H   UNL     1      76.150  26.710  31.398  1.00  0.00     0.218 HD
ENDBRANCH  74  79
BRANCH  75  81
HETATM   81  O   UNL     1      78.496  27.360  32.740  1.00  0.00    -0.358 OA
HETATM   82  H   UNL     1      78.739  27.305  33.689  1.00  0.00     0.217 HD
ENDBRANCH  75  81
ENDBRANCH  69  71
ENDBRANCH  68  69
ENDBRANCH   4  68
TORSDOF 31
ENDMDL
MODEL 8
REMARK VINA RESULT:    -8.905     12.006     17.992
REMARK INTER + INTRA:         -27.608
REMARK INTER:                 -21.597
REMARK INTRA:                  -6.011
REMARK UNBOUND:                -6.470
REMARK  31 active torsions:
REMARK  status: ('A' for Active; 'I' for Inactive)
REMARK    1  A    between atoms: O_2  and  C_27 
REMARK    2  A    between atoms: O_2  and  C_33 
REMARK    3  A    between atoms: O_3  and  C_34 
REMARK    4  A    between atoms: O_3  and  C_28 
REMARK    5  A    between atoms: O_4  and  C_35 
REMARK    6  A    between atoms: O_4  and  C_29 
REMARK    7  A    between atoms: O_5  and  C_36 
REMARK    8  A    between atoms: O_5  and  C_31 
REMARK    9  A    between atoms: O_6  and  C_32 
REMARK   10  A    between atoms: O_6  and  C_39 
REMARK   11  A    between atoms: O_12  and  C_51 
REMARK   12  A    between atoms: O_13  and  C_52 
REMARK   13  A    between atoms: O_14  and  C_53 
REMARK   14  A    between atoms: O_15  and  C_54 
REMARK   15  A    between atoms: O_16  and  C_55 
REMARK   16  A    between atoms: O_17  and  C_56 
REMARK   17  A    between atoms: O_18  and  C_59 
REMARK   18  A    between atoms: O_19  and  C_60 
REMARK   19  A    between atoms: O_20  and  C_61 
REMARK   20  A    between atoms: O_21  and  C_62 
REMARK   21  A    between atoms: O_22  and  C_63 
REMARK   22  A    between atoms: O_23  and  C_64 
REMARK   23  A    between atoms: O_24  and  C_65 
REMARK   24  A    between atoms: O_25  and  C_66 
REMARK   25  A    between atoms: O_26  and  C_67 
REMARK   26  A    between atoms: C_30  and  C_32 
REMARK   27  A    between atoms: C_33  and  C_37 
REMARK   28  A    between atoms: C_34  and  C_38 
REMARK   29  A    between atoms: C_35  and  C_40 
REMARK   30  A    between atoms: C_36  and  C_41 
REMARK   31  A    between atoms: C_39  and  C_42 
ROOT
HETATM    1  O   UNL     1      78.718  21.626  36.137  1.00  0.00    -0.348 OA
HETATM    2  C   UNL     1      80.845  23.525  35.753  1.00  0.00     0.198 C 
HETATM    3  C   UNL     1      79.766  23.712  36.843  1.00  0.00     0.195 C 
HETATM    4  C   UNL     1      80.202  22.755  34.570  1.00  0.00     0.220 C 
HETATM    5  C   UNL     1      79.256  22.316  37.275  1.00  0.00     0.181 C 
HETATM    6  C   UNL     1      79.695  21.398  35.122  1.00  0.00     0.302 C 
ENDROOT
BRANCH   5   7
HETATM    7  C   UNL     1      78.186  22.425  38.374  1.00  0.00     0.213 C 
BRANCH   7   8
HETATM    8  O   UNL     1      78.623  21.809  39.597  1.00  0.00    -0.315 OA
BRANCH   8   9
HETATM    9  C   UNL     1      78.525  22.606  40.695  1.00  0.00     0.293 C 
HETATM   10  O   UNL     1      77.678  23.457  40.902  1.00  0.00    -0.259 OA
BRANCH   9  11
HETATM   11  C   UNL     1      79.618  22.294  41.641  1.00  0.00     0.045 A 
HETATM   12  C   UNL     1      79.852  23.097  42.772  1.00  0.00     0.057 A 
HETATM   13  C   UNL     1      80.849  22.727  43.668  1.00  0.00     0.102 A 
HETATM   14  C   UNL     1      81.608  21.583  43.439  1.00  0.00     0.132 A 
HETATM   15  C   UNL     1      81.376  20.799  42.317  1.00  0.00     0.102 A 
HETATM   16  C   UNL     1      80.377  21.138  41.415  1.00  0.00     0.057 A 
BRANCH  13  17
HETATM   17  O   UNL     1      81.114  23.446  44.800  1.00  0.00    -0.358 OA
HETATM   18  H   UNL     1      80.627  23.051  45.544  1.00  0.00     0.217 HD
ENDBRANCH  13  17
BRANCH  14  19
HETATM   19  O   UNL     1      82.587  21.210  44.318  1.00  0.00    -0.356 OA
HETATM   20  H   UNL     1      82.971  20.399  43.928  1.00  0.00     0.218 HD
ENDBRANCH  14  19
BRANCH  15  21
HETATM   21  O   UNL     1      82.122  19.679  42.097  1.00  0.00    -0.358 OA
HETATM   22  H   UNL     1      82.134  19.574  41.123  1.00  0.00     0.217 HD
ENDBRANCH  15  21
ENDBRANCH   9  11
ENDBRANCH   8   9
ENDBRANCH   7   8
ENDBRANCH   5   7
BRANCH   3  23
HETATM   23  O   UNL     1      80.288  24.396  38.002  1.00  0.00    -0.307 OA
BRANCH  23  24
HETATM   24  C   UNL     1      79.769  25.487  38.626  1.00  0.00     0.294 C 
HETATM   25  O   UNL     1      79.934  25.642  39.830  1.00  0.00    -0.259 OA
BRANCH  24  26
HETATM   26  C   UNL     1      79.068  26.545  37.859  1.00  0.00     0.045 A 
HETATM   27  C   UNL     1      79.751  27.564  37.178  1.00  0.00     0.057 A 
HETATM   28  C   UNL     1      79.026  28.580  36.563  1.00  0.00     0.102 A 
HETATM   29  C   UNL     1      77.638  28.532  36.539  1.00  0.00     0.132 A 
HETATM   30  C   UNL     1      76.967  27.470  37.126  1.00  0.00     0.102 A 
HETATM   31  C   UNL     1      77.669  26.469  37.784  1.00  0.00     0.057 A 
BRANCH  28  32
HETATM   32  O   UNL     1      79.637  29.657  35.983  1.00  0.00    -0.358 OA
HETATM   33  H   UNL     1      78.972  30.353  35.828  1.00  0.00     0.217 HD
ENDBRANCH  28  32
BRANCH  29  34
HETATM   34  O   UNL     1      76.919  29.529  35.938  1.00  0.00    -0.356 OA
HETATM   35  H   UNL     1      76.720  30.154  36.666  1.00  0.00     0.218 HD
ENDBRANCH  29  34
BRANCH  30  36
HETATM   36  O   UNL     1      75.605  27.412  37.076  1.00  0.00    -0.358 OA
HETATM   37  H   UNL     1      75.391  27.374  36.121  1.00  0.00     0.217 HD
ENDBRANCH  30  36
ENDBRANCH  24  26
ENDBRANCH  23  24
ENDBRANCH   3  23
BRANCH   6  38
HETATM   38  O   UNL     1      79.093  20.674  34.034  1.00  0.00    -0.283 OA
BRANCH  38  39
HETATM   39  C   UNL     1      78.840  19.346  33.960  1.00  0.00     0.295 C 
HETATM   40  O   UNL     1      78.457  18.736  34.953  1.00  0.00    -0.259 OA
BRANCH  39  41
HETATM   41  C   UNL     1      79.134  18.593  32.721  1.00  0.00     0.045 A 
HETATM   42  C   UNL     1      78.122  18.110  31.874  1.00  0.00     0.057 A 
HETATM   43  C   UNL     1      78.480  17.473  30.689  1.00  0.00     0.102 A 
HETATM   44  C   UNL     1      79.820  17.232  30.400  1.00  0.00     0.132 A 
HETATM   45  C   UNL     1      80.810  17.623  31.290  1.00  0.00     0.102 A 
HETATM   46  C   UNL     1      80.481  18.312  32.448  1.00  0.00     0.057 A 
BRANCH  43  47
HETATM   47  O   UNL     1      77.555  17.076  29.766  1.00  0.00    -0.358 OA
HETATM   48  H   UNL     1      78.014  16.744  28.974  1.00  0.00     0.217 HD
ENDBRANCH  43  47
BRANCH  44  49
HETATM   49  O   UNL     1      80.182  16.601  29.240  1.00  0.00    -0.356 OA
HETATM   50  H   UNL     1      80.190  15.650  29.468  1.00  0.00     0.218 HD
ENDBRANCH  44  49
BRANCH  45  51
HETATM   51  O   UNL     1      82.118  17.334  31.031  1.00  0.00    -0.358 OA
HETATM   52  H   UNL     1      82.606  17.632  31.824  1.00  0.00     0.217 HD
ENDBRANCH  45  51
ENDBRANCH  39  41
ENDBRANCH  38  39
ENDBRANCH   6  38
BRANCH   2  53
HETATM   53  O   UNL     1      81.509  24.765  35.390  1.00  0.00    -0.306 OA
BRANCH  53  54
HETATM   54  C   UNL     1      82.848  24.776  35.231  1.00  0.00     0.294 C 
HETATM   55  O   UNL     1      83.437  24.485  34.200  1.00  0.00    -0.259 OA
BRANCH  54  56
HETATM   56  C   UNL     1      83.522  25.137  36.494  1.00  0.00     0.045 A 
HETATM   57  C   UNL     1      84.619  24.365  36.901  1.00  0.00     0.057 A 
HETATM   58  C   UNL     1      85.325  24.713  38.044  1.00  0.00     0.102 A 
HETATM   59  C   UNL     1      84.967  25.846  38.759  1.00  0.00     0.132 A 
HETATM   60  C   UNL     1      83.885  26.618  38.349  1.00  0.00     0.102 A 
HETATM   61  C   UNL     1      83.137  26.264  37.231  1.00  0.00     0.057 A 
BRANCH  58  62
HETATM   62  O   UNL     1      86.385  23.973  38.487  1.00  0.00    -0.358 OA
HETATM   63  H   UNL     1      86.885  24.509  39.130  1.00  0.00     0.217 HD
ENDBRANCH  58  62
BRANCH  59  64
HETATM   64  O   UNL     1      85.682  26.224  39.862  1.00  0.00    -0.356 OA
HETATM   65  H   UNL     1      85.727  27.201  39.798  1.00  0.00     0.218 HD
ENDBRANCH  59  64
BRANCH  60  66
HETATM   66  O   UNL     1      83.564  27.754  39.035  1.00  0.00    -0.358 OA
HETATM   67  H   UNL     1      84.114  28.453  38.625  1.00  0.00     0.217 HD
ENDBRANCH  60  66
ENDBRANCH  54  56
ENDBRANCH  53  54
ENDBRANCH   2  53
BRANCH   4  68
HETATM   68  O   UNL     1      81.161  22.532  33.507  1.00  0.00    -0.304 OA
BRANCH  68  69
HETATM   69  C   UNL     1      80.918  23.020  32.252  1.00  0.00     0.294 C 
HETATM   70  O   UNL     1      80.803  24.215  32.035  1.00  0.00    -0.259 OA
BRANCH  69  71
HETATM   71  C   UNL     1      80.683  22.017  31.189  1.00  0.00     0.045 A 
HETATM   72  C   UNL     1      79.397  21.802  30.671  1.00  0.00     0.057 A 
HETATM   73  C   UNL     1      79.249  20.964  29.570  1.00  0.00     0.102 A 
HETATM   74  C   UNL     1      80.357  20.330  29.017  1.00  0.00     0.132 A 
HETATM   75  C   UNL     1      81.613  20.488  29.587  1.00  0.00     0.102 A 
HETATM   76  C   UNL     1      81.787  21.318  30.686  1.00  0.00     0.057 A 
BRANCH  73  77
HETATM   77  O   UNL     1      78.036  20.742  28.979  1.00  0.00    -0.358 OA
HETATM   78  H   UNL     1      78.148  20.061  28.290  1.00  0.00     0.217 HD
ENDBRANCH  73  77
BRANCH  74  79
HETATM   79  O   UNL     1      80.234  19.546  27.902  1.00  0.00    -0.356 OA
HETATM   80  H   UNL     1      81.123  19.567  27.491  1.00  0.00     0.218 HD
ENDBRANCH  74  79
BRANCH  75  81
HETATM   81  O   UNL     1      82.689  19.844  29.046  1.00  0.00    -0.358 OA
HETATM   82  H   UNL     1      82.882  19.122  29.682  1.00  0.00     0.217 HD
ENDBRANCH  75  81
ENDBRANCH  69  71
ENDBRANCH  68  69
ENDBRANCH   4  68
TORSDOF 31
ENDMDL
MODEL 9
REMARK VINA RESULT:    -8.834     14.740     19.155
REMARK INTER + INTRA:         -27.441
REMARK INTER:                 -20.971
REMARK INTRA:                  -6.470
REMARK UNBOUND:                -6.470
REMARK  31 active torsions:
REMARK  status: ('A' for Active; 'I' for Inactive)
REMARK    1  A    between atoms: O_2  and  C_27 
REMARK    2  A    between atoms: O_2  and  C_33 
REMARK    3  A    between atoms: O_3  and  C_34 
REMARK    4  A    between atoms: O_3  and  C_28 
REMARK    5  A    between atoms: O_4  and  C_35 
REMARK    6  A    between atoms: O_4  and  C_29 
REMARK    7  A    between atoms: O_5  and  C_36 
REMARK    8  A    between atoms: O_5  and  C_31 
REMARK    9  A    between atoms: O_6  and  C_32 
REMARK   10  A    between atoms: O_6  and  C_39 
REMARK   11  A    between atoms: O_12  and  C_51 
REMARK   12  A    between atoms: O_13  and  C_52 
REMARK   13  A    between atoms: O_14  and  C_53 
REMARK   14  A    between atoms: O_15  and  C_54 
REMARK   15  A    between atoms: O_16  and  C_55 
REMARK   16  A    between atoms: O_17  and  C_56 
REMARK   17  A    between atoms: O_18  and  C_59 
REMARK   18  A    between atoms: O_19  and  C_60 
REMARK   19  A    between atoms: O_20  and  C_61 
REMARK   20  A    between atoms: O_21  and  C_62 
REMARK   21  A    between atoms: O_22  and  C_63 
REMARK   22  A    between atoms: O_23  and  C_64 
REMARK   23  A    between atoms: O_24  and  C_65 
REMARK   24  A    between atoms: O_25  and  C_66 
REMARK   25  A    between atoms: O_26  and  C_67 
REMARK   26  A    between atoms: C_30  and  C_32 
REMARK   27  A    between atoms: C_33  and  C_37 
REMARK   28  A    between atoms: C_34  and  C_38 
REMARK   29  A    between atoms: C_35  and  C_40 
REMARK   30  A    between atoms: C_36  and  C_41 
REMARK   31  A    between atoms: C_39  and  C_42 
ROOT
HETATM    1  O   UNL     1      81.270  23.478  33.784  1.00  0.00    -0.348 OA
HETATM    2  C   UNL     1      78.659  24.359  34.611  1.00  0.00     0.198 C 
HETATM    3  C   UNL     1      79.080  24.326  33.124  1.00  0.00     0.195 C 
HETATM    4  C   UNL     1      79.928  24.624  35.462  1.00  0.00     0.220 C 
HETATM    5  C   UNL     1      80.141  23.214  32.938  1.00  0.00     0.181 C 
HETATM    6  C   UNL     1      80.929  23.478  35.170  1.00  0.00     0.302 C 
ENDROOT
BRANCH   5   7
HETATM    7  C   UNL     1      80.596  23.113  31.473  1.00  0.00     0.213 C 
BRANCH   7   8
HETATM    8  O   UNL     1      80.151  21.888  30.867  1.00  0.00    -0.315 OA
BRANCH   8   9
HETATM    9  C   UNL     1      81.048  21.326  30.012  1.00  0.00     0.293 C 
HETATM   10  O   UNL     1      81.623  21.881  29.091  1.00  0.00    -0.259 OA
BRANCH   9  11
HETATM   11  C   UNL     1      81.247  19.901  30.358  1.00  0.00     0.045 A 
HETATM   12  C   UNL     1      80.392  19.247  31.264  1.00  0.00     0.057 A 
HETATM   13  C   UNL     1      80.579  17.891  31.508  1.00  0.00     0.102 A 
HETATM   14  C   UNL     1      81.604  17.198  30.870  1.00  0.00     0.132 A 
HETATM   15  C   UNL     1      82.447  17.852  29.982  1.00  0.00     0.102 A 
HETATM   16  C   UNL     1      82.273  19.201  29.709  1.00  0.00     0.057 A 
BRANCH  13  17
HETATM   17  O   UNL     1      79.771  17.187  32.356  1.00  0.00    -0.358 OA
HETATM   18  H   UNL     1      79.165  17.806  32.799  1.00  0.00     0.217 HD
ENDBRANCH  13  17
BRANCH  14  19
HETATM   19  O   UNL     1      81.789  15.863  31.101  1.00  0.00    -0.356 OA
HETATM   20  H   UNL     1      81.152  15.645  31.811  1.00  0.00     0.218 HD
ENDBRANCH  14  19
BRANCH  15  21
HETATM   21  O   UNL     1      83.450  17.168  29.359  1.00  0.00    -0.358 OA
HETATM   22  H   UNL     1      83.165  17.103  28.424  1.00  0.00     0.217 HD
ENDBRANCH  15  21
ENDBRANCH   9  11
ENDBRANCH   8   9
ENDBRANCH   7   8
ENDBRANCH   5   7
BRANCH   3  23
HETATM   23  O   UNL     1      77.960  24.052  32.255  1.00  0.00    -0.307 OA
BRANCH  23  24
HETATM   24  C   UNL     1      77.508  24.809  31.220  1.00  0.00     0.294 C 
HETATM   25  O   UNL     1      77.633  24.410  30.068  1.00  0.00    -0.259 OA
BRANCH  24  26
HETATM   26  C   UNL     1      76.787  26.081  31.461  1.00  0.00     0.045 A 
HETATM   27  C   UNL     1      77.415  27.218  31.994  1.00  0.00     0.057 A 
HETATM   28  C   UNL     1      76.654  28.345  32.287  1.00  0.00     0.102 A 
HETATM   29  C   UNL     1      75.304  28.381  31.963  1.00  0.00     0.132 A 
HETATM   30  C   UNL     1      74.706  27.292  31.344  1.00  0.00     0.102 A 
HETATM   31  C   UNL     1      75.437  26.141  31.084  1.00  0.00     0.057 A 
BRANCH  28  32
HETATM   32  O   UNL     1      77.188  29.438  32.911  1.00  0.00    -0.358 OA
HETATM   33  H   UNL     1      76.566  30.185  32.832  1.00  0.00     0.217 HD
ENDBRANCH  28  32
BRANCH  29  34
HETATM   34  O   UNL     1      74.548  29.484  32.250  1.00  0.00    -0.356 OA
HETATM   35  H   UNL     1      75.199  30.215  32.300  1.00  0.00     0.218 HD
ENDBRANCH  29  34
BRANCH  30  36
HETATM   36  O   UNL     1      73.387  27.341  31.001  1.00  0.00    -0.358 OA
HETATM   37  H   UNL     1      73.129  26.407  30.867  1.00  0.00     0.217 HD
ENDBRANCH  30  36
ENDBRANCH  24  26
ENDBRANCH  23  24
ENDBRANCH   3  23
BRANCH   6  38
HETATM   38  O   UNL     1      82.114  23.713  35.952  1.00  0.00    -0.283 OA
BRANCH  38  39
HETATM   39  C   UNL     1      83.020  24.708  35.807  1.00  0.00     0.295 C 
HETATM   40  O   UNL     1      83.244  25.180  34.698  1.00  0.00    -0.259 OA
BRANCH  39  41
HETATM   41  C   UNL     1      83.833  25.158  36.959  1.00  0.00     0.045 A 
HETATM   42  C   UNL     1      83.593  26.372  37.624  1.00  0.00     0.057 A 
HETATM   43  C   UNL     1      84.357  26.689  38.744  1.00  0.00     0.102 A 
HETATM   44  C   UNL     1      85.404  25.863  39.137  1.00  0.00     0.132 A 
HETATM   45  C   UNL     1      85.700  24.715  38.415  1.00  0.00     0.102 A 
HETATM   46  C   UNL     1      84.916  24.347  37.331  1.00  0.00     0.057 A 
BRANCH  43  47
HETATM   47  O   UNL     1      84.109  27.798  39.505  1.00  0.00    -0.358 OA
HETATM   48  H   UNL     1      83.149  27.957  39.535  1.00  0.00     0.217 HD
ENDBRANCH  43  47
BRANCH  44  49
HETATM   49  O   UNL     1      86.164  26.170  40.234  1.00  0.00    -0.356 OA
HETATM   50  H   UNL     1      85.536  26.579  40.863  1.00  0.00     0.218 HD
ENDBRANCH  44  49
BRANCH  45  51
HETATM   51  O   UNL     1      86.763  23.937  38.768  1.00  0.00    -0.358 OA
HETATM   52  H   UNL     1      86.632  23.095  38.288  1.00  0.00     0.217 HD
ENDBRANCH  45  51
ENDBRANCH  39  41
ENDBRANCH  38  39
ENDBRANCH   6  38
BRANCH   2  53
HETATM   53  O   UNL     1      77.548  25.259  34.868  1.00  0.00    -0.306 OA
BRANCH  53  54
HETATM   54  C   UNL     1      76.380  24.756  35.317  1.00  0.00     0.294 C 
HETATM   55  O   UNL     1      76.217  23.619  35.735  1.00  0.00    -0.259 OA
BRANCH  54  56
HETATM   56  C   UNL     1      75.298  25.752  35.186  1.00  0.00     0.045 A 
HETATM   57  C   UNL     1      75.537  27.053  35.651  1.00  0.00     0.057 A 
HETATM   58  C   UNL     1      74.574  28.037  35.484  1.00  0.00     0.102 A 
HETATM   59  C   UNL     1      73.392  27.741  34.821  1.00  0.00     0.132 A 
HETATM   60  C   UNL     1      73.158  26.453  34.351  1.00  0.00     0.102 A 
HETATM   61  C   UNL     1      74.092  25.441  34.546  1.00  0.00     0.057 A 
BRANCH  58  62
HETATM   62  O   UNL     1      74.760  29.310  35.944  1.00  0.00    -0.358 OA
HETATM   63  H   UNL     1      75.500  29.710  35.450  1.00  0.00     0.217 HD
ENDBRANCH  58  62
BRANCH  59  64
HETATM   64  O   UNL     1      72.454  28.714  34.611  1.00  0.00    -0.356 OA
HETATM   65  H   UNL     1      72.454  28.844  33.639  1.00  0.00     0.218 HD
ENDBRANCH  59  64
BRANCH  60  66
HETATM   66  O   UNL     1      72.011  26.180  33.665  1.00  0.00    -0.358 OA
HETATM   67  H   UNL     1      71.557  25.499  34.203  1.00  0.00     0.217 HD
ENDBRANCH  60  66
ENDBRANCH  54  56
ENDBRANCH  53  54
ENDBRANCH   2  53
BRANCH   4  68
HETATM   68  O   UNL     1      79.612  24.659  36.876  1.00  0.00    -0.304 OA
BRANCH  68  69
HETATM   69  C   UNL     1      79.991  25.732  37.636  1.00  0.00     0.294 C 
HETATM   70  O   UNL     1      80.666  25.604  38.644  1.00  0.00    -0.259 OA
BRANCH  69  71
HETATM   71  C   UNL     1      79.439  27.047  37.238  1.00  0.00     0.045 A 
HETATM   72  C   UNL     1      79.891  27.699  36.081  1.00  0.00     0.057 A 
HETATM   73  C   UNL     1      79.237  28.855  35.665  1.00  0.00     0.102 A 
HETATM   74  C   UNL     1      78.174  29.365  36.403  1.00  0.00     0.132 A 
HETATM   75  C   UNL     1      77.788  28.755  37.589  1.00  0.00     0.102 A 
HETATM   76  C   UNL     1      78.423  27.602  38.026  1.00  0.00     0.057 A 
BRANCH  73  77
HETATM   77  O   UNL     1      79.588  29.521  34.523  1.00  0.00    -0.358 OA
HETATM   78  H   UNL     1      79.917  28.871  33.875  1.00  0.00     0.217 HD
ENDBRANCH  73  77
BRANCH  74  79
HETATM   79  O   UNL     1      77.488  30.470  35.976  1.00  0.00    -0.356 OA
HETATM   80  H   UNL     1      76.591  30.359  36.355  1.00  0.00     0.218 HD
ENDBRANCH  74  79
BRANCH  75  81
HETATM   81  O   UNL     1      76.755  29.278  38.315  1.00  0.00    -0.358 OA
HETATM   82  H   UNL     1      77.130  29.398  39.213  1.00  0.00     0.217 HD
ENDBRANCH  75  81
ENDBRANCH  69  71
ENDBRANCH  68  69
ENDBRANCH   4  68
TORSDOF 31
ENDMDL
MODEL 10
REMARK VINA RESULT:    -8.821      1.958      7.978
REMARK INTER + INTRA:         -27.410
REMARK INTER:                 -20.934
REMARK INTRA:                  -6.476
REMARK UNBOUND:                -6.470
REMARK  31 active torsions:
REMARK  status: ('A' for Active; 'I' for Inactive)
REMARK    1  A    between atoms: O_2  and  C_27 
REMARK    2  A    between atoms: O_2  and  C_33 
REMARK    3  A    between atoms: O_3  and  C_34 
REMARK    4  A    between atoms: O_3  and  C_28 
REMARK    5  A    between atoms: O_4  and  C_35 
REMARK    6  A    between atoms: O_4  and  C_29 
REMARK    7  A    between atoms: O_5  and  C_36 
REMARK    8  A    between atoms: O_5  and  C_31 
REMARK    9  A    between atoms: O_6  and  C_32 
REMARK   10  A    between atoms: O_6  and  C_39 
REMARK   11  A    between atoms: O_12  and  C_51 
REMARK   12  A    between atoms: O_13  and  C_52 
REMARK   13  A    between atoms: O_14  and  C_53 
REMARK   14  A    between atoms: O_15  and  C_54 
REMARK   15  A    between atoms: O_16  and  C_55 
REMARK   16  A    between atoms: O_17  and  C_56 
REMARK   17  A    between atoms: O_18  and  C_59 
REMARK   18  A    between atoms: O_19  and  C_60 
REMARK   19  A    between atoms: O_20  and  C_61 
REMARK   20  A    between atoms: O_21  and  C_62 
REMARK   21  A    between atoms: O_22  and  C_63 
REMARK   22  A    between atoms: O_23  and  C_64 
REMARK   23  A    between atoms: O_24  and  C_65 
REMARK   24  A    between atoms: O_25  and  C_66 
REMARK   25  A    between atoms: O_26  and  C_67 
REMARK   26  A    between atoms: C_30  and  C_32 
REMARK   27  A    between atoms: C_33  and  C_37 
REMARK   28  A    between atoms: C_34  and  C_38 
REMARK   29  A    between atoms: C_35  and  C_40 
REMARK   30  A    between atoms: C_36  and  C_41 
REMARK   31  A    between atoms: C_39  and  C_42 
ROOT
HETATM    1  O   UNL     1      91.181  10.207  36.787  1.00  0.00    -0.348 OA
HETATM    2  C   UNL     1      92.182  11.706  39.030  1.00  0.00     0.198 C 
HETATM    3  C   UNL     1      92.547  10.221  38.808  1.00  0.00     0.195 C 
HETATM    4  C   UNL     1      90.766  11.944  38.444  1.00  0.00     0.220 C 
HETATM    5  C   UNL     1      92.495   9.923  37.290  1.00  0.00     0.181 C 
HETATM    6  C   UNL     1      90.821  11.580  36.938  1.00  0.00     0.302 C 
ENDROOT
BRANCH   5   7
HETATM    7  C   UNL     1      92.864   8.460  36.993  1.00  0.00     0.213 C 
BRANCH   7   8
HETATM    8  O   UNL     1      92.322   8.025  35.735  1.00  0.00    -0.315 OA
BRANCH   8   9
HETATM    9  C   UNL     1      93.001   6.999  35.155  1.00  0.00     0.293 C 
HETATM   10  O   UNL     1      93.090   5.858  35.574  1.00  0.00    -0.259 OA
BRANCH   9  11
HETATM   11  C   UNL     1      93.637   7.461  33.903  1.00  0.00     0.045 A 
HETATM   12  C   UNL     1      92.869   7.748  32.759  1.00  0.00     0.057 A 
HETATM   13  C   UNL     1      93.506   8.242  31.626  1.00  0.00     0.102 A 
HETATM   14  C   UNL     1      94.883   8.439  31.624  1.00  0.00     0.132 A 
HETATM   15  C   UNL     1      95.636   8.148  32.755  1.00  0.00     0.102 A 
HETATM   16  C   UNL     1      95.023   7.668  33.904  1.00  0.00     0.057 A 
BRANCH  13  17
HETATM   17  O   UNL     1      92.818   8.565  30.489  1.00  0.00    -0.358 OA
HETATM   18  H   UNL     1      93.150   8.019  29.755  1.00  0.00     0.217 HD
ENDBRANCH  13  17
BRANCH  14  19
HETATM   19  O   UNL     1      95.515   8.930  30.515  1.00  0.00    -0.356 OA
HETATM   20  H   UNL     1      96.450   8.664  30.627  1.00  0.00     0.218 HD
ENDBRANCH  14  19
BRANCH  15  21
HETATM   21  O   UNL     1      96.985   8.343  32.748  1.00  0.00    -0.358 OA
HETATM   22  H   UNL     1      97.353   7.532  32.340  1.00  0.00     0.217 HD
ENDBRANCH  15  21
ENDBRANCH   9  11
ENDBRANCH   8   9
ENDBRANCH   7   8
ENDBRANCH   5   7
BRANCH   3  23
HETATM   23  O   UNL     1      93.870   9.915  39.298  1.00  0.00    -0.307 OA
BRANCH  23  24
HETATM   24  C   UNL     1      95.018  10.609  39.076  1.00  0.00     0.294 C 
HETATM   25  O   UNL     1      95.513  10.635  37.955  1.00  0.00    -0.259 OA
BRANCH  24  26
HETATM   26  C   UNL     1      95.648  11.410  40.153  1.00  0.00     0.045 A 
HETATM   27  C   UNL     1      95.561  11.058  41.508  1.00  0.00     0.057 A 
HETATM   28  C   UNL     1      96.090  11.911  42.472  1.00  0.00     0.102 A 
HETATM   29  C   UNL     1      96.787  13.050  42.090  1.00  0.00     0.132 A 
HETATM   30  C   UNL     1      96.959  13.344  40.745  1.00  0.00     0.102 A 
HETATM   31  C   UNL     1      96.400  12.531  39.768  1.00  0.00     0.057 A 
BRANCH  28  32
HETATM   32  O   UNL     1      95.936  11.677  43.810  1.00  0.00    -0.358 OA
HETATM   33  H   UNL     1      95.712  10.737  43.944  1.00  0.00     0.217 HD
ENDBRANCH  28  32
BRANCH  29  34
HETATM   34  O   UNL     1      97.308  13.894  43.031  1.00  0.00    -0.356 OA
HETATM   35  H   UNL     1      98.148  13.466  43.299  1.00  0.00     0.218 HD
ENDBRANCH  29  34
BRANCH  30  36
HETATM   36  O   UNL     1      97.668  14.448  40.373  1.00  0.00    -0.358 OA
HETATM   37  H   UNL     1      97.248  14.746  39.541  1.00  0.00     0.217 HD
ENDBRANCH  30  36
ENDBRANCH  24  26
ENDBRANCH  23  24
ENDBRANCH   3  23
BRANCH   6  38
HETATM   38  O   UNL     1      89.511  11.794  36.382  1.00  0.00    -0.283 OA
BRANCH  38  39
HETATM   39  C   UNL     1      89.178  12.551  35.311  1.00  0.00     0.295 C 
HETATM   40  O   UNL     1      89.096  13.770  35.420  1.00  0.00    -0.259 OA
BRANCH  39  41
HETATM   41  C   UNL     1      88.796  11.915  34.030  1.00  0.00     0.045 A 
HETATM   42  C   UNL     1      87.493  11.990  33.510  1.00  0.00     0.057 A 
HETATM   43  C   UNL     1      87.230  11.427  32.265  1.00  0.00     0.102 A 
HETATM   44  C   UNL     1      88.220  10.716  31.593  1.00  0.00     0.132 A 
HETATM   45  C   UNL     1      89.477  10.560  32.160  1.00  0.00     0.102 A 
HETATM   46  C   UNL     1      89.780  11.163  33.372  1.00  0.00     0.057 A 
BRANCH  43  47
HETATM   47  O   UNL     1      86.018  11.555  31.647  1.00  0.00    -0.358 OA
HETATM   48  H   UNL     1      85.361  11.008  32.114  1.00  0.00     0.217 HD
ENDBRANCH  43  47
BRANCH  44  49
HETATM   49  O   UNL     1      87.969  10.153  30.371  1.00  0.00    -0.356 OA
HETATM   50  H   UNL     1      87.731   9.225  30.569  1.00  0.00     0.218 HD
ENDBRANCH  44  49
BRANCH  45  51
HETATM   51  O   UNL     1      90.427   9.814  31.527  1.00  0.00    -0.358 OA
HETATM   52  H   UNL     1      91.171  10.429  31.369  1.00  0.00     0.217 HD
ENDBRANCH  45  51
ENDBRANCH  39  41
ENDBRANCH  38  39
ENDBRANCH   6  38
BRANCH   2  53
HETATM   53  O   UNL     1      92.357  12.136  40.407  1.00  0.00    -0.306 OA
BRANCH  53  54
HETATM   54  C   UNL     1      92.901  13.343  40.658  1.00  0.00     0.294 C 
HETATM   55  O   UNL     1      93.388  14.086  39.818  1.00  0.00    -0.259 OA
BRANCH  54  56
HETATM   56  C   UNL     1      92.881  13.634  42.106  1.00  0.00     0.045 A 
HETATM   57  C   UNL     1      93.232  14.926  42.524  1.00  0.00     0.057 A 
HETATM   58  C   UNL     1      93.159  15.262  43.869  1.00  0.00     0.102 A 
HETATM   59  C   UNL     1      92.700  14.332  44.790  1.00  0.00     0.132 A 
HETATM   60  C   UNL     1      92.343  13.054  44.373  1.00  0.00     0.102 A 
HETATM   61  C   UNL     1      92.450  12.682  43.037  1.00  0.00     0.057 A 
BRANCH  58  62
HETATM   62  O   UNL     1      93.513  16.502  44.320  1.00  0.00    -0.358 OA
HETATM   63  H   UNL     1      93.152  17.167  43.705  1.00  0.00     0.217 HD
ENDBRANCH  58  62
BRANCH  59  64
HETATM   64  O   UNL     1      92.581  14.665  46.110  1.00  0.00    -0.356 OA
HETATM   65  H   UNL     1      92.602  13.805  46.580  1.00  0.00     0.218 HD
ENDBRANCH  59  64
BRANCH  60  66
HETATM   66  O   UNL     1      91.855  12.157  45.279  1.00  0.00    -0.358 OA
HETATM   67  H   UNL     1      91.961  11.285  44.845  1.00  0.00     0.217 HD
ENDBRANCH  60  66
ENDBRANCH  54  56
ENDBRANCH  53  54
ENDBRANCH   2  53
BRANCH   4  68
HETATM   68  O   UNL     1      90.356  13.324  38.606  1.00  0.00    -0.304 OA
BRANCH  68  69
HETATM   69  C   UNL     1      89.196  13.621  39.269  1.00  0.00     0.294 C 
HETATM   70  O   UNL     1      88.116  13.642  38.701  1.00  0.00    -0.259 OA
BRANCH  69  71
HETATM   71  C   UNL     1      89.333  14.032  40.684  1.00  0.00     0.045 A 
HETATM   72  C   UNL     1      89.829  15.301  41.022  1.00  0.00     0.057 A 
HETATM   73  C   UNL     1      89.795  15.700  42.355  1.00  0.00     0.102 A 
HETATM   74  C   UNL     1      89.304  14.840  43.333  1.00  0.00     0.132 A 
HETATM   75  C   UNL     1      88.891  13.558  42.997  1.00  0.00     0.102 A 
HETATM   76  C   UNL     1      88.915  13.136  41.675  1.00  0.00     0.057 A 
BRANCH  73  77
HETATM   77  O   UNL     1      90.214  16.937  42.757  1.00  0.00    -0.358 OA
HETATM   78  H   UNL     1      91.017  16.830  43.301  1.00  0.00     0.217 HD
ENDBRANCH  73  77
BRANCH  74  79
HETATM   79  O   UNL     1      89.215  15.240  44.639  1.00  0.00    -0.356 OA
HETATM   80  H   UNL     1      90.146  15.361  44.919  1.00  0.00     0.218 HD
ENDBRANCH  74  79
BRANCH  75  81
HETATM   81  O   UNL     1      88.430  12.717  43.970  1.00  0.00    -0.358 OA
HETATM   82  H   UNL     1      88.251  11.877  43.496  1.00  0.00     0.217 HD
ENDBRANCH  75  81
ENDBRANCH  69  71
ENDBRANCH  68  69
ENDBRANCH   4  68
TORSDOF 31
ENDMDL
