MODEL 1
REMARK VINA RESULT:      -8.4      0.000      0.000
REMARK  Name = 5280637
REMARK                            x       y       z     vdW  Elec       q    Type
REMARK                         _______ _______ _______ _____ _____    ______ ____
ROOT
ATOM     13  C   LIG    1      -13.413  43.479  13.166  0.00  0.00    +0.131 A 
ATOM     14  C   LIG    1      -12.536  44.531  12.900  0.00  0.00    +0.092 A 
ATOM     15  C   LIG    1      -11.380  44.308  12.151  0.00  0.00    +0.135 A 
ATOM     16  C   LIG    1      -11.108  43.025  11.670  0.00  0.00    +0.105 A 
ATOM     17  C   LIG    1       -9.897  42.758  10.879  0.00  0.00    +0.197 A 
ATOM     18  C   LIG    1       -9.711  41.367  10.420  0.00  0.00    +0.098 A 
ATOM     19  C   LIG    1      -10.631  40.441  10.735  0.00  0.00    +0.139 A 
ATOM     30  O   LIG    1      -11.767  40.694  11.487  0.00  0.00    -0.454 OA
ATOM     31  O   LIG    1       -9.085  43.633  10.612  0.00  0.00    -0.287 OA
ATOM     32  C   LIG    1      -11.985  41.973  11.934  0.00  0.00    +0.146 A 
ATOM     35  C   LIG    1      -13.139  42.199  12.684  0.00  0.00    +0.093 A 
ENDROOT
BRANCH  19  20
ATOM     20  C   LIG    1      -10.493  39.033  10.311  0.00  0.00    +0.021 A 
ATOM     21  C   LIG    1      -10.547  38.007  11.257  0.00  0.00    +0.015 A 
ATOM     22  C   LIG    1      -10.416  36.678  10.857  0.00  0.00    +0.050 A 
ATOM     23  C   LIG    1      -10.231  36.370   9.508  0.00  0.00    +0.158 A 
ATOM     24  C   LIG    1      -10.176  37.393   8.561  0.00  0.00    +0.159 A 
ATOM     29  C   LIG    1      -10.307  38.722   8.962  0.00  0.00    +0.060 A 
BRANCH  24  25
ATOM     25  O   LIG    1       -9.997  37.103   7.242  0.00  0.00    -0.503 OA
ATOM     26  H   LIG    1       -9.199  36.555   7.154  0.00  0.00    +0.292 HD
ENDBRANCH  24  25
BRANCH  23  27
ATOM     27  O   LIG    1      -10.103  35.068   9.130  0.00  0.00    -0.503 OA
ATOM     28  H   LIG    1      -10.321  34.495   9.886  0.00  0.00    +0.292 HD
ENDBRANCH  23  27
ENDBRANCH  19  20
BRANCH  15  33
ATOM     33  O   LIG    1      -10.556  45.367  11.920  0.00  0.00    -0.506 OA
ATOM     34  H   LIG    1      -10.130  45.654  12.742  0.00  0.00    +0.292 HD
ENDBRANCH  15  33
BRANCH  13  12
ATOM     12  O   LIG    1      -14.542  43.703  13.899  0.00  0.00    -0.461 OA
BRANCH  12   2
ATOM      1  O   LIG    1      -15.899  41.864  14.368  0.00  0.00    -0.331 OA
ATOM      2  C   LIG    1      -14.875  42.716  14.874  0.00  0.00    +0.339 C 
ATOM      3  C   LIG    1      -15.354  43.441  16.132  0.00  0.00    +0.214 C 
ATOM      4  C   LIG    1      -15.875  42.455  17.178  0.00  0.00    +0.180 C 
ATOM      5  C   LIG    1      -16.851  41.455  16.559  0.00  0.00    +0.177 C 
ATOM     36  C   LIG    1      -16.262  40.835  15.290  0.00  0.00    +0.179 C 
BRANCH   5   6
ATOM      6  O   LIG    1      -17.131  40.423  17.502  0.00  0.00    -0.386 OA
ATOM      7  H   LIG    1      -16.299  40.191  17.949  0.00  0.00    +0.210 HD
ENDBRANCH   5   6
BRANCH   4   8
ATOM      8  O   LIG    1      -16.565  43.170  18.204  0.00  0.00    -0.386 OA
ATOM      9  H   LIG    1      -16.494  42.647  19.021  0.00  0.00    +0.210 HD
ENDBRANCH   4   8
BRANCH   3  10
ATOM     10  O   LIG    1      -14.254  44.171  16.676  0.00  0.00    -0.383 OA
ATOM     11  H   LIG    1      -13.666  44.420  15.942  0.00  0.00    +0.210 HD
ENDBRANCH   3  10
BRANCH  36  37
ATOM     37  C   LIG    1      -17.264  39.922  14.590  0.00  0.00    +0.190 C 
BRANCH  37  38
ATOM     38  O   LIG    1      -17.724  40.573  13.420  0.00  0.00    -0.392 OA
ATOM     39  H   LIG    1      -17.423  41.497  13.458  0.00  0.00    +0.210 HD
ENDBRANCH  37  38
ENDBRANCH  36  37
ENDBRANCH  12   2
ENDBRANCH  13  12
TORSDOF 11
ENDMDL
MODEL 2
REMARK VINA RESULT:      -8.2      6.664     10.712
REMARK  Name = 5280637
REMARK                            x       y       z     vdW  Elec       q    Type
REMARK                         _______ _______ _______ _____ _____    ______ ____
ROOT
ATOM     13  C   LIG    1      -16.446  44.986  20.165  0.00  0.00    +0.131 A 
ATOM     14  C   LIG    1      -15.211  45.544  20.495  0.00  0.00    +0.092 A 
ATOM     15  C   LIG    1      -14.782  46.717  19.873  0.00  0.00    +0.135 A 
ATOM     16  C   LIG    1      -15.598  47.329  18.919  0.00  0.00    +0.105 A 
ATOM     17  C   LIG    1      -15.173  48.566  18.246  0.00  0.00    +0.197 A 
ATOM     18  C   LIG    1      -16.115  49.127  17.256  0.00  0.00    +0.098 A 
ATOM     19  C   LIG    1      -17.281  48.501  17.029  0.00  0.00    +0.139 A 
ATOM     30  O   LIG    1      -17.675  47.331  17.659  0.00  0.00    -0.454 OA
ATOM     31  O   LIG    1      -14.102  49.105  18.486  0.00  0.00    -0.287 OA
ATOM     32  C   LIG    1      -16.834  46.773  18.589  0.00  0.00    +0.146 A 
ATOM     35  C   LIG    1      -17.259  45.600  19.211  0.00  0.00    +0.093 A 
ENDROOT
BRANCH  19  20
ATOM     20  C   LIG    1      -18.258  49.011  16.045  0.00  0.00    +0.021 A 
ATOM     21  C   LIG    1      -18.967  48.121  15.236  0.00  0.00    +0.015 A 
ATOM     22  C   LIG    1      -19.889  48.603  14.306  0.00  0.00    +0.050 A 
ATOM     23  C   LIG    1      -20.103  49.976  14.184  0.00  0.00    +0.158 A 
ATOM     24  C   LIG    1      -19.394  50.867  14.990  0.00  0.00    +0.159 A 
ATOM     29  C   LIG    1      -18.473  50.385  15.920  0.00  0.00    +0.060 A 
BRANCH  24  25
ATOM     25  O   LIG    1      -19.597  52.210  14.879  0.00  0.00    -0.503 OA
ATOM     26  H   LIG    1      -20.066  52.515  15.674  0.00  0.00    +0.292 HD
ENDBRANCH  24  25
BRANCH  23  27
ATOM     27  O   LIG    1      -21.005  50.434  13.271  0.00  0.00    -0.503 OA
ATOM     28  H   LIG    1      -21.382  51.272  13.591  0.00  0.00    +0.292 HD
ENDBRANCH  23  27
ENDBRANCH  19  20
BRANCH  15  33
ATOM     33  O   LIG    1      -13.568  47.221  20.230  0.00  0.00    -0.506 OA
ATOM     34  H   LIG    1      -13.077  47.514  19.448  0.00  0.00    +0.292 HD
ENDBRANCH  15  33
BRANCH  13  12
ATOM     12  O   LIG    1      -16.860  43.839  20.775  0.00  0.00    -0.461 OA
BRANCH  12   2
ATOM      1  O   LIG    1      -15.996  42.792  18.877  0.00  0.00    -0.331 OA
ATOM      2  C   LIG    1      -16.912  42.667  19.962  0.00  0.00    +0.339 C 
ATOM      3  C   LIG    1      -18.342  42.518  19.443  0.00  0.00    +0.214 C 
ATOM      4  C   LIG    1      -18.453  41.369  18.439  0.00  0.00    +0.180 C 
ATOM      5  C   LIG    1      -17.352  41.450  17.382  0.00  0.00    +0.177 C 
ATOM     36  C   LIG    1      -15.981  41.637  18.037  0.00  0.00    +0.179 C 
BRANCH   5   6
ATOM      6  O   LIG    1      -17.348  40.250  16.613  0.00  0.00    -0.386 OA
ATOM      7  H   LIG    1      -17.435  40.494  15.676  0.00  0.00    +0.210 HD
ENDBRANCH   5   6
BRANCH   4   8
ATOM      8  O   LIG    1      -19.714  41.440  17.773  0.00  0.00    -0.386 OA
ATOM      9  H   LIG    1      -20.034  42.355  17.853  0.00  0.00    +0.210 HD
ENDBRANCH   4   8
BRANCH   3  10
ATOM     10  O   LIG    1      -19.199  42.260  20.555  0.00  0.00    -0.383 OA
ATOM     11  H   LIG    1      -18.657  42.277  21.362  0.00  0.00    +0.210 HD
ENDBRANCH   3  10
BRANCH  36  37
ATOM     37  C   LIG    1      -14.882  41.838  16.998  0.00  0.00    +0.190 C 
BRANCH  37  38
ATOM     38  O   LIG    1      -13.765  41.050  17.367  0.00  0.00    -0.392 OA
ATOM     39  H   LIG    1      -13.189  41.599  17.927  0.00  0.00    +0.210 HD
ENDBRANCH  37  38
ENDBRANCH  36  37
ENDBRANCH  12   2
ENDBRANCH  13  12
TORSDOF 11
ENDMDL
MODEL 3
REMARK VINA RESULT:      -8.1      9.577     13.895
REMARK  Name = 5280637
REMARK                            x       y       z     vdW  Elec       q    Type
REMARK                         _______ _______ _______ _____ _____    ______ ____
ROOT
ATOM     13  C   LIG    1      -19.188  49.473  16.099  0.00  0.00    +0.131 A 
ATOM     14  C   LIG    1      -19.586  48.372  15.342  0.00  0.00    +0.092 A 
ATOM     15  C   LIG    1      -20.199  48.557  14.102  0.00  0.00    +0.135 A 
ATOM     16  C   LIG    1      -20.413  49.853  13.626  0.00  0.00    +0.105 A 
ATOM     17  C   LIG    1      -21.058  50.080  12.325  0.00  0.00    +0.197 A 
ATOM     18  C   LIG    1      -21.232  51.490  11.920  0.00  0.00    +0.098 A 
ATOM     19  C   LIG    1      -20.802  52.466  12.735  0.00  0.00    +0.139 A 
ATOM     30  O   LIG    1      -20.200  52.249  13.965  0.00  0.00    -0.454 OA
ATOM     31  O   LIG    1      -21.434  49.160  11.612  0.00  0.00    -0.287 OA
ATOM     32  C   LIG    1      -20.015  50.955  14.382  0.00  0.00    +0.146 A 
ATOM     35  C   LIG    1      -19.403  50.767  15.621  0.00  0.00    +0.093 A 
ENDROOT
BRANCH  19  20
ATOM     20  C   LIG    1      -20.956  53.894  12.387  0.00  0.00    +0.021 A 
ATOM     21  C   LIG    1      -21.029  54.285  11.048  0.00  0.00    +0.015 A 
ATOM     22  C   LIG    1      -21.174  55.633  10.719  0.00  0.00    +0.050 A 
ATOM     23  C   LIG    1      -21.247  56.593  11.729  0.00  0.00    +0.158 A 
ATOM     24  C   LIG    1      -21.174  56.205  13.067  0.00  0.00    +0.159 A 
ATOM     29  C   LIG    1      -21.029  54.857  13.395  0.00  0.00    +0.060 A 
BRANCH  24  25
ATOM     25  O   LIG    1      -21.246  57.135  14.060  0.00  0.00    -0.503 OA
ATOM     26  H   LIG    1      -22.131  57.087  14.460  0.00  0.00    +0.292 HD
ENDBRANCH  24  25
BRANCH  23  27
ATOM     27  O   LIG    1      -21.387  57.906  11.395  0.00  0.00    -0.503 OA
ATOM     28  H   LIG    1      -21.026  58.456  12.112  0.00  0.00    +0.292 HD
ENDBRANCH  23  27
ENDBRANCH  19  20
BRANCH  15  33
ATOM     33  O   LIG    1      -20.569  47.449  13.402  0.00  0.00    -0.506 OA
ATOM     34  H   LIG    1      -20.234  47.493  12.494  0.00  0.00    +0.292 HD
ENDBRANCH  15  33
BRANCH  13  12
ATOM     12  O   LIG    1      -18.589  49.287  17.311  0.00  0.00    -0.461 OA
BRANCH  12   2
ATOM      1  O   LIG    1      -18.001  47.206  18.186  0.00  0.00    -0.331 OA
ATOM      2  C   LIG    1      -17.568  48.292  17.371  0.00  0.00    +0.339 C 
ATOM      3  C   LIG    1      -16.316  48.940  17.962  0.00  0.00    +0.214 C 
ATOM      4  C   LIG    1      -15.215  47.906  18.202  0.00  0.00    +0.180 C 
ATOM      5  C   LIG    1      -15.758  46.681  18.940  0.00  0.00    +0.177 C 
ATOM     36  C   LIG    1      -17.029  46.161  18.266  0.00  0.00    +0.179 C 
BRANCH   5   6
ATOM      6  O   LIG    1      -14.769  45.654  18.939  0.00  0.00    -0.386 OA
ATOM      7  H   LIG    1      -14.087  45.895  18.290  0.00  0.00    +0.210 HD
ENDBRANCH   5   6
BRANCH   4   8
ATOM      8  O   LIG    1      -14.185  48.485  19.004  0.00  0.00    -0.386 OA
ATOM      9  H   LIG    1      -14.087  49.412  18.726  0.00  0.00    +0.210 HD
ENDBRANCH   4   8
BRANCH   3  10
ATOM     10  O   LIG    1      -15.846  49.927  17.044  0.00  0.00    -0.383 OA
ATOM     11  H   LIG    1      -16.566  50.561  16.888  0.00  0.00    +0.210 HD
ENDBRANCH   3  10
BRANCH  36  37
ATOM     37  C   LIG    1      -17.654  45.012  19.052  0.00  0.00    +0.190 C 
BRANCH  37  38
ATOM     38  O   LIG    1      -17.414  45.227  20.431  0.00  0.00    -0.392 OA
ATOM     39  H   LIG    1      -17.295  44.356  20.849  0.00  0.00    +0.210 HD
ENDBRANCH  37  38
ENDBRANCH  36  37
ENDBRANCH  12   2
ENDBRANCH  13  12
TORSDOF 11
ENDMDL
MODEL 4
REMARK VINA RESULT:      -8.1     26.678     32.052
REMARK  Name = 5280637
REMARK                            x       y       z     vdW  Elec       q    Type
REMARK                         _______ _______ _______ _____ _____    ______ ____
ROOT
ATOM     13  C   LIG    1      -18.459  61.990  35.069  0.00  0.00    +0.131 A 
ATOM     14  C   LIG    1      -19.694  61.363  34.905  0.00  0.00    +0.092 A 
ATOM     15  C   LIG    1      -20.755  62.048  34.311  0.00  0.00    +0.135 A 
ATOM     16  C   LIG    1      -20.571  63.365  33.884  0.00  0.00    +0.105 A 
ATOM     17  C   LIG    1      -21.671  64.114  33.256  0.00  0.00    +0.197 A 
ATOM     18  C   LIG    1      -21.364  65.498  32.841  0.00  0.00    +0.098 A 
ATOM     19  C   LIG    1      -20.132  65.989  33.048  0.00  0.00    +0.139 A 
ATOM     30  O   LIG    1      -19.100  65.283  33.647  0.00  0.00    -0.454 OA
ATOM     31  O   LIG    1      -22.779  63.626  33.085  0.00  0.00    -0.287 OA
ATOM     32  C   LIG    1      -19.337  63.993  34.047  0.00  0.00    +0.146 A 
ATOM     35  C   LIG    1      -18.279  63.306  34.641  0.00  0.00    +0.093 A 
ENDROOT
BRANCH  19  20
ATOM     20  C   LIG    1      -19.771  67.368  32.661  0.00  0.00    +0.021 A 
ATOM     21  C   LIG    1      -20.049  68.433  33.521  0.00  0.00    +0.015 A 
ATOM     22  C   LIG    1      -19.709  69.735  33.156  0.00  0.00    +0.050 A 
ATOM     23  C   LIG    1      -19.089  69.976  31.929  0.00  0.00    +0.158 A 
ATOM     24  C   LIG    1      -18.811  68.915  31.068  0.00  0.00    +0.159 A 
ATOM     29  C   LIG    1      -19.151  67.612  31.434  0.00  0.00    +0.060 A 
BRANCH  24  25
ATOM     25  O   LIG    1      -18.204  69.139  29.869  0.00  0.00    -0.503 OA
ATOM     26  H   LIG    1      -17.519  68.461  29.741  0.00  0.00    +0.292 HD
ENDBRANCH  24  25
BRANCH  23  27
ATOM     27  O   LIG    1      -18.763  71.253  31.583  0.00  0.00    -0.503 OA
ATOM     28  H   LIG    1      -18.593  71.288  30.626  0.00  0.00    +0.292 HD
ENDBRANCH  23  27
ENDBRANCH  19  20
BRANCH  15  33
ATOM     33  O   LIG    1      -21.941  61.392  34.174  0.00  0.00    -0.506 OA
ATOM     34  H   LIG    1      -22.669  62.023  34.068  0.00  0.00    +0.292 HD
ENDBRANCH  15  33
BRANCH  13  12
ATOM     12  O   LIG    1      -17.425  61.315  35.650  0.00  0.00    -0.461 OA
BRANCH  12   2
ATOM      1  O   LIG    1      -16.845  59.705  34.065  0.00  0.00    -0.331 OA
ATOM      2  C   LIG    1      -16.394  60.854  34.779  0.00  0.00    +0.339 C 
ATOM      3  C   LIG    1      -15.175  60.509  35.635  0.00  0.00    +0.214 C 
ATOM      4  C   LIG    1      -14.072  59.863  34.796  0.00  0.00    +0.180 C 
ATOM      5  C   LIG    1      -14.627  58.738  33.923  0.00  0.00    +0.177 C 
ATOM     36  C   LIG    1      -15.864  59.207  33.153  0.00  0.00    +0.179 C 
BRANCH   5   6
ATOM      6  O   LIG    1      -13.626  58.321  32.997  0.00  0.00    -0.386 OA
ATOM      7  H   LIG    1      -13.402  57.396  33.194  0.00  0.00    +0.210 HD
ENDBRANCH   5   6
BRANCH   4   8
ATOM      8  O   LIG    1      -13.082  59.304  35.661  0.00  0.00    -0.386 OA
ATOM      9  H   LIG    1      -12.227  59.701  35.420  0.00  0.00    +0.210 HD
ENDBRANCH   4   8
BRANCH   3  10
ATOM     10  O   LIG    1      -14.682  61.714  36.219  0.00  0.00    -0.383 OA
ATOM     11  H   LIG    1      -15.135  61.844  37.070  0.00  0.00    +0.210 HD
ENDBRANCH   3  10
BRANCH  36  37
ATOM     37  C   LIG    1      -16.504  58.068  32.366  0.00  0.00    +0.190 C 
BRANCH  37  38
ATOM     38  O   LIG    1      -15.950  58.055  31.063  0.00  0.00    -0.392 OA
ATOM     39  H   LIG    1      -16.326  57.292  30.590  0.00  0.00    +0.210 HD
ENDBRANCH  37  38
ENDBRANCH  36  37
ENDBRANCH  12   2
ENDBRANCH  13  12
TORSDOF 11
ENDMDL
MODEL 5
REMARK VINA RESULT:      -8.1     33.351     35.960
REMARK  Name = 5280637
REMARK                            x       y       z     vdW  Elec       q    Type
REMARK                         _______ _______ _______ _____ _____    ______ ____
ROOT
ATOM     13  C   LIG    1       -2.050  74.607  23.942  0.00  0.00    +0.131 A 
ATOM     14  C   LIG    1       -3.041  74.734  24.916  0.00  0.00    +0.092 A 
ATOM     15  C   LIG    1       -4.380  74.852  24.543  0.00  0.00    +0.135 A 
ATOM     16  C   LIG    1       -4.722  74.842  23.189  0.00  0.00    +0.105 A 
ATOM     17  C   LIG    1       -6.124  74.966  22.764  0.00  0.00    +0.197 A 
ATOM     18  C   LIG    1       -6.370  74.941  21.308  0.00  0.00    +0.098 A 
ATOM     19  C   LIG    1       -5.332  74.807  20.468  0.00  0.00    +0.139 A 
ATOM     30  O   LIG    1       -4.010  74.698  20.870  0.00  0.00    -0.454 OA
ATOM     31  O   LIG    1       -7.041  75.084  23.565  0.00  0.00    -0.287 OA
ATOM     32  C   LIG    1       -3.732  74.714  22.214  0.00  0.00    +0.146 A 
ATOM     35  C   LIG    1       -2.395  74.597  22.590  0.00  0.00    +0.093 A 
ENDROOT
BRANCH  19  20
ATOM     20  C   LIG    1       -5.517  74.785  19.002  0.00  0.00    +0.021 A 
ATOM     21  C   LIG    1       -4.461  75.133  18.157  0.00  0.00    +0.015 A 
ATOM     22  C   LIG    1       -4.635  75.113  16.774  0.00  0.00    +0.050 A 
ATOM     23  C   LIG    1       -5.867  74.744  16.231  0.00  0.00    +0.158 A 
ATOM     24  C   LIG    1       -6.923  74.397  17.073  0.00  0.00    +0.159 A 
ATOM     29  C   LIG    1       -6.749  74.416  18.457  0.00  0.00    +0.060 A 
BRANCH  24  25
ATOM     25  O   LIG    1       -8.130  74.033  16.554  0.00  0.00    -0.503 OA
ATOM     26  H   LIG    1       -7.971  73.513  15.748  0.00  0.00    +0.292 HD
ENDBRANCH  24  25
BRANCH  23  27
ATOM     27  O   LIG    1       -6.025  74.729  14.878  0.00  0.00    -0.503 OA
ATOM     28  H   LIG    1       -6.157  73.811  14.584  0.00  0.00    +0.292 HD
ENDBRANCH  23  27
ENDBRANCH  19  20
BRANCH  15  33
ATOM     33  O   LIG    1       -5.309  74.974  25.532  0.00  0.00    -0.506 OA
ATOM     34  H   LIG    1       -5.342  74.169  26.070  0.00  0.00    +0.292 HD
ENDBRANCH  15  33
BRANCH  13  12
ATOM     12  O   LIG    1       -0.742  74.492  24.312  0.00  0.00    -0.461 OA
BRANCH  12   2
ATOM      1  O   LIG    1       -0.648  72.174  24.067  0.00  0.00    -0.331 OA
ATOM      2  C   LIG    1       -0.011  73.408  23.743  0.00  0.00    +0.339 C 
ATOM      3  C   LIG    1        1.406  73.445  24.316  0.00  0.00    +0.214 C 
ATOM      4  C   LIG    1        2.217  72.226  23.873  0.00  0.00    +0.180 C 
ATOM      5  C   LIG    1        1.433  70.932  24.089  0.00  0.00    +0.177 C 
ATOM     36  C   LIG    1        0.024  71.046  23.503  0.00  0.00    +0.179 C 
BRANCH   5   6
ATOM      6  O   LIG    1        2.120  69.854  23.459  0.00  0.00    -0.386 OA
ATOM      7  H   LIG    1        3.052  70.111  23.357  0.00  0.00    +0.210 HD
ENDBRANCH   5   6
BRANCH   4   8
ATOM      8  O   LIG    1        3.419  72.150  24.643  0.00  0.00    -0.386 OA
ATOM      9  H   LIG    1        3.996  72.878  24.353  0.00  0.00    +0.210 HD
ENDBRANCH   4   8
BRANCH   3  10
ATOM     10  O   LIG    1        2.046  74.633  23.851  0.00  0.00    -0.383 OA
ATOM     11  H   LIG    1        2.529  75.028  24.598  0.00  0.00    +0.210 HD
ENDBRANCH   3  10
BRANCH  36  37
ATOM     37  C   LIG    1       -0.816  69.810  23.810  0.00  0.00    +0.190 C 
BRANCH  37  38
ATOM     38  O   LIG    1       -0.313  69.204  24.986  0.00  0.00    -0.392 OA
ATOM     39  H   LIG    1        0.623  68.990  24.831  0.00  0.00    +0.210 HD
ENDBRANCH  37  38
ENDBRANCH  36  37
ENDBRANCH  12   2
ENDBRANCH  13  12
TORSDOF 11
ENDMDL
MODEL 6
REMARK VINA RESULT:      -8.1     11.791     14.997
REMARK  Name = 5280637
REMARK                            x       y       z     vdW  Elec       q    Type
REMARK                         _______ _______ _______ _____ _____    ______ ____
ROOT
ATOM     13  C   LIG    1      -21.505  53.901  12.977  0.00  0.00    +0.131 A 
ATOM     14  C   LIG    1      -21.227  53.697  11.625  0.00  0.00    +0.092 A 
ATOM     15  C   LIG    1      -20.284  52.743  11.239  0.00  0.00    +0.135 A 
ATOM     16  C   LIG    1      -19.622  51.995  12.215  0.00  0.00    +0.105 A 
ATOM     17  C   LIG    1      -18.622  50.984  11.839  0.00  0.00    +0.197 A 
ATOM     18  C   LIG    1      -17.985  50.251  12.952  0.00  0.00    +0.098 A 
ATOM     19  C   LIG    1      -18.342  50.533  14.215  0.00  0.00    +0.139 A 
ATOM     30  O   LIG    1      -19.279  51.492  14.567  0.00  0.00    -0.454 OA
ATOM     31  O   LIG    1      -18.328  50.757  10.674  0.00  0.00    -0.287 OA
ATOM     32  C   LIG    1      -19.899  52.198  13.566  0.00  0.00    +0.146 A 
ATOM     35  C   LIG    1      -20.841  53.152  13.950  0.00  0.00    +0.093 A 
ENDROOT
BRANCH  19  20
ATOM     20  C   LIG    1      -17.732  49.839  15.368  0.00  0.00    +0.021 A 
ATOM     21  C   LIG    1      -16.923  50.542  16.262  0.00  0.00    +0.015 A 
ATOM     22  C   LIG    1      -16.346  49.886  17.350  0.00  0.00    +0.050 A 
ATOM     23  C   LIG    1      -16.579  48.525  17.547  0.00  0.00    +0.158 A 
ATOM     24  C   LIG    1      -17.387  47.820  16.655  0.00  0.00    +0.159 A 
ATOM     29  C   LIG    1      -17.963  48.476  15.567  0.00  0.00    +0.060 A 
BRANCH  24  25
ATOM     25  O   LIG    1      -17.622  46.490  16.839  0.00  0.00    -0.503 OA
ATOM     26  H   LIG    1      -16.767  46.040  16.943  0.00  0.00    +0.292 HD
ENDBRANCH  24  25
BRANCH  23  27
ATOM     27  O   LIG    1      -16.010  47.896  18.612  0.00  0.00    -0.503 OA
ATOM     28  H   LIG    1      -16.711  47.506  19.162  0.00  0.00    +0.292 HD
ENDBRANCH  23  27
ENDBRANCH  19  20
BRANCH  15  33
ATOM     33  O   LIG    1      -20.048  52.583   9.907  0.00  0.00    -0.506 OA
ATOM     34  H   LIG    1      -20.656  51.929   9.530  0.00  0.00    +0.292 HD
ENDBRANCH  15  33
BRANCH  13  12
ATOM     12  O   LIG    1      -22.427  54.835  13.349  0.00  0.00    -0.461 OA
BRANCH  12   2
ATOM      1  O   LIG    1      -22.860  55.783  11.262  0.00  0.00    -0.331 OA
ATOM      2  C   LIG    1      -22.445  56.048  12.599  0.00  0.00    +0.339 C 
ATOM      3  C   LIG    1      -21.031  56.631  12.616  0.00  0.00    +0.214 C 
ATOM      4  C   LIG    1      -20.925  57.858  11.709  0.00  0.00    +0.180 C 
ATOM      5  C   LIG    1      -21.528  57.581  10.332  0.00  0.00    +0.177 C 
ATOM     36  C   LIG    1      -22.922  56.966  10.463  0.00  0.00    +0.179 C 
BRANCH   5   6
ATOM      6  O   LIG    1      -21.618  58.803   9.603  0.00  0.00    -0.386 OA
ATOM      7  H   LIG    1      -22.428  58.772   9.065  0.00  0.00    +0.210 HD
ENDBRANCH   5   6
BRANCH   4   8
ATOM      8  O   LIG    1      -19.549  58.199  11.530  0.00  0.00    -0.386 OA
ATOM      9  H   LIG    1      -19.078  57.942  12.342  0.00  0.00    +0.210 HD
ENDBRANCH   4   8
BRANCH   3  10
ATOM     10  O   LIG    1      -20.717  57.006  13.957  0.00  0.00    -0.383 OA
ATOM     11  H   LIG    1      -20.882  56.238  14.531  0.00  0.00    +0.210 HD
ENDBRANCH   3  10
BRANCH  36  37
ATOM     37  C   LIG    1      -23.495  56.573   9.104  0.00  0.00    +0.190 C 
BRANCH  37  38
ATOM     38  O   LIG    1      -22.421  56.353   8.209  0.00  0.00    -0.392 OA
ATOM     39  H   LIG    1      -22.477  57.026   7.509  0.00  0.00    +0.210 HD
ENDBRANCH  37  38
ENDBRANCH  36  37
ENDBRANCH  12   2
ENDBRANCH  13  12
TORSDOF 11
ENDMDL
MODEL 7
REMARK VINA RESULT:      -8.1      4.797      8.415
REMARK  Name = 5280637
REMARK                            x       y       z     vdW  Elec       q    Type
REMARK                         _______ _______ _______ _____ _____    ______ ____
ROOT
ATOM     13  C   LIG    1      -10.251  38.025   8.800  0.00  0.00    +0.131 A 
ATOM     14  C   LIG    1      -10.659  37.371   9.963  0.00  0.00    +0.092 A 
ATOM     15  C   LIG    1      -11.234  36.102   9.889  0.00  0.00    +0.135 A 
ATOM     16  C   LIG    1      -11.397  35.491   8.644  0.00  0.00    +0.105 A 
ATOM     17  C   LIG    1      -12.001  34.155   8.534  0.00  0.00    +0.197 A 
ATOM     18  C   LIG    1      -12.123  33.604   7.168  0.00  0.00    +0.098 A 
ATOM     19  C   LIG    1      -11.687  34.328   6.126  0.00  0.00    +0.139 A 
ATOM     30  O   LIG    1      -11.125  35.591   6.232  0.00  0.00    -0.454 OA
ATOM     31  O   LIG    1      -12.384  33.528   9.512  0.00  0.00    -0.287 OA
ATOM     32  C   LIG    1      -10.989  36.143   7.481  0.00  0.00    +0.146 A 
ATOM     35  C   LIG    1      -10.415  37.411   7.557  0.00  0.00    +0.093 A 
ENDROOT
BRANCH  19  20
ATOM     20  C   LIG    1      -11.791  33.832   4.738  0.00  0.00    +0.021 A 
ATOM     21  C   LIG    1      -13.022  33.848   4.079  0.00  0.00    +0.015 A 
ATOM     22  C   LIG    1      -13.121  33.379   2.769  0.00  0.00    +0.050 A 
ATOM     23  C   LIG    1      -11.988  32.894   2.114  0.00  0.00    +0.158 A 
ATOM     24  C   LIG    1      -10.757  32.877   2.771  0.00  0.00    +0.159 A 
ATOM     29  C   LIG    1      -10.659  33.346   4.081  0.00  0.00    +0.060 A 
BRANCH  24  25
ATOM     25  O   LIG    1       -9.644  32.408   2.140  0.00  0.00    -0.503 OA
ATOM     26  H   LIG    1       -8.926  33.050   2.269  0.00  0.00    +0.292 HD
ENDBRANCH  24  25
BRANCH  23  27
ATOM     27  O   LIG    1      -12.097  32.438   0.835  0.00  0.00    -0.503 OA
ATOM     28  H   LIG    1      -12.301  31.487   0.854  0.00  0.00    +0.292 HD
ENDBRANCH  23  27
ENDBRANCH  19  20
BRANCH  15  33
ATOM     33  O   LIG    1      -11.617  35.507  11.053  0.00  0.00    -0.506 OA
ATOM     34  H   LIG    1      -10.850  35.354  11.625  0.00  0.00    +0.292 HD
ENDBRANCH  15  33
BRANCH  13  12
ATOM     12  O   LIG    1       -9.690  39.266   8.878  0.00  0.00    -0.461 OA
BRANCH  12   2
ATOM      1  O   LIG    1      -10.711  41.311   8.415  0.00  0.00    -0.331 OA
ATOM      2  C   LIG    1      -10.512  40.306   9.405  0.00  0.00    +0.339 C 
ATOM      3  C   LIG    1       -9.804  40.890  10.628  0.00  0.00    +0.214 C 
ATOM      4  C   LIG    1      -10.545  42.114  11.168  0.00  0.00    +0.180 C 
ATOM      5  C   LIG    1      -10.883  43.096  10.046  0.00  0.00    +0.177 C 
ATOM     36  C   LIG    1      -11.550  42.373   8.873  0.00  0.00    +0.179 C 
BRANCH   5   6
ATOM      6  O   LIG    1      -11.765  44.097  10.546  0.00  0.00    -0.386 OA
ATOM      7  H   LIG    1      -11.300  44.584  11.248  0.00  0.00    +0.210 HD
ENDBRANCH   5   6
BRANCH   4   8
ATOM      8  O   LIG    1       -9.718  42.791  12.115  0.00  0.00    -0.386 OA
ATOM      9  H   LIG    1       -9.862  42.369  12.980  0.00  0.00    +0.210 HD
ENDBRANCH   4   8
BRANCH   3  10
ATOM     10  O   LIG    1       -9.751  39.884  11.638  0.00  0.00    -0.383 OA
ATOM     11  H   LIG    1       -9.809  39.016  11.203  0.00  0.00    +0.210 HD
ENDBRANCH   3  10
BRANCH  36  37
ATOM     37  C   LIG    1      -11.789  43.312   7.695  0.00  0.00    +0.190 C 
BRANCH  37  38
ATOM     38  O   LIG    1      -11.049  44.500   7.908  0.00  0.00    -0.392 OA
ATOM     39  H   LIG    1      -10.200  44.406   7.442  0.00  0.00    +0.210 HD
ENDBRANCH  37  38
ENDBRANCH  36  37
ENDBRANCH  12   2
ENDBRANCH  13  12
TORSDOF 11
ENDMDL
MODEL 8
REMARK VINA RESULT:      -8.1     22.083     27.009
REMARK  Name = 5280637
REMARK                            x       y       z     vdW  Elec       q    Type
REMARK                         _______ _______ _______ _____ _____    ______ ____
ROOT
ATOM     13  C   LIG    1      -13.879  50.858  34.686  0.00  0.00    +0.131 A 
ATOM     14  C   LIG    1      -15.130  50.641  35.264  0.00  0.00    +0.092 A 
ATOM     15  C   LIG    1      -15.741  51.648  36.012  0.00  0.00    +0.135 A 
ATOM     16  C   LIG    1      -15.091  52.873  36.180  0.00  0.00    +0.105 A 
ATOM     17  C   LIG    1      -15.709  53.952  36.964  0.00  0.00    +0.197 A 
ATOM     18  C   LIG    1      -14.934  55.205  37.074  0.00  0.00    +0.098 A 
ATOM     19  C   LIG    1      -13.740  55.295  36.467  0.00  0.00    +0.139 A 
ATOM     30  O   LIG    1      -13.157  54.273  35.734  0.00  0.00    -0.454 OA
ATOM     31  O   LIG    1      -16.801  53.828  37.500  0.00  0.00    -0.287 OA
ATOM     32  C   LIG    1      -13.840  53.091  35.602  0.00  0.00    +0.146 A 
ATOM     35  C   LIG    1      -13.232  52.083  34.855  0.00  0.00    +0.093 A 
ENDROOT
BRANCH  19  20
ATOM     20  C   LIG    1      -12.917  56.520  36.549  0.00  0.00    +0.021 A 
ATOM     21  C   LIG    1      -11.848  56.587  37.445  0.00  0.00    +0.015 A 
ATOM     22  C   LIG    1      -11.072  57.743  37.524  0.00  0.00    +0.050 A 
ATOM     23  C   LIG    1      -11.363  58.835  36.705  0.00  0.00    +0.158 A 
ATOM     24  C   LIG    1      -12.430  58.771  35.810  0.00  0.00    +0.159 A 
ATOM     29  C   LIG    1      -13.206  57.615  35.732  0.00  0.00    +0.060 A 
BRANCH  24  25
ATOM     25  O   LIG    1      -12.722  59.831  35.005  0.00  0.00    -0.503 OA
ATOM     26  H   LIG    1      -13.390  59.549  34.358  0.00  0.00    +0.292 HD
ENDBRANCH  24  25
BRANCH  23  27
ATOM     27  O   LIG    1      -10.598  59.959  36.792  0.00  0.00    -0.503 OA
ATOM     28  H   LIG    1       -9.707  59.764  36.454  0.00  0.00    +0.292 HD
ENDBRANCH  23  27
ENDBRANCH  19  20
BRANCH  15  33
ATOM     33  O   LIG    1      -16.962  51.386  36.556  0.00  0.00    -0.506 OA
ATOM     34  H   LIG    1      -16.895  51.298  37.518  0.00  0.00    +0.292 HD
ENDBRANCH  15  33
BRANCH  13  12
ATOM     12  O   LIG    1      -13.285  49.870  33.956  0.00  0.00    -0.461 OA
BRANCH  12   2
ATOM      1  O   LIG    1      -12.391  48.753  35.798  0.00  0.00    -0.331 OA
ATOM      2  C   LIG    1      -13.140  48.603  34.595  0.00  0.00    +0.339 C 
ATOM      3  C   LIG    1      -12.417  47.668  33.625  0.00  0.00    +0.214 C 
ATOM      4  C   LIG    1      -12.085  46.330  34.287  0.00  0.00    +0.180 C 
ATOM      5  C   LIG    1      -11.426  46.534  35.651  0.00  0.00    +0.177 C 
ATOM     36  C   LIG    1      -12.231  47.519  36.501  0.00  0.00    +0.179 C 
BRANCH   5   6
ATOM      6  O   LIG    1      -11.345  45.283  36.328  0.00  0.00    -0.386 OA
ATOM      7  H   LIG    1      -11.101  44.604  35.676  0.00  0.00    +0.210 HD
ENDBRANCH   5   6
BRANCH   4   8
ATOM      8  O   LIG    1      -11.176  45.603  33.459  0.00  0.00    -0.386 OA
ATOM      9  H   LIG    1      -11.631  45.418  32.620  0.00  0.00    +0.210 HD
ENDBRANCH   4   8
BRANCH   3  10
ATOM     10  O   LIG    1      -13.267  47.443  32.501  0.00  0.00    -0.383 OA
ATOM     11  H   LIG    1      -14.160  47.247  32.833  0.00  0.00    +0.210 HD
ENDBRANCH   3  10
BRANCH  36  37
ATOM     37  C   LIG    1      -11.530  47.830  37.820  0.00  0.00    +0.190 C 
BRANCH  37  38
ATOM     38  O   LIG    1      -10.228  47.276  37.779  0.00  0.00    -0.392 OA
ATOM     39  H   LIG    1       -9.673  47.779  38.400  0.00  0.00    +0.210 HD
ENDBRANCH  37  38
ENDBRANCH  36  37
ENDBRANCH  12   2
ENDBRANCH  13  12
TORSDOF 11
ENDMDL
MODEL 9
REMARK VINA RESULT:      -8.0     33.085     35.588
REMARK  Name = 5280637
REMARK                            x       y       z     vdW  Elec       q    Type
REMARK                         _______ _______ _______ _____ _____    ______ ____
ROOT
ATOM     13  C   LIG    1       -3.704  74.057  23.279  0.00  0.00    +0.131 A 
ATOM     14  C   LIG    1       -4.940  74.474  23.774  0.00  0.00    +0.092 A 
ATOM     15  C   LIG    1       -5.939  74.899  22.898  0.00  0.00    +0.135 A 
ATOM     16  C   LIG    1       -5.694  74.903  21.523  0.00  0.00    +0.105 A 
ATOM     17  C   LIG    1       -6.727  75.347  20.575  0.00  0.00    +0.197 A 
ATOM     18  C   LIG    1       -6.360  75.309  19.145  0.00  0.00    +0.098 A 
ATOM     19  C   LIG    1       -5.138  74.881  18.791  0.00  0.00    +0.139 A 
ATOM     30  O   LIG    1       -4.163  74.470  19.687  0.00  0.00    -0.454 OA
ATOM     31  O   LIG    1       -7.830  75.728  20.942  0.00  0.00    -0.287 OA
ATOM     32  C   LIG    1       -4.459  74.486  21.027  0.00  0.00    +0.146 A 
ATOM     35  C   LIG    1       -3.462  74.063  21.904  0.00  0.00    +0.093 A 
ENDROOT
BRANCH  19  20
ATOM     20  C   LIG    1       -4.713  74.829  17.377  0.00  0.00    +0.021 A 
ATOM     21  C   LIG    1       -4.158  75.958  16.770  0.00  0.00    +0.015 A 
ATOM     22  C   LIG    1       -3.758  75.910  15.435  0.00  0.00    +0.050 A 
ATOM     23  C   LIG    1       -3.910  74.732  14.703  0.00  0.00    +0.158 A 
ATOM     24  C   LIG    1       -4.464  73.603  15.306  0.00  0.00    +0.159 A 
ATOM     29  C   LIG    1       -4.865  73.651  16.642  0.00  0.00    +0.060 A 
BRANCH  24  25
ATOM     25  O   LIG    1       -4.616  72.447  14.601  0.00  0.00    -0.503 OA
ATOM     26  H   LIG    1       -5.567  72.259  14.523  0.00  0.00    +0.292 HD
ENDBRANCH  24  25
BRANCH  23  27
ATOM     27  O   LIG    1       -3.516  74.698  13.400  0.00  0.00    -0.503 OA
ATOM     28  H   LIG    1       -2.550  74.587  13.363  0.00  0.00    +0.292 HD
ENDBRANCH  23  27
ENDBRANCH  19  20
BRANCH  15  33
ATOM     33  O   LIG    1       -7.128  75.297  23.432  0.00  0.00    -0.506 OA
ATOM     34  H   LIG    1       -7.839  74.696  23.164  0.00  0.00    +0.292 HD
ENDBRANCH  15  33
BRANCH  13  12
ATOM     12  O   LIG    1       -2.730  73.642  24.140  0.00  0.00    -0.461 OA
BRANCH  12   2
ATOM      1  O   LIG    1       -1.468  71.694  23.906  0.00  0.00    -0.331 OA
ATOM      2  C   LIG    1       -1.561  73.072  23.553  0.00  0.00    +0.339 C 
ATOM      3  C   LIG    1       -0.349  73.842  24.077  0.00  0.00    +0.214 C 
ATOM      4  C   LIG    1        0.960  73.200  23.616  0.00  0.00    +0.180 C 
ATOM      5  C   LIG    1        0.955  71.692  23.866  0.00  0.00    +0.177 C 
ATOM     36  C   LIG    1       -0.328  71.056  23.328  0.00  0.00    +0.179 C 
BRANCH   5   6
ATOM      6  O   LIG    1        2.081  71.103  23.220  0.00  0.00    -0.386 OA
ATOM      7  H   LIG    1        2.285  70.268  23.675  0.00  0.00    +0.210 HD
ENDBRANCH   5   6
BRANCH   4   8
ATOM      8  O   LIG    1        2.051  73.767  24.344  0.00  0.00    -0.386 OA
ATOM      9  H   LIG    1        2.869  73.378  23.991  0.00  0.00    +0.210 HD
ENDBRANCH   4   8
BRANCH   3  10
ATOM     10  O   LIG    1       -0.420  75.179  23.583  0.00  0.00    -0.383 OA
ATOM     11  H   LIG    1       -0.091  75.775  24.278  0.00  0.00    +0.210 HD
ENDBRANCH   3  10
BRANCH  36  37
ATOM     37  C   LIG    1       -0.409  69.571  23.671  0.00  0.00    +0.190 C 
BRANCH  37  38
ATOM     38  O   LIG    1        0.370  69.334  24.829  0.00  0.00    -0.392 OA
ATOM     39  H   LIG    1        1.303  69.299  24.556  0.00  0.00    +0.210 HD
ENDBRANCH  37  38
ENDBRANCH  36  37
ENDBRANCH  12   2
ENDBRANCH  13  12
TORSDOF 11
ENDMDL
