REMARK  26 active torsions:
REMARK  status: ('A' for Active; 'I' for Inactive)
REMARK    1  A    between atoms: O_2  and  C_29 
REMARK    2  A    between atoms: O_2  and  C_23 
REMARK    3  A    between atoms: O_3  and  C_24 
REMARK    4  A    between atoms: O_3  and  C_30 
REMARK    5  A    between atoms: O_4  and  C_26 
REMARK    6  A    between atoms: O_5  and  C_31 
REMARK    7  A    between atoms: O_5  and  C_27 
REMARK    8  A    between atoms: O_6  and  C_28 
REMARK    9  A    between atoms: O_6  and  C_34 
REMARK   10  A    between atoms: O_11  and  C_43 
REMARK   11  A    between atoms: O_12  and  C_44 
REMARK   12  A    between atoms: O_13  and  C_45 
REMARK   13  A    between atoms: O_14  and  C_46 
REMARK   14  A    between atoms: O_15  and  C_49 
REMARK   15  A    between atoms: O_16  and  C_50 
REMARK   16  A    between atoms: O_17  and  C_51 
REMARK   17  A    between atoms: O_18  and  C_52 
REMARK   18  A    between atoms: O_19  and  C_53 
REMARK   19  A    between atoms: O_20  and  C_54 
REMARK   20  A    between atoms: O_21  and  C_55 
REMARK   21  A    between atoms: O_22  and  C_56 
REMARK   22  A    between atoms: C_25  and  C_28 
REMARK   23  A    between atoms: C_29  and  C_32 
REMARK   24  A    between atoms: C_30  and  C_33 
REMARK   25  A    between atoms: C_31  and  C_35 
REMARK   26  A    between atoms: C_34  and  C_36 
ROOT
HETATM    1  O   UNL     1       0.593   1.217  -0.094  1.00  0.00    -0.348 OA
HETATM    2  C   UNL     1       0.809  -1.156  -0.486  1.00  0.00     0.195 C 
HETATM    3  C   UNL     1      -0.591  -1.390   0.101  1.00  0.00     0.198 C 
HETATM    4  C   UNL     1       1.419   0.083   0.193  1.00  0.00     0.181 C 
HETATM    5  C   UNL     1      -1.463  -0.118   0.056  1.00  0.00     0.206 C 
HETATM    6  C   UNL     1      -0.683   1.126   0.545  1.00  0.00     0.301 C 
ENDROOT
BRANCH   4   7
HETATM    7  C   UNL     1       2.858   0.328  -0.288  1.00  0.00     0.213 C 
BRANCH   7   8
HETATM    8  O   UNL     1       3.386   1.543   0.265  1.00  0.00    -0.315 OA
BRANCH   8   9
HETATM    9  C   UNL     1       3.322   2.614  -0.569  1.00  0.00     0.293 C 
HETATM   10  O   UNL     1       2.890   2.624  -1.710  1.00  0.00    -0.259 OA
BRANCH   9  11
HETATM   11  C   UNL     1       3.861   3.809   0.114  1.00  0.00     0.045 A 
HETATM   12  C   UNL     1       4.946   3.712   1.003  1.00  0.00     0.057 A 
HETATM   13  C   UNL     1       5.452   4.873   1.577  1.00  0.00     0.102 A 
HETATM   14  C   UNL     1       4.882   6.107   1.281  1.00  0.00     0.132 A 
HETATM   15  C   UNL     1       3.807   6.193   0.406  1.00  0.00     0.102 A 
HETATM   16  C   UNL     1       3.292   5.053  -0.191  1.00  0.00     0.057 A 
BRANCH  13  17
HETATM   17  O   UNL     1       6.519   4.856   2.432  1.00  0.00    -0.358 OA
HETATM   18  H   UNL     1       6.824   3.937   2.533  1.00  0.00     0.217 HD
ENDBRANCH  13  17
BRANCH  14  19
HETATM   19  O   UNL     1       5.378   7.254   1.839  1.00  0.00    -0.356 OA
HETATM   20  H   UNL     1       6.122   6.951   2.398  1.00  0.00     0.218 HD
ENDBRANCH  14  19
BRANCH  15  21
HETATM   21  O   UNL     1       3.252   7.406   0.119  1.00  0.00    -0.358 OA
HETATM   22  H   UNL     1       3.763   8.048   0.654  1.00  0.00     0.217 HD
ENDBRANCH  15  21
ENDBRANCH   9  11
ENDBRANCH   8   9
ENDBRANCH   7   8
ENDBRANCH   4   7
BRANCH   2  23
HETATM   23  O   UNL     1       1.668  -2.287  -0.201  1.00  0.00    -0.307 OA
BRANCH  23  24
HETATM   24  C   UNL     1       2.116  -3.248  -1.043  1.00  0.00     0.294 C 
HETATM   25  O   UNL     1       2.779  -4.185  -0.612  1.00  0.00    -0.259 OA
BRANCH  24  26
HETATM   26  C   UNL     1       1.781  -3.215  -2.485  1.00  0.00     0.045 A 
HETATM   27  C   UNL     1       2.007  -2.085  -3.285  1.00  0.00     0.057 A 
HETATM   28  C   UNL     1       1.632  -2.110  -4.624  1.00  0.00     0.102 A 
HETATM   29  C   UNL     1       1.118  -3.273  -5.184  1.00  0.00     0.132 A 
HETATM   30  C   UNL     1       0.971  -4.416  -4.411  1.00  0.00     0.102 A 
HETATM   31  C   UNL     1       1.301  -4.400  -3.063  1.00  0.00     0.057 A 
BRANCH  28  32
HETATM   32  O   UNL     1       1.746  -1.013  -5.429  1.00  0.00    -0.358 OA
HETATM   33  H   UNL     1       1.930  -0.230  -4.878  1.00  0.00     0.217 HD
ENDBRANCH  28  32
BRANCH  29  34
HETATM   34  O   UNL     1       0.756  -3.308  -6.503  1.00  0.00    -0.356 OA
HETATM   35  H   UNL     1       0.946  -2.404  -6.829  1.00  0.00     0.218 HD
ENDBRANCH  29  34
BRANCH  30  36
HETATM   36  O   UNL     1       0.496  -5.564  -4.971  1.00  0.00    -0.358 OA
HETATM   37  H   UNL     1       0.364  -5.348  -5.916  1.00  0.00     0.217 HD
ENDBRANCH  30  36
ENDBRANCH  24  26
ENDBRANCH  23  24
ENDBRANCH   2  23
BRANCH   6  38
HETATM   38  O   UNL     1      -1.469   2.283   0.181  1.00  0.00    -0.283 OA
BRANCH  38  39
HETATM   39  C   UNL     1      -2.213   3.034   1.023  1.00  0.00     0.295 C 
HETATM   40  O   UNL     1      -3.082   3.796   0.616  1.00  0.00    -0.259 OA
BRANCH  39  41
HETATM   41  C   UNL     1      -1.869   3.047   2.457  1.00  0.00     0.045 A 
HETATM   42  C   UNL     1      -2.142   1.944   3.279  1.00  0.00     0.057 A 
HETATM   43  C   UNL     1      -1.764   1.991   4.616  1.00  0.00     0.102 A 
HETATM   44  C   UNL     1      -1.198   3.147   5.142  1.00  0.00     0.132 A 
HETATM   45  C   UNL     1      -1.001   4.263   4.338  1.00  0.00     0.102 A 
HETATM   46  C   UNL     1      -1.326   4.224   2.990  1.00  0.00     0.057 A 
BRANCH  43  47
HETATM   47  O   UNL     1      -1.921   0.920   5.449  1.00  0.00    -0.358 OA
HETATM   48  H   UNL     1      -2.323   0.189   4.946  1.00  0.00     0.217 HD
ENDBRANCH  43  47
BRANCH  44  49
HETATM   49  O   UNL     1      -0.832   3.204   6.459  1.00  0.00    -0.356 OA
HETATM   50  H   UNL     1      -1.058   2.319   6.814  1.00  0.00     0.218 HD
ENDBRANCH  44  49
BRANCH  45  51
HETATM   51  O   UNL     1      -0.486   5.408   4.871  1.00  0.00    -0.358 OA
HETATM   52  H   UNL     1      -0.375   5.215   5.824  1.00  0.00     0.217 HD
ENDBRANCH  45  51
ENDBRANCH  39  41
ENDBRANCH  38  39
ENDBRANCH   6  38
BRANCH   3  53
HETATM   53  O   UNL     1      -1.256  -2.545  -0.488  1.00  0.00    -0.306 OA
BRANCH  53  54
HETATM   54  C   UNL     1      -1.623  -2.505  -1.790  1.00  0.00     0.294 C 
HETATM   55  O   UNL     1      -1.472  -1.564  -2.548  1.00  0.00    -0.259 OA
BRANCH  54  56
HETATM   56  C   UNL     1      -2.311  -3.756  -2.170  1.00  0.00     0.045 A 
HETATM   57  C   UNL     1      -3.365  -3.679  -3.096  1.00  0.00     0.057 A 
HETATM   58  C   UNL     1      -3.996  -4.849  -3.503  1.00  0.00     0.102 A 
HETATM   59  C   UNL     1      -3.565  -6.080  -3.018  1.00  0.00     0.132 A 
HETATM   60  C   UNL     1      -2.518  -6.149  -2.108  1.00  0.00     0.102 A 
HETATM   61  C   UNL     1      -1.892  -4.993  -1.662  1.00  0.00     0.057 A 
BRANCH  58  62
HETATM   62  O   UNL     1      -5.042  -4.843  -4.382  1.00  0.00    -0.358 OA
HETATM   63  H   UNL     1      -5.236  -3.923  -4.632  1.00  0.00     0.217 HD
ENDBRANCH  58  62
BRANCH  59  64
HETATM   64  O   UNL     1      -4.163  -7.239  -3.433  1.00  0.00    -0.356 OA
HETATM   65  H   UNL     1      -4.848  -6.946  -4.068  1.00  0.00     0.218 HD
ENDBRANCH  59  64
BRANCH  60  66
HETATM   66  O   UNL     1      -2.085  -7.359  -1.652  1.00  0.00    -0.358 OA
HETATM   67  H   UNL     1      -2.614  -8.017  -2.148  1.00  0.00     0.217 HD
ENDBRANCH  60  66
ENDBRANCH  54  56
ENDBRANCH  53  54
ENDBRANCH   3  53
BRANCH   5  68
HETATM   68  O   UNL     1      -2.628  -0.329   0.874  1.00  0.00    -0.388 OA
HETATM   69  H   UNL     1      -3.222  -0.912   0.365  1.00  0.00     0.210 HD
ENDBRANCH   5  68
TORSDOF 26
