REMARK  Name = 74978140
REMARK  12 active torsions:
REMARK  status: ('A' for Active; 'I' for Inactive)
REMARK    1  A    between atoms: O_2  and  C_16
REMARK    2  A    between atoms: O_2  and  C_18
REMARK    3  A    between atoms: O_3  and  C_12
REMARK    4  A    between atoms: O_4  and  C_13
REMARK    5  A    between atoms: O_5  and  C_14
REMARK    6  A    between atoms: O_6  and  C_17
REMARK    7  A    between atoms: O_9  and  C_24
REMARK    8  A    between atoms: O_10  and  C_29
REMARK    9  A    between atoms: O_11  and  C_32
REMARK   10  A    between atoms: O_11  and  C_33
REMARK   11  A    between atoms: C_15  and  C_17
REMARK   12  A    between atoms: C_19  and  C_23
REMARK                            x       y       z     vdW  Elec       q    Type
REMARK                         _______ _______ _______ _____ _____    ______ ____
ROOT
ATOM      1  O   UNL     1      -1.835  -1.866  -0.227  0.00  0.00    +0.000 OA
ATOM      2  O   UNL     1      -1.856   1.893   1.345  0.00  0.00    +0.000 OA
ATOM      3  C   UNL     1      -0.623  -0.062   0.834  0.00  0.00    +0.000 A 
ATOM      4  C   UNL     1      -0.689  -1.298   0.306  0.00  0.00    +0.000 A 
ATOM      5  C   UNL     1      -1.854   0.763   0.876  0.00  0.00    +0.000 A 
ATOM      6  C   UNL     1      -3.071   0.151   0.321  0.00  0.00    +0.000 A 
ATOM      7  C   UNL     1      -2.997  -1.138  -0.204  0.00  0.00    +0.000 A 
ATOM      8  C   UNL     1      -4.282   0.846   0.317  0.00  0.00    +0.000 A 
ATOM      9  C   UNL     1      -4.137  -1.740  -0.737  0.00  0.00    +0.000 A 
ATOM     10  C   UNL     1      -5.421   0.241  -0.217  0.00  0.00    +0.000 A 
ATOM     11  C   UNL     1      -5.348  -1.049  -0.743  0.00  0.00    +0.000 A 
ENDROOT
BRANCH   4  12
ATOM     12  C   UNL     1       0.486  -2.184   0.216  0.00  0.00    +0.000 A 
ATOM     13  C   UNL     1       0.924  -2.637  -1.028  0.00  0.00    +0.000 A 
ATOM     14  C   UNL     1       1.160  -2.568   1.375  0.00  0.00    +0.000 A 
ATOM     15  C   UNL     1       2.037  -3.474  -1.113  0.00  0.00    +0.000 A 
ATOM     16  C   UNL     1       2.272  -3.405   1.290  0.00  0.00    +0.000 A 
ATOM     17  C   UNL     1       2.711  -3.858   0.046  0.00  0.00    +0.000 A 
BRANCH  17  18
ATOM     18  O   UNL     1       3.797  -4.674  -0.036  0.00  0.00    +0.000 OA
ATOM     19  C   UNL     1       4.191  -5.100  -1.340  0.00  0.00    +0.000 C 
ENDBRANCH  17  18
ENDBRANCH   4  12
BRANCH   8  20
ATOM     20  O   UNL     1      -4.408   2.107   0.816  0.00  0.00    +0.000 OA
ATOM     21  H   UNL     1      -3.558   2.424   1.159  0.00  0.00    +0.000 HD
ENDBRANCH   8  20
BRANCH  11  22
ATOM     22  O   UNL     1      -6.462  -1.635  -1.262  0.00  0.00    +0.000 OA
ATOM     23  H   UNL     1      -7.209  -1.017  -1.185  0.00  0.00    +0.000 HD
ENDBRANCH  11  22
BRANCH   3  24
ATOM     24  O   UNL     1       0.542   0.485   1.325  0.00  0.00    +0.000 OA
BRANCH  24  30
ATOM     25  O   UNL     1       0.846   2.559   0.269  0.00  0.00    +0.000 OA
ATOM     26  C   UNL     1       3.546   1.878  -0.428  0.00  0.00    +0.000 C 
ATOM     27  C   UNL     1       3.014   3.306  -0.575  0.00  0.00    +0.000 C 
ATOM     28  C   UNL     1       2.753   1.108   0.628  0.00  0.00    +0.000 C 
ATOM     29  C   UNL     1       1.492   3.293  -0.776  0.00  0.00    +0.000 C 
ATOM     30  C   UNL     1       1.259   1.191   0.317  0.00  0.00    +0.000 C 
BRANCH  26  31
ATOM     31  O   UNL     1       4.923   1.926  -0.067  0.00  0.00    +0.000 OA
ATOM     32  H   UNL     1       5.232   1.010   0.031  0.00  0.00    +0.000 HD
ENDBRANCH  26  31
BRANCH  27  33
ATOM     33  O   UNL     1       3.629   3.926  -1.701  0.00  0.00    +0.000 OA
ATOM     34  H   UNL     1       3.392   3.415  -2.493  0.00  0.00    +0.000 HD
ENDBRANCH  27  33
BRANCH  28  35
ATOM     35  O   UNL     1       2.975   1.693   1.915  0.00  0.00    +0.000 OA
ATOM     36  H   UNL     1       2.512   2.547   1.948  0.00  0.00    +0.000 HD
ENDBRANCH  28  35
BRANCH  29  37
ATOM     37  C   UNL     1       0.914   4.705  -0.771  0.00  0.00    +0.000 C 
BRANCH  37  38
ATOM     38  O   UNL     1      -0.485   4.619  -0.972  0.00  0.00    +0.000 OA
ATOM     39  H   UNL     1      -0.833   5.527  -0.960  0.00  0.00    +0.000 HD
ENDBRANCH  37  38
ENDBRANCH  29  37
ENDBRANCH  24  30
ENDBRANCH   3  24
TORSDOF 11
