REMARK  Name = 5280666
REMARK  6 active torsions:
REMARK  status: ('A' for Active; 'I' for Inactive)
REMARK    1  A    between atoms: O_2  and  C_13
REMARK    2  A    between atoms: O_3  and  C_19
REMARK    3  A    between atoms: O_3  and  C_22
REMARK    4  A    between atoms: O_5  and  C_17
REMARK    5  A    between atoms: O_6  and  C_21
REMARK    6  A    between atoms: C_8  and  C_10
REMARK                            x       y       z     vdW  Elec       q    Type
REMARK                         _______ _______ _______ _____ _____    ______ ____
ROOT
ATOM      1  O   UNL     1      -0.447   0.570  -0.265  0.00  0.00    +0.000 OA
ATOM      4  O   UNL     1      -2.465  -2.861   0.603  0.00  0.00    +0.000 OA
ATOM      7  C   UNL     1      -2.567  -0.550   0.120  0.00  0.00    +0.000 A 
ATOM      8  C   UNL     1       0.216  -0.629  -0.046  0.00  0.00    +0.000 A 
ATOM      9  C   UNL     1      -1.815   0.586  -0.174  0.00  0.00    +0.000 A 
ATOM     11  C   UNL     1      -1.869  -1.825   0.344  0.00  0.00    +0.000 A 
ATOM     12  C   UNL     1      -0.396  -1.790   0.238  0.00  0.00    +0.000 A 
ATOM     13  C   UNL     1      -3.960  -0.475   0.199  0.00  0.00    +0.000 A 
ATOM     14  C   UNL     1      -2.453   1.807  -0.393  0.00  0.00    +0.000 A 
ATOM     17  C   UNL     1      -3.844   1.887  -0.315  0.00  0.00    +0.000 A 
ATOM     18  C   UNL     1      -4.595   0.748  -0.020  0.00  0.00    +0.000 A 
ENDROOT
BRANCH   8  10
ATOM     10  C   UNL     1       1.684  -0.535  -0.173  0.00  0.00    +0.000 A 
ATOM     15  C   UNL     1       2.342   0.654   0.152  0.00  0.00    +0.000 A 
ATOM     16  C   UNL     1       2.421  -1.635  -0.620  0.00  0.00    +0.000 A 
ATOM     19  C   UNL     1       3.729   0.742   0.031  0.00  0.00    +0.000 A 
ATOM     20  C   UNL     1       3.808  -1.546  -0.741  0.00  0.00    +0.000 A 
ATOM     21  C   UNL     1       4.462  -0.357  -0.415  0.00  0.00    +0.000 A 
BRANCH  19   3
ATOM      3  O   UNL     1       4.356   1.908   0.352  0.00  0.00    +0.000 OA
ATOM     22  C   UNL     1       4.785   2.063   1.703  0.00  0.00    +0.000 C 
ENDBRANCH  19   3
BRANCH  21   6
ATOM      6  O   UNL     1       5.817  -0.284  -0.537  0.00  0.00    +0.000 OA
ATOM     25  H   UNL     1       6.153  -1.138  -0.857  0.00  0.00    +0.000 HD
ENDBRANCH  21   6
ENDBRANCH   8  10
BRANCH  13   2
ATOM      2  O   UNL     1      -4.738  -1.556   0.483  0.00  0.00    +0.000 OA
ATOM     23  H   UNL     1      -4.190  -2.344   0.617  0.00  0.00    +0.000 HD
ENDBRANCH  13   2
BRANCH  17   5
ATOM      5  O   UNL     1      -4.470   3.077  -0.528  0.00  0.00    +0.000 OA
ATOM     24  H   UNL     1      -5.429   2.950  -0.435  0.00  0.00    +0.000 HD
ENDBRANCH  17   5
TORSDOF 5
