REMARK  5 active torsions:
REMARK  status: ('A' for Active; 'I' for Inactive)
REMARK    1  A    between atoms: O_2  and  C_13 
REMARK    2  A    between atoms: O_4  and  C_16 
REMARK    3  A    between atoms: O_5  and  C_19 
REMARK    4  A    between atoms: O_6  and  C_21 
REMARK    5  A    between atoms: C_9  and  C_10 
ROOT
HETATM    1  O   UNK     0      -0.248   0.671  -0.129  0.00  0.00    -0.309 OA
HETATM    2  O   UNK     0      -2.109  -2.924   0.329  0.00  0.00    -0.287 OA
HETATM    3  C   UNK     0      -2.318  -0.586   0.062  0.00  0.00     0.081 A 
HETATM    4  C   UNK     0      -1.618   0.609  -0.093  0.00  0.00     0.095 A 
HETATM    5  C   UNK     0       0.470  -0.508   0.003  0.00  0.00     0.090 A 
HETATM    6  C   UNK     0      -1.560  -1.840   0.193  0.00  0.00     0.190 A 
HETATM    7  C   UNK     0      -0.088  -1.720   0.151  0.00  0.00     0.094 A 
HETATM    8  C   UNK     0      -3.714  -0.588   0.091  0.00  0.00     0.085 A 
HETATM    9  C   UNK     0      -2.312   1.812  -0.221  0.00  0.00     0.075 A 
HETATM   10  C   UNK     0      -3.707   1.814  -0.193  0.00  0.00     0.071 A 
HETATM   11  C   UNK     0      -4.406   0.617  -0.037  0.00  0.00     0.074 A 
ENDROOT
BRANCH   5  12
HETATM   12  C   UNK     0       1.934  -0.329  -0.055  0.00  0.00     0.001 A 
HETATM   13  C   UNK     0       2.516   0.854   0.407  0.00  0.00     0.053 A 
HETATM   14  C   UNK     0       3.899   1.023   0.352  0.00  0.00     0.099 A 
HETATM   15  C   UNK     0       4.706   0.009  -0.165  0.00  0.00     0.098 A 
HETATM   16  C   UNK     0       4.129  -1.173  -0.628  0.00  0.00     0.040 A 
HETATM   17  C   UNK     0       2.745  -1.342  -0.573  0.00  0.00     0.017 A 
BRANCH  14  18
HETATM   18  O   UNK     0       4.452   2.183   0.806  0.00  0.00    -0.358 OA
HETATM   19  H   UNK     0       5.416   2.127   0.692  0.00  0.00     0.217 HD
ENDBRANCH  14  18
BRANCH  15  20
HETATM   20  O   UNK     0       6.058   0.162  -0.223  0.00  0.00    -0.358 OA
HETATM   21  H   UNK     0       6.451  -0.639  -0.609  0.00  0.00     0.217 HD
ENDBRANCH  15  20
ENDBRANCH   5  12
BRANCH   8  22
HETATM   22  O   UNK     0      -4.443  -1.729   0.240  0.00  0.00    -0.360 OA
HETATM   23  H   UNK     0      -3.858  -2.498   0.322  0.00  0.00     0.217 HD
ENDBRANCH   8  22
BRANCH  10  24
HETATM   24  O   UNK     0      -4.388   2.987  -0.318  0.00  0.00    -0.361 OA
HETATM   25  H   UNK     0      -5.342   2.804  -0.277  0.00  0.00     0.217 HD
ENDBRANCH  10  24
TORSDOF 5
