MODEL 1
REMARK VINA RESULT:      -7.2      0.000      0.000
REMARK  5 active torsions:
REMARK  status: ('A' for Active; 'I' for Inactive)
REMARK    1  A    between atoms: O_2  and  C_13 
REMARK    2  A    between atoms: O_4  and  C_16 
REMARK    3  A    between atoms: O_5  and  C_19 
REMARK    4  A    between atoms: O_6  and  C_21 
REMARK    5  A    between atoms: C_9  and  C_10 
ROOT
HETATM    1  O   UNK     0      14.189  18.361   1.586  0.00  0.00    -0.309 OA
HETATM    2  O   UNK     0      11.919  18.841  -1.763  0.00  0.00    -0.287 OA
HETATM    3  C   UNK     0      12.548  17.452   0.042  0.00  0.00     0.081 A 
HETATM    4  C   UNK     0      13.351  17.355   1.177  0.00  0.00     0.095 A 
HETATM    5  C   UNK     0      14.245  19.522   0.830  0.00  0.00     0.090 A 
HETATM    6  C   UNK     0      12.598  18.686  -0.758  0.00  0.00     0.190 A 
HETATM    7  C   UNK     0      13.518  19.738  -0.278  0.00  0.00     0.094 A 
HETATM    8  C   UNK     0      11.714  16.395  -0.326  0.00  0.00     0.085 A 
HETATM    9  C   UNK     0      13.322  16.197   1.954  0.00  0.00     0.075 A 
HETATM   10  C   UNK     0      12.489  15.138   1.590  0.00  0.00     0.071 A 
HETATM   11  C   UNK     0      11.687  15.237   0.453  0.00  0.00     0.074 A 
ENDROOT
BRANCH   5  12
HETATM   12  C   UNK     0      15.172  20.540   1.361  0.00  0.00     0.001 A 
HETATM   13  C   UNK     0      16.485  20.192   1.689  0.00  0.00     0.053 A 
HETATM   14  C   UNK     0      17.361  21.153   2.191  0.00  0.00     0.099 A 
HETATM   15  C   UNK     0      16.928  22.468   2.365  0.00  0.00     0.098 A 
HETATM   16  C   UNK     0      15.619  22.820   2.040  0.00  0.00     0.040 A 
HETATM   17  C   UNK     0      14.742  21.857   1.538  0.00  0.00     0.017 A 
BRANCH  14  18
HETATM   18  O   UNK     0      18.638  20.798   2.507  0.00  0.00    -0.358 OA
HETATM   19  H   UNK     0      18.634  19.870   2.796  0.00  0.00     0.217 HD
ENDBRANCH  14  18
BRANCH  15  20
HETATM   20  O   UNK     0      17.775  23.417   2.854  0.00  0.00    -0.358 OA
HETATM   21  H   UNK     0      18.609  22.991   3.117  0.00  0.00     0.217 HD
ENDBRANCH  15  20
ENDBRANCH   5  12
BRANCH   8  22
HETATM   22  O   UNK     0      10.911  16.442  -1.426  0.00  0.00    -0.360 OA
HETATM   23  H   UNK     0      10.979  15.618  -1.932  0.00  0.00     0.217 HD
ENDBRANCH   8  22
BRANCH  10  24
HETATM   24  O   UNK     0      12.458  14.006   2.346  0.00  0.00    -0.361 OA
HETATM   25  H   UNK     0      13.057  13.348   1.953  0.00  0.00     0.217 HD
ENDBRANCH  10  24
TORSDOF 5
ENDMDL
MODEL 2
REMARK VINA RESULT:      -7.2      1.142      2.649
REMARK  5 active torsions:
REMARK  status: ('A' for Active; 'I' for Inactive)
REMARK    1  A    between atoms: O_2  and  C_13 
REMARK    2  A    between atoms: O_4  and  C_16 
REMARK    3  A    between atoms: O_5  and  C_19 
REMARK    4  A    between atoms: O_6  and  C_21 
REMARK    5  A    between atoms: C_9  and  C_10 
ROOT
HETATM    1  O   UNK     0      13.622  19.054   0.130  0.00  0.00    -0.309 OA
HETATM    2  O   UNK     0      13.732  15.661   2.383  0.00  0.00    -0.287 OA
HETATM    3  C   UNK     0      12.868  16.772   0.485  0.00  0.00     0.081 A 
HETATM    4  C   UNK     0      12.878  17.962  -0.240  0.00  0.00     0.095 A 
HETATM    5  C   UNK     0      14.392  18.970   1.280  0.00  0.00     0.090 A 
HETATM    6  C   UNK     0      13.691  16.675   1.701  0.00  0.00     0.190 A 
HETATM    7  C   UNK     0      14.471  17.878   2.058  0.00  0.00     0.094 A 
HETATM    8  C   UNK     0      12.091  15.693   0.060  0.00  0.00     0.085 A 
HETATM    9  C   UNK     0      12.108  18.080  -1.397  0.00  0.00     0.075 A 
HETATM   10  C   UNK     0      11.331  17.004  -1.825  0.00  0.00     0.071 A 
HETATM   11  C   UNK     0      11.322  15.813  -1.098  0.00  0.00     0.074 A 
ENDROOT
BRANCH   5  12
HETATM   12  C   UNK     0      15.156  20.196   1.583  0.00  0.00     0.001 A 
HETATM   13  C   UNK     0      16.535  20.130   1.797  0.00  0.00     0.053 A 
HETATM   14  C   UNK     0      17.256  21.288   2.083  0.00  0.00     0.099 A 
HETATM   15  C   UNK     0      16.601  22.518   2.155  0.00  0.00     0.098 A 
HETATM   16  C   UNK     0      15.225  22.588   1.943  0.00  0.00     0.040 A 
HETATM   17  C   UNK     0      14.503  21.429   1.657  0.00  0.00     0.017 A 
BRANCH  14  18
HETATM   18  O   UNK     0      18.601  21.207   2.290  0.00  0.00    -0.358 OA
HETATM   19  H   UNK     0      18.759  20.614   3.044  0.00  0.00     0.217 HD
ENDBRANCH  14  18
BRANCH  15  20
HETATM   20  O   UNK     0      17.295  23.656   2.433  0.00  0.00    -0.358 OA
HETATM   21  H   UNK     0      17.575  23.638   3.363  0.00  0.00     0.217 HD
ENDBRANCH  15  20
ENDBRANCH   5  12
BRANCH   8  22
HETATM   22  O   UNK     0      12.048  14.509   0.733  0.00  0.00    -0.360 OA
HETATM   23  H   UNK     0      11.429  14.564   1.478  0.00  0.00     0.217 HD
ENDBRANCH   8  22
BRANCH  10  24
HETATM   24  O   UNK     0      10.578  17.115  -2.955  0.00  0.00    -0.361 OA
HETATM   25  H   UNK     0       9.864  16.456  -2.925  0.00  0.00     0.217 HD
ENDBRANCH  10  24
TORSDOF 5
ENDMDL
MODEL 3
REMARK VINA RESULT:      -7.1     19.445     23.081
REMARK  5 active torsions:
REMARK  status: ('A' for Active; 'I' for Inactive)
REMARK    1  A    between atoms: O_2  and  C_13 
REMARK    2  A    between atoms: O_4  and  C_16 
REMARK    3  A    between atoms: O_5  and  C_19 
REMARK    4  A    between atoms: O_6  and  C_21 
REMARK    5  A    between atoms: C_9  and  C_10 
ROOT
HETATM    1  O   UNK     0      28.364  28.367  14.858  0.00  0.00    -0.309 OA
HETATM    2  O   UNK     0      31.179  25.983  16.586  0.00  0.00    -0.287 OA
HETATM    3  C   UNK     0      29.681  26.327  14.792  0.00  0.00     0.081 A 
HETATM    4  C   UNK     0      28.727  27.189  14.255  0.00  0.00     0.095 A 
HETATM    5  C   UNK     0      28.969  28.708  16.058  0.00  0.00     0.090 A 
HETATM    6  C   UNK     0      30.332  26.690  16.060  0.00  0.00     0.190 A 
HETATM    7  C   UNK     0      29.905  27.966  16.670  0.00  0.00     0.094 A 
HETATM    8  C   UNK     0      30.011  25.141  14.133  0.00  0.00     0.085 A 
HETATM    9  C   UNK     0      28.096  26.870  13.053  0.00  0.00     0.075 A 
HETATM   10  C   UNK     0      28.423  25.685  12.392  0.00  0.00     0.071 A 
HETATM   11  C   UNK     0      29.378  24.823  12.931  0.00  0.00     0.074 A 
ENDROOT
BRANCH   5  12
HETATM   12  C   UNK     0      28.510  29.996  16.616  0.00  0.00     0.001 A 
HETATM   13  C   UNK     0      28.056  30.067  17.935  0.00  0.00     0.053 A 
HETATM   14  C   UNK     0      27.622  31.283  18.463  0.00  0.00     0.099 A 
HETATM   15  C   UNK     0      27.643  32.433  17.673  0.00  0.00     0.098 A 
HETATM   16  C   UNK     0      28.095  32.366  16.355  0.00  0.00     0.040 A 
HETATM   17  C   UNK     0      28.529  31.149  15.828  0.00  0.00     0.017 A 
BRANCH  14  18
HETATM   18  O   UNK     0      27.181  31.337  19.751  0.00  0.00    -0.358 OA
HETATM   19  H   UNK     0      27.687  30.692  20.274  0.00  0.00     0.217 HD
ENDBRANCH  14  18
BRANCH  15  20
HETATM   20  O   UNK     0      27.223  33.627  18.177  0.00  0.00    -0.358 OA
HETATM   21  H   UNK     0      26.932  34.195  17.444  0.00  0.00     0.217 HD
ENDBRANCH  15  20
ENDBRANCH   5  12
BRANCH   8  22
HETATM   22  O   UNK     0      30.937  24.266  14.617  0.00  0.00    -0.360 OA
HETATM   23  H   UNK     0      31.688  24.744  15.000  0.00  0.00     0.217 HD
ENDBRANCH   8  22
BRANCH  10  24
HETATM   24  O   UNK     0      27.809  25.370  11.218  0.00  0.00    -0.361 OA
HETATM   25  H   UNK     0      28.277  25.812  10.488  0.00  0.00     0.217 HD
ENDBRANCH  10  24
TORSDOF 5
ENDMDL
MODEL 4
REMARK VINA RESULT:      -7.0     20.954     25.625
REMARK  5 active torsions:
REMARK  status: ('A' for Active; 'I' for Inactive)
REMARK    1  A    between atoms: O_2  and  C_13 
REMARK    2  A    between atoms: O_4  and  C_16 
REMARK    3  A    between atoms: O_5  and  C_19 
REMARK    4  A    between atoms: O_6  and  C_21 
REMARK    5  A    between atoms: C_9  and  C_10 
ROOT
HETATM    1  O   UNK     0      32.164  27.486  16.379  0.00  0.00    -0.309 OA
HETATM    2  O   UNK     0      31.168  25.917  20.004  0.00  0.00    -0.287 OA
HETATM    3  C   UNK     0      32.610  27.316  18.761  0.00  0.00     0.081 A 
HETATM    4  C   UNK     0      32.895  27.816  17.492  0.00  0.00     0.095 A 
HETATM    5  C   UNK     0      31.100  26.609  16.524  0.00  0.00     0.090 A 
HETATM    6  C   UNK     0      31.476  26.392  18.920  0.00  0.00     0.190 A 
HETATM    7  C   UNK     0      30.723  26.065  17.692  0.00  0.00     0.094 A 
HETATM    8  C   UNK     0      33.389  27.688  19.858  0.00  0.00     0.085 A 
HETATM    9  C   UNK     0      33.963  28.695  17.313  0.00  0.00     0.075 A 
HETATM   10  C   UNK     0      34.744  29.070  18.407  0.00  0.00     0.071 A 
HETATM   11  C   UNK     0      34.458  28.567  19.676  0.00  0.00     0.074 A 
ENDROOT
BRANCH   5  12
HETATM   12  C   UNK     0      30.380  26.326  15.267  0.00  0.00     0.001 A 
HETATM   13  C   UNK     0      29.992  25.020  14.958  0.00  0.00     0.053 A 
HETATM   14  C   UNK     0      29.312  24.752  13.771  0.00  0.00     0.099 A 
HETATM   15  C   UNK     0      29.015  25.791  12.888  0.00  0.00     0.098 A 
HETATM   16  C   UNK     0      29.401  27.096  13.192  0.00  0.00     0.040 A 
HETATM   17  C   UNK     0      30.082  27.363  14.380  0.00  0.00     0.017 A 
BRANCH  14  18
HETATM   18  O   UNK     0      28.941  23.473  13.483  0.00  0.00    -0.358 OA
HETATM   19  H   UNK     0      28.878  23.383  12.517  0.00  0.00     0.217 HD
ENDBRANCH  14  18
BRANCH  15  20
HETATM   20  O   UNK     0      28.350  25.543  11.725  0.00  0.00    -0.358 OA
HETATM   21  H   UNK     0      28.897  24.967  11.165  0.00  0.00     0.217 HD
ENDBRANCH  15  20
ENDBRANCH   5  12
BRANCH   8  22
HETATM   22  O   UNK     0      33.151  27.227  21.117  0.00  0.00    -0.360 OA
HETATM   23  H   UNK     0      32.406  27.701  21.518  0.00  0.00     0.217 HD
ENDBRANCH   8  22
BRANCH  10  24
HETATM   24  O   UNK     0      35.788  29.928  18.236  0.00  0.00    -0.361 OA
HETATM   25  H   UNK     0      35.439  30.824  18.089  0.00  0.00     0.217 HD
ENDBRANCH  10  24
TORSDOF 5
ENDMDL
MODEL 5
REMARK VINA RESULT:      -6.9      1.504      6.871
REMARK  5 active torsions:
REMARK  status: ('A' for Active; 'I' for Inactive)
REMARK    1  A    between atoms: O_2  and  C_13 
REMARK    2  A    between atoms: O_4  and  C_16 
REMARK    3  A    between atoms: O_5  and  C_19 
REMARK    4  A    between atoms: O_6  and  C_21 
REMARK    5  A    between atoms: C_9  and  C_10 
ROOT
HETATM    1  O   UNK     0      15.218  19.393   1.494  0.00  0.00    -0.309 OA
HETATM    2  O   UNK     0      13.406  22.537  -0.358  0.00  0.00    -0.287 OA
HETATM    3  C   UNK     0      15.273  21.734   0.847  0.00  0.00     0.081 A 
HETATM    4  C   UNK     0      15.836  20.617   1.462  0.00  0.00     0.095 A 
HETATM    5  C   UNK     0      13.974  19.265   0.895  0.00  0.00     0.090 A 
HETATM    6  C   UNK     0      13.957  21.600   0.202  0.00  0.00     0.190 A 
HETATM    7  C   UNK     0      13.332  20.263   0.267  0.00  0.00     0.094 A 
HETATM    8  C   UNK     0      15.949  22.955   0.845  0.00  0.00     0.085 A 
HETATM    9  C   UNK     0      17.083  20.716   2.079  0.00  0.00     0.075 A 
HETATM   10  C   UNK     0      17.762  21.935   2.078  0.00  0.00     0.071 A 
HETATM   11  C   UNK     0      17.197  23.051   1.463  0.00  0.00     0.074 A 
ENDROOT
BRANCH   5  12
HETATM   12  C   UNK     0      13.401  17.908   0.983  0.00  0.00     0.001 A 
HETATM   13  C   UNK     0      12.650  17.392  -0.076  0.00  0.00     0.053 A 
HETATM   14  C   UNK     0      12.110  16.109   0.008  0.00  0.00     0.099 A 
HETATM   15  C   UNK     0      12.318  15.337   1.151  0.00  0.00     0.098 A 
HETATM   16  C   UNK     0      13.067  15.848   2.210  0.00  0.00     0.040 A 
HETATM   17  C   UNK     0      13.608  17.132   2.127  0.00  0.00     0.017 A 
BRANCH  14  18
HETATM   18  O   UNK     0      11.379  15.620  -1.034  0.00  0.00    -0.358 OA
HETATM   19  H   UNK     0      11.975  15.124  -1.620  0.00  0.00     0.217 HD
ENDBRANCH  14  18
BRANCH  15  20
HETATM   20  O   UNK     0      11.796  14.082   1.243  0.00  0.00    -0.358 OA
HETATM   21  H   UNK     0      12.091  13.560   0.478  0.00  0.00     0.217 HD
ENDBRANCH  15  20
ENDBRANCH   5  12
BRANCH   8  22
HETATM   22  O   UNK     0      15.441  24.074   0.257  0.00  0.00    -0.360 OA
HETATM   23  H   UNK     0      14.896  23.838  -0.509  0.00  0.00     0.217 HD
ENDBRANCH   8  22
BRANCH  10  24
HETATM   24  O   UNK     0      18.980  22.034   2.680  0.00  0.00    -0.361 OA
HETATM   25  H   UNK     0      19.003  22.847   3.213  0.00  0.00     0.217 HD
ENDBRANCH  10  24
TORSDOF 5
ENDMDL
MODEL 6
REMARK VINA RESULT:      -6.8     28.937     31.315
REMARK  5 active torsions:
REMARK  status: ('A' for Active; 'I' for Inactive)
REMARK    1  A    between atoms: O_2  and  C_13 
REMARK    2  A    between atoms: O_4  and  C_16 
REMARK    3  A    between atoms: O_5  and  C_19 
REMARK    4  A    between atoms: O_6  and  C_21 
REMARK    5  A    between atoms: C_9  and  C_10 
ROOT
HETATM    1  O   UNK     0       9.146  29.882  29.176  0.00  0.00    -0.309 OA
HETATM    2  O   UNK     0      10.587  27.849  32.400  0.00  0.00    -0.287 OA
HETATM    3  C   UNK     0      10.079  29.937  31.419  0.00  0.00     0.081 A 
HETATM    4  C   UNK     0       9.575  30.569  30.284  0.00  0.00     0.095 A 
HETATM    5  C   UNK     0       9.227  28.497  29.186  0.00  0.00     0.090 A 
HETATM    6  C   UNK     0      10.158  28.468  31.437  0.00  0.00     0.190 A 
HETATM    7  C   UNK     0       9.687  27.775  30.220  0.00  0.00     0.094 A 
HETATM    8  C   UNK     0      10.501  30.689  32.517  0.00  0.00     0.085 A 
HETATM    9  C   UNK     0       9.488  31.960  30.241  0.00  0.00     0.075 A 
HETATM   10  C   UNK     0       9.908  32.715  31.336  0.00  0.00     0.071 A 
HETATM   11  C   UNK     0      10.413  32.081  32.471  0.00  0.00     0.074 A 
ENDROOT
BRANCH   5  12
HETATM   12  C   UNK     0       8.735  27.858  27.950  0.00  0.00     0.001 A 
HETATM   13  C   UNK     0       7.883  26.754  28.021  0.00  0.00     0.053 A 
HETATM   14  C   UNK     0       7.418  26.150  26.853  0.00  0.00     0.099 A 
HETATM   15  C   UNK     0       7.804  26.649  25.609  0.00  0.00     0.098 A 
HETATM   16  C   UNK     0       8.655  27.751  25.533  0.00  0.00     0.040 A 
HETATM   17  C   UNK     0       9.120  28.355  26.702  0.00  0.00     0.017 A 
BRANCH  14  18
HETATM   18  O   UNK     0       6.588  25.073  26.939  0.00  0.00    -0.358 OA
HETATM   19  H   UNK     0       5.981  25.213  27.686  0.00  0.00     0.217 HD
ENDBRANCH  14  18
BRANCH  15  20
HETATM   20  O   UNK     0       7.356  26.069  24.461  0.00  0.00    -0.358 OA
HETATM   21  H   UNK     0       6.384  26.060  24.469  0.00  0.00     0.217 HD
ENDBRANCH  15  20
ENDBRANCH   5  12
BRANCH   8  22
HETATM   22  O   UNK     0      11.001  30.119  33.648  0.00  0.00    -0.360 OA
HETATM   23  H   UNK     0      10.873  30.705  34.410  0.00  0.00     0.217 HD
ENDBRANCH   8  22
BRANCH  10  24
HETATM   24  O   UNK     0       9.824  34.074  31.298  0.00  0.00    -0.361 OA
HETATM   25  H   UNK     0       9.779  34.362  30.370  0.00  0.00     0.217 HD
ENDBRANCH  10  24
TORSDOF 5
ENDMDL
MODEL 7
REMARK VINA RESULT:      -6.6     21.678     22.969
REMARK  5 active torsions:
REMARK  status: ('A' for Active; 'I' for Inactive)
REMARK    1  A    between atoms: O_2  and  C_13 
REMARK    2  A    between atoms: O_4  and  C_16 
REMARK    3  A    between atoms: O_5  and  C_19 
REMARK    4  A    between atoms: O_6  and  C_21 
REMARK    5  A    between atoms: C_9  and  C_10 
ROOT
HETATM    1  O   UNK     0      13.116  15.740  24.133  0.00  0.00    -0.309 OA
HETATM    2  O   UNK     0      12.726  17.420  20.443  0.00  0.00    -0.287 OA
HETATM    3  C   UNK     0      11.756  16.985  22.552  0.00  0.00     0.081 A 
HETATM    4  C   UNK     0      11.956  16.390  23.796  0.00  0.00     0.095 A 
HETATM    5  C   UNK     0      14.130  15.667  23.190  0.00  0.00     0.090 A 
HETATM    6  C   UNK     0      12.833  16.918  21.552  0.00  0.00     0.190 A 
HETATM    7  C   UNK     0      14.060  16.205  21.962  0.00  0.00     0.094 A 
HETATM    8  C   UNK     0      10.553  17.634  22.265  0.00  0.00     0.085 A 
HETATM    9  C   UNK     0      10.952  16.440  24.763  0.00  0.00     0.075 A 
HETATM   10  C   UNK     0       9.749  17.088  24.480  0.00  0.00     0.071 A 
HETATM   11  C   UNK     0       9.550  17.683  23.235  0.00  0.00     0.074 A 
ENDROOT
BRANCH   5  12
HETATM   12  C   UNK     0      15.334  14.952  23.657  0.00  0.00     0.001 A 
HETATM   13  C   UNK     0      16.560  15.146  23.016  0.00  0.00     0.053 A 
HETATM   14  C   UNK     0      17.697  14.471  23.457  0.00  0.00     0.099 A 
HETATM   15  C   UNK     0      17.613  13.598  24.542  0.00  0.00     0.098 A 
HETATM   16  C   UNK     0      16.391  13.400  25.185  0.00  0.00     0.040 A 
HETATM   17  C   UNK     0      15.253  14.076  24.743  0.00  0.00     0.017 A 
BRANCH  14  18
HETATM   18  O   UNK     0      18.886  14.671  22.821  0.00  0.00    -0.358 OA
HETATM   19  H   UNK     0      18.822  14.290  21.928  0.00  0.00     0.217 HD
ENDBRANCH  14  18
BRANCH  15  20
HETATM   20  O   UNK     0      18.717  12.933  24.983  0.00  0.00    -0.358 OA
HETATM   21  H   UNK     0      19.387  12.930  24.278  0.00  0.00     0.217 HD
ENDBRANCH  15  20
ENDBRANCH   5  12
BRANCH   8  22
HETATM   22  O   UNK     0      10.310  18.231  21.066  0.00  0.00    -0.360 OA
HETATM   23  H   UNK     0      10.032  17.574  20.409  0.00  0.00     0.217 HD
ENDBRANCH   8  22
BRANCH  10  24
HETATM   24  O   UNK     0       8.767  17.140  25.423  0.00  0.00    -0.361 OA
HETATM   25  H   UNK     0       8.067  17.741  25.116  0.00  0.00     0.217 HD
ENDBRANCH  10  24
TORSDOF 5
ENDMDL
MODEL 8
REMARK VINA RESULT:      -6.6      1.751      2.336
REMARK  5 active torsions:
REMARK  status: ('A' for Active; 'I' for Inactive)
REMARK    1  A    between atoms: O_2  and  C_13 
REMARK    2  A    between atoms: O_4  and  C_16 
REMARK    3  A    between atoms: O_5  and  C_19 
REMARK    4  A    between atoms: O_6  and  C_21 
REMARK    5  A    between atoms: C_9  and  C_10 
ROOT
HETATM    1  O   UNK     0      13.768  19.021   0.344  0.00  0.00    -0.309 OA
HETATM    2  O   UNK     0      10.705  19.316   3.015  0.00  0.00    -0.287 OA
HETATM    3  C   UNK     0      11.604  18.232   1.117  0.00  0.00     0.081 A 
HETATM    4  C   UNK     0      12.685  18.185   0.239  0.00  0.00     0.095 A 
HETATM    5  C   UNK     0      13.781  19.960   1.365  0.00  0.00     0.090 A 
HETATM    6  C   UNK     0      11.618  19.220   2.207  0.00  0.00     0.190 A 
HETATM    7  C   UNK     0      12.804  20.099   2.275  0.00  0.00     0.094 A 
HETATM    8  C   UNK     0      10.529  17.355   0.962  0.00  0.00     0.085 A 
HETATM    9  C   UNK     0      12.698  17.256  -0.802  0.00  0.00     0.075 A 
HETATM   10  C   UNK     0      11.625  16.378  -0.960  0.00  0.00     0.071 A 
HETATM   11  C   UNK     0      10.544  16.427  -0.080  0.00  0.00     0.074 A 
ENDROOT
BRANCH   5  12
HETATM   12  C   UNK     0      14.992  20.803   1.389  0.00  0.00     0.001 A 
HETATM   13  C   UNK     0      16.202  20.280   1.851  0.00  0.00     0.053 A 
HETATM   14  C   UNK     0      17.346  21.077   1.874  0.00  0.00     0.099 A 
HETATM   15  C   UNK     0      17.285  22.400   1.435  0.00  0.00     0.098 A 
HETATM   16  C   UNK     0      16.078  22.926   0.975  0.00  0.00     0.040 A 
HETATM   17  C   UNK     0      14.933  22.128   0.951  0.00  0.00     0.017 A 
BRANCH  14  18
HETATM   18  O   UNK     0      18.520  20.553   2.328  0.00  0.00    -0.358 OA
HETATM   19  H   UNK     0      19.249  20.960   1.830  0.00  0.00     0.217 HD
ENDBRANCH  14  18
BRANCH  15  20
HETATM   20  O   UNK     0      18.395  23.188   1.452  0.00  0.00    -0.358 OA
HETATM   21  H   UNK     0      18.853  23.071   2.302  0.00  0.00     0.217 HD
ENDBRANCH  15  20
ENDBRANCH   5  12
BRANCH   8  22
HETATM   22  O   UNK     0       9.450  17.362   1.794  0.00  0.00    -0.360 OA
HETATM   23  H   UNK     0       9.176  16.455   2.003  0.00  0.00     0.217 HD
ENDBRANCH   8  22
BRANCH  10  24
HETATM   24  O   UNK     0      11.634  15.469  -1.975  0.00  0.00    -0.361 OA
HETATM   25  H   UNK     0      11.698  15.943  -2.821  0.00  0.00     0.217 HD
ENDBRANCH  10  24
TORSDOF 5
ENDMDL
MODEL 9
REMARK VINA RESULT:      -6.5     34.326     37.806
REMARK  5 active torsions:
REMARK  status: ('A' for Active; 'I' for Inactive)
REMARK    1  A    between atoms: O_2  and  C_13 
REMARK    2  A    between atoms: O_4  and  C_16 
REMARK    3  A    between atoms: O_5  and  C_19 
REMARK    4  A    between atoms: O_6  and  C_21 
REMARK    5  A    between atoms: C_9  and  C_10 
ROOT
HETATM    1  O   UNK     0      35.499  27.328  30.030  0.00  0.00    -0.309 OA
HETATM    2  O   UNK     0      34.129  25.231  33.243  0.00  0.00    -0.287 OA
HETATM    3  C   UNK     0      33.766  25.942  31.020  0.00  0.00     0.081 A 
HETATM    4  C   UNK     0      34.294  26.676  29.959  0.00  0.00     0.095 A 
HETATM    5  C   UNK     0      36.218  27.259  31.214  0.00  0.00     0.090 A 
HETATM    6  C   UNK     0      34.530  25.859  32.274  0.00  0.00     0.190 A 
HETATM    7  C   UNK     0      35.820  26.580  32.301  0.00  0.00     0.094 A 
HETATM    8  C   UNK     0      32.534  25.299  30.889  0.00  0.00     0.085 A 
HETATM    9  C   UNK     0      33.591  26.770  28.758  0.00  0.00     0.075 A 
HETATM   10  C   UNK     0      32.359  26.128  28.624  0.00  0.00     0.071 A 
HETATM   11  C   UNK     0      31.832  25.394  29.686  0.00  0.00     0.074 A 
ENDROOT
BRANCH   5  12
HETATM   12  C   UNK     0      37.500  27.990  31.181  0.00  0.00     0.001 A 
HETATM   13  C   UNK     0      37.512  29.385  31.098  0.00  0.00     0.053 A 
HETATM   14  C   UNK     0      38.723  30.075  31.067  0.00  0.00     0.099 A 
HETATM   15  C   UNK     0      39.928  29.373  31.119  0.00  0.00     0.098 A 
HETATM   16  C   UNK     0      39.920  27.981  31.201  0.00  0.00     0.040 A 
HETATM   17  C   UNK     0      38.708  27.290  31.232  0.00  0.00     0.017 A 
BRANCH  14  18
HETATM   18  O   UNK     0      38.718  31.435  30.985  0.00  0.00    -0.358 OA
HETATM   19  H   UNK     0      39.623  31.754  31.142  0.00  0.00     0.217 HD
ENDBRANCH  14  18
BRANCH  15  20
HETATM   20  O   UNK     0      41.117  30.036  31.090  0.00  0.00    -0.358 OA
HETATM   21  H   UNK     0      41.301  30.394  31.975  0.00  0.00     0.217 HD
ENDBRANCH  15  20
ENDBRANCH   5  12
BRANCH   8  22
HETATM   22  O   UNK     0      31.977  24.570  31.896  0.00  0.00    -0.360 OA
HETATM   23  H   UNK     0      31.499  23.806  31.538  0.00  0.00     0.217 HD
ENDBRANCH   8  22
BRANCH  10  24
HETATM   24  O   UNK     0      31.670  26.217  27.452  0.00  0.00    -0.361 OA
HETATM   25  H   UNK     0      32.218  26.683  26.798  0.00  0.00     0.217 HD
ENDBRANCH  10  24
TORSDOF 5
ENDMDL
