MODEL 1
REMARK VINA RESULT:      -8.5      0.000      0.000
REMARK  12 active torsions:
REMARK  status: ('A' for Active; 'I' for Inactive)
REMARK    1  A    between atoms: O_1  and  C_10 
REMARK    2  A    between atoms: O_2  and  C_17 
REMARK    3  A    between atoms: O_3  and  C_20 
REMARK    4  A    between atoms: O_4  and  C_27 
REMARK    5  A    between atoms: O_6  and  C_29 
REMARK    6  A    between atoms: O_7  and  C_28 
REMARK    7  A    between atoms: O_8  and  C_33 
REMARK    8  A    between atoms: C_11  and  C_20 
REMARK    9  A    between atoms: C_20  and  C_28 
REMARK   10  A    between atoms: C_28  and  C_31 
REMARK   11  A    between atoms: C_31  and  C_32 
REMARK   12  A    between atoms: C_32  and  C_33 
ROOT
HETATM    1  O   UNK     0       7.662  41.254  21.692  0.00  0.00    -0.384 OA
HETATM    2  H   UNK     0       8.187  41.201  20.881  0.00  0.00     0.211 HD
ENDROOT
BRANCH   1   3
HETATM    3  C   UNK     0       7.758  42.565  22.294  0.00  0.00     0.090 C 
HETATM    4  C   UNK     0       8.416  43.549  21.293  0.00  0.00    -0.000 C 
HETATM    5  C   UNK     0       9.830  42.924  21.161  0.00  0.00     0.034 C 
HETATM    6  C   UNK     0       7.604  43.538  19.990  0.00  0.00     0.045 C 
HETATM    7  C   UNK     0       8.505  45.002  21.838  0.00  0.00     0.019 C 
HETATM    8  C   UNK     0      10.171  42.479  22.602  0.00  0.00     0.012 C 
HETATM    9  C   UNK     0       8.837  42.439  23.379  0.00  0.00     0.044 C 
HETATM   10  C   UNK     0       6.133  43.928  20.240  0.00  0.00     0.128 C 
HETATM   11  C   UNK     0       5.420  43.099  21.372  0.00  0.00     0.055 C 
HETATM   12  C   UNK     0       3.946  43.600  21.708  0.00  0.00    -0.021 C 
HETATM   13  C   UNK     0       6.335  42.979  22.609  0.00  0.00    -0.034 C 
HETATM   14  C   UNK     0       3.490  43.047  23.089  0.00  0.00     0.071 C 
HETATM   15  C   UNK     0       2.922  43.160  20.598  0.00  0.00     0.045 C 
HETATM   16  C   UNK     0       3.901  45.152  21.787  0.00  0.00     0.017 C 
HETATM   17  C   UNK     0       3.209  41.535  23.131  0.00  0.00     0.047 C 
HETATM   18  C   UNK     0       4.496  43.385  24.170  0.00  0.00     0.154 C 
HETATM   19  C   UNK     0       2.716  40.964  21.806  0.00  0.00     0.147 C 
HETATM   20  C   UNK     0       1.984  42.009  20.974  0.00  0.00     0.147 C 
HETATM   21  O   UNK     0       4.150  43.746  25.293  0.00  0.00    -0.293 OA
HETATM   22  C   UNK     0       5.925  43.172  23.871  0.00  0.00     0.057 C 
BRANCH   5  23
HETATM   23  C   UNK     0      10.908  43.804  20.543  0.00  0.00     0.084 C 
HETATM   24  C   UNK     0      10.263  45.035  19.885  0.00  0.00     0.049 C 
BRANCH  23  25
HETATM   25  O   UNK     0      11.763  44.277  21.592  0.00  0.00    -0.387 OA
HETATM   26  H   UNK     0      11.272  44.260  22.430  0.00  0.00     0.210 HD
ENDBRANCH  23  25
BRANCH  23  27
HETATM   27  C   UNK     0      11.782  43.030  19.518  0.00  0.00     0.152 C 
BRANCH  27  28
HETATM   28  O   UNK     0      11.776  41.635  19.840  0.00  0.00    -0.393 OA
HETATM   29  H   UNK     0      11.065  41.220  19.323  0.00  0.00     0.210 HD
ENDBRANCH  27  28
BRANCH  27  30
HETATM   30  C   UNK     0      13.246  43.504  19.449  0.00  0.00     0.037 C 
BRANCH  30  31
HETATM   31  C   UNK     0      14.237  42.370  19.768  0.00  0.00     0.040 C 
BRANCH  31  32
HETATM   32  C   UNK     0      14.824  42.415  21.194  0.00  0.00     0.051 C 
HETATM   33  C   UNK     0      15.904  41.337  21.339  0.00  0.00     0.045 C 
HETATM   34  C   UNK     0      15.408  43.787  21.545  0.00  0.00     0.045 C 
BRANCH  32  35
HETATM   35  O   UNK     0      13.779  42.118  22.122  0.00  0.00    -0.391 OA
HETATM   36  H   UNK     0      14.002  42.518  22.979  0.00  0.00     0.210 HD
ENDBRANCH  32  35
ENDBRANCH  31  32
ENDBRANCH  30  31
ENDBRANCH  27  30
ENDBRANCH  23  27
ENDBRANCH   5  23
BRANCH  10  37
HETATM   37  O   UNK     0       5.443  43.780  19.001  0.00  0.00    -0.395 OA
HETATM   38  H   UNK     0       6.102  43.826  18.288  0.00  0.00     0.210 HD
ENDBRANCH  10  37
BRANCH  19  39
HETATM   39  O   UNK     0       1.863  39.855  22.073  0.00  0.00    -0.393 OA
HETATM   40  H   UNK     0       2.418  39.070  22.215  0.00  0.00     0.210 HD
ENDBRANCH  19  39
BRANCH  20  41
HETATM   41  O   UNK     0       0.872  42.533  21.702  0.00  0.00    -0.393 OA
HETATM   42  H   UNK     0       0.101  41.977  21.501  0.00  0.00     0.210 HD
ENDBRANCH  20  41
ENDBRANCH   1   3
TORSDOF 12
ENDMDL
MODEL 2
REMARK VINA RESULT:      -8.1      2.002      8.200
REMARK  12 active torsions:
REMARK  status: ('A' for Active; 'I' for Inactive)
REMARK    1  A    between atoms: O_1  and  C_10 
REMARK    2  A    between atoms: O_2  and  C_17 
REMARK    3  A    between atoms: O_3  and  C_20 
REMARK    4  A    between atoms: O_4  and  C_27 
REMARK    5  A    between atoms: O_6  and  C_29 
REMARK    6  A    between atoms: O_7  and  C_28 
REMARK    7  A    between atoms: O_8  and  C_33 
REMARK    8  A    between atoms: C_11  and  C_20 
REMARK    9  A    between atoms: C_20  and  C_28 
REMARK   10  A    between atoms: C_28  and  C_31 
REMARK   11  A    between atoms: C_31  and  C_32 
REMARK   12  A    between atoms: C_32  and  C_33 
ROOT
HETATM    1  O   UNK     0       9.550  43.886  19.285  0.00  0.00    -0.384 OA
HETATM    2  H   UNK     0       9.540  44.428  18.483  0.00  0.00     0.211 HD
ENDROOT
BRANCH   1   3
HETATM    3  C   UNK     0       9.020  44.613  20.416  0.00  0.00     0.090 C 
HETATM    4  C   UNK     0       7.552  44.182  20.668  0.00  0.00    -0.000 C 
HETATM    5  C   UNK     0       6.877  44.674  19.361  0.00  0.00     0.034 C 
HETATM    6  C   UNK     0       7.514  42.659  20.856  0.00  0.00     0.045 C 
HETATM    7  C   UNK     0       6.920  44.874  21.909  0.00  0.00     0.019 C 
HETATM    8  C   UNK     0       7.559  46.035  19.085  0.00  0.00     0.012 C 
HETATM    9  C   UNK     0       8.852  46.059  19.929  0.00  0.00     0.044 C 
HETATM   10  C   UNK     0       8.416  42.212  22.025  0.00  0.00     0.128 C 
HETATM   11  C   UNK     0       9.893  42.749  21.953  0.00  0.00     0.055 C 
HETATM   12  C   UNK     0      10.772  42.390  23.232  0.00  0.00    -0.021 C 
HETATM   13  C   UNK     0       9.905  44.250  21.591  0.00  0.00    -0.034 C 
HETATM   14  C   UNK     0      12.033  43.300  23.293  0.00  0.00     0.071 C 
HETATM   15  C   UNK     0      11.211  40.879  23.222  0.00  0.00     0.045 C 
HETATM   16  C   UNK     0       9.962  42.625  24.537  0.00  0.00     0.017 C 
HETATM   17  C   UNK     0      13.100  43.017  22.220  0.00  0.00     0.047 C 
HETATM   18  C   UNK     0      11.652  44.765  23.224  0.00  0.00     0.154 C 
HETATM   19  C   UNK     0      13.150  41.560  21.773  0.00  0.00     0.147 C 
HETATM   20  C   UNK     0      12.678  40.613  22.867  0.00  0.00     0.147 C 
HETATM   21  O   UNK     0      12.200  45.615  23.921  0.00  0.00    -0.293 OA
HETATM   22  C   UNK     0      10.657  45.170  22.212  0.00  0.00     0.057 C 
BRANCH   5  23
HETATM   23  C   UNK     0       5.358  44.766  19.372  0.00  0.00     0.084 C 
HETATM   24  C   UNK     0       4.904  45.789  20.426  0.00  0.00     0.049 C 
BRANCH  23  25
HETATM   25  O   UNK     0       4.924  45.248  18.093  0.00  0.00    -0.387 OA
HETATM   26  H   UNK     0       4.867  44.500  17.477  0.00  0.00     0.210 HD
ENDBRANCH  23  25
BRANCH  23  27
HETATM   27  C   UNK     0       4.688  43.387  19.622  0.00  0.00     0.152 C 
BRANCH  27  28
HETATM   28  O   UNK     0       3.937  43.003  18.466  0.00  0.00    -0.393 OA
HETATM   29  H   UNK     0       4.541  42.526  17.871  0.00  0.00     0.210 HD
ENDBRANCH  27  28
BRANCH  27  30
HETATM   30  C   UNK     0       3.750  43.352  20.843  0.00  0.00     0.037 C 
BRANCH  30  31
HETATM   31  C   UNK     0       3.834  42.013  21.598  0.00  0.00     0.040 C 
BRANCH  31  32
HETATM   32  C   UNK     0       2.537  41.606  22.328  0.00  0.00     0.051 C 
HETATM   33  C   UNK     0       2.234  40.129  22.053  0.00  0.00     0.045 C 
HETATM   34  C   UNK     0       2.614  41.849  23.838  0.00  0.00     0.045 C 
BRANCH  32  35
HETATM   35  O   UNK     0       1.460  42.381  21.800  0.00  0.00    -0.391 OA
HETATM   36  H   UNK     0       0.802  41.778  21.416  0.00  0.00     0.210 HD
ENDBRANCH  32  35
ENDBRANCH  31  32
ENDBRANCH  30  31
ENDBRANCH  27  30
ENDBRANCH  23  27
ENDBRANCH   5  23
BRANCH  10  37
HETATM   37  O   UNK     0       8.401  40.787  22.046  0.00  0.00    -0.395 OA
HETATM   38  H   UNK     0       8.361  40.478  21.125  0.00  0.00     0.210 HD
ENDBRANCH  10  37
BRANCH  19  39
HETATM   39  O   UNK     0      14.485  41.246  21.385  0.00  0.00    -0.393 OA
HETATM   40  H   UNK     0      14.458  40.470  20.801  0.00  0.00     0.210 HD
ENDBRANCH  19  39
BRANCH  20  41
HETATM   41  O   UNK     0      13.476  40.771  24.041  0.00  0.00    -0.393 OA
HETATM   42  H   UNK     0      12.894  40.658  24.810  0.00  0.00     0.210 HD
ENDBRANCH  20  41
ENDBRANCH   1   3
TORSDOF 12
ENDMDL
MODEL 3
REMARK VINA RESULT:      -8.0      1.979      8.479
REMARK  12 active torsions:
REMARK  status: ('A' for Active; 'I' for Inactive)
REMARK    1  A    between atoms: O_1  and  C_10 
REMARK    2  A    between atoms: O_2  and  C_17 
REMARK    3  A    between atoms: O_3  and  C_20 
REMARK    4  A    between atoms: O_4  and  C_27 
REMARK    5  A    between atoms: O_6  and  C_29 
REMARK    6  A    between atoms: O_7  and  C_28 
REMARK    7  A    between atoms: O_8  and  C_33 
REMARK    8  A    between atoms: C_11  and  C_20 
REMARK    9  A    between atoms: C_20  and  C_28 
REMARK   10  A    between atoms: C_28  and  C_31 
REMARK   11  A    between atoms: C_31  and  C_32 
REMARK   12  A    between atoms: C_32  and  C_33 
ROOT
HETATM    1  O   UNK     0      10.073  46.249  21.760  0.00  0.00    -0.384 OA
HETATM    2  H   UNK     0      10.116  46.593  22.664  0.00  0.00     0.211 HD
ENDROOT
BRANCH   1   3
HETATM    3  C   UNK     0       9.479  44.932  21.730  0.00  0.00     0.090 C 
HETATM    4  C   UNK     0       8.883  44.663  20.324  0.00  0.00    -0.000 C 
HETATM    5  C   UNK     0       7.772  45.744  20.269  0.00  0.00     0.034 C 
HETATM    6  C   UNK     0       9.991  44.851  19.279  0.00  0.00     0.045 C 
HETATM    7  C   UNK     0       8.274  43.240  20.184  0.00  0.00     0.019 C 
HETATM    8  C   UNK     0       7.182  45.739  21.698  0.00  0.00     0.012 C 
HETATM    9  C   UNK     0       8.218  45.032  22.600  0.00  0.00     0.044 C 
HETATM   10  C   UNK     0      11.185  43.912  19.547  0.00  0.00     0.128 C 
HETATM   11  C   UNK     0      11.755  43.981  21.012  0.00  0.00     0.055 C 
HETATM   12  C   UNK     0      12.898  42.913  21.310  0.00  0.00    -0.021 C 
HETATM   13  C   UNK     0      10.603  43.965  22.040  0.00  0.00    -0.034 C 
HETATM   14  C   UNK     0      13.091  42.743  22.845  0.00  0.00     0.071 C 
HETATM   15  C   UNK     0      14.263  43.332  20.649  0.00  0.00     0.045 C 
HETATM   16  C   UNK     0      12.513  41.523  20.730  0.00  0.00     0.017 C 
HETATM   17  C   UNK     0      13.735  43.943  23.563  0.00  0.00     0.047 C 
HETATM   18  C   UNK     0      11.778  42.418  23.526  0.00  0.00     0.154 C 
HETATM   19  C   UNK     0      14.700  44.737  22.689  0.00  0.00     0.147 C 
HETATM   20  C   UNK     0      15.330  43.870  21.607  0.00  0.00     0.147 C 
HETATM   21  O   UNK     0      11.699  41.585  24.427  0.00  0.00    -0.293 OA
HETATM   22  C   UNK     0      10.590  43.207  23.146  0.00  0.00     0.057 C 
BRANCH   5  23
HETATM   23  C   UNK     0       6.711  45.577  19.190  0.00  0.00     0.084 C 
HETATM   24  C   UNK     0       5.587  46.604  19.400  0.00  0.00     0.049 C 
BRANCH  23  25
HETATM   25  O   UNK     0       7.311  45.853  17.918  0.00  0.00    -0.387 OA
HETATM   26  H   UNK     0       7.821  45.076  17.634  0.00  0.00     0.210 HD
ENDBRANCH  23  25
BRANCH  23  27
HETATM   27  C   UNK     0       6.136  44.135  19.151  0.00  0.00     0.152 C 
BRANCH  27  28
HETATM   28  O   UNK     0       6.131  43.656  17.802  0.00  0.00    -0.393 OA
HETATM   29  H   UNK     0       5.505  44.205  17.301  0.00  0.00     0.210 HD
ENDBRANCH  27  28
BRANCH  27  30
HETATM   30  C   UNK     0       4.708  44.008  19.715  0.00  0.00     0.037 C 
BRANCH  30  31
HETATM   31  C   UNK     0       4.654  43.092  20.951  0.00  0.00     0.040 C 
BRANCH  31  32
HETATM   32  C   UNK     0       3.886  43.681  22.153  0.00  0.00     0.051 C 
HETATM   33  C   UNK     0       4.743  43.562  23.418  0.00  0.00     0.045 C 
HETATM   34  C   UNK     0       3.484  45.142  21.932  0.00  0.00     0.045 C 
BRANCH  32  35
HETATM   35  O   UNK     0       2.700  42.911  22.352  0.00  0.00    -0.391 OA
HETATM   36  H   UNK     0       2.558  42.799  23.306  0.00  0.00     0.210 HD
ENDBRANCH  32  35
ENDBRANCH  31  32
ENDBRANCH  30  31
ENDBRANCH  27  30
ENDBRANCH  23  27
ENDBRANCH   5  23
BRANCH  10  37
HETATM   37  O   UNK     0      12.198  44.240  18.599  0.00  0.00    -0.395 OA
HETATM   38  H   UNK     0      12.462  45.162  18.756  0.00  0.00     0.210 HD
ENDBRANCH  10  37
BRANCH  19  39
HETATM   39  O   UNK     0      15.708  45.306  23.519  0.00  0.00    -0.393 OA
HETATM   40  H   UNK     0      16.565  44.927  23.263  0.00  0.00     0.210 HD
ENDBRANCH  19  39
BRANCH  20  41
HETATM   41  O   UNK     0      16.026  42.769  22.195  0.00  0.00    -0.393 OA
HETATM   42  H   UNK     0      16.945  43.049  22.345  0.00  0.00     0.210 HD
ENDBRANCH  20  41
ENDBRANCH   1   3
TORSDOF 12
ENDMDL
MODEL 4
REMARK VINA RESULT:      -7.7      2.292      8.311
REMARK  12 active torsions:
REMARK  status: ('A' for Active; 'I' for Inactive)
REMARK    1  A    between atoms: O_1  and  C_10 
REMARK    2  A    between atoms: O_2  and  C_17 
REMARK    3  A    between atoms: O_3  and  C_20 
REMARK    4  A    between atoms: O_4  and  C_27 
REMARK    5  A    between atoms: O_6  and  C_29 
REMARK    6  A    between atoms: O_7  and  C_28 
REMARK    7  A    between atoms: O_8  and  C_33 
REMARK    8  A    between atoms: C_11  and  C_20 
REMARK    9  A    between atoms: C_20  and  C_28 
REMARK   10  A    between atoms: C_28  and  C_31 
REMARK   11  A    between atoms: C_31  and  C_32 
REMARK   12  A    between atoms: C_32  and  C_33 
ROOT
HETATM    1  O   UNK     0       5.992  43.842  22.199  0.00  0.00    -0.384 OA
HETATM    2  H   UNK     0       5.973  44.630  21.638  0.00  0.00     0.211 HD
ENDROOT
BRANCH   1   3
HETATM    3  C   UNK     0       6.733  44.084  23.416  0.00  0.00     0.090 C 
HETATM    4  C   UNK     0       6.676  42.825  24.319  0.00  0.00    -0.000 C 
HETATM    5  C   UNK     0       5.157  42.760  24.629  0.00  0.00     0.034 C 
HETATM    6  C   UNK     0       7.202  41.625  23.519  0.00  0.00     0.045 C 
HETATM    7  C   UNK     0       7.499  42.977  25.628  0.00  0.00     0.019 C 
HETATM    8  C   UNK     0       4.761  44.241  24.834  0.00  0.00     0.012 C 
HETATM    9  C   UNK     0       5.891  45.091  24.213  0.00  0.00     0.044 C 
HETATM   10  C   UNK     0       8.642  41.866  23.022  0.00  0.00     0.128 C 
HETATM   11  C   UNK     0       8.845  43.216  22.239  0.00  0.00     0.055 C 
HETATM   12  C   UNK     0      10.360  43.512  21.848  0.00  0.00    -0.021 C 
HETATM   13  C   UNK     0       8.155  44.380  22.982  0.00  0.00    -0.034 C 
HETATM   14  C   UNK     0      10.541  45.016  21.490  0.00  0.00     0.071 C 
HETATM   15  C   UNK     0      10.828  42.621  20.639  0.00  0.00     0.045 C 
HETATM   16  C   UNK     0      11.305  43.199  23.042  0.00  0.00     0.017 C 
HETATM   17  C   UNK     0       9.894  45.458  20.165  0.00  0.00     0.047 C 
HETATM   18  C   UNK     0      10.027  45.907  22.602  0.00  0.00     0.154 C 
HETATM   19  C   UNK     0       9.835  44.356  19.112  0.00  0.00     0.147 C 
HETATM   20  C   UNK     0      10.954  43.339  19.291  0.00  0.00     0.147 C 
HETATM   21  O   UNK     0      10.624  46.922  22.954  0.00  0.00    -0.293 OA
HETATM   22  C   UNK     0       8.719  45.576  23.200  0.00  0.00     0.057 C 
BRANCH   5  23
HETATM   23  C   UNK     0       4.736  41.869  25.790  0.00  0.00     0.084 C 
HETATM   24  C   UNK     0       5.604  40.601  25.815  0.00  0.00     0.049 C 
BRANCH  23  25
HETATM   25  O   UNK     0       4.976  42.576  27.014  0.00  0.00    -0.387 OA
HETATM   26  H   UNK     0       4.167  43.052  27.266  0.00  0.00     0.210 HD
ENDBRANCH  23  25
BRANCH  23  27
HETATM   27  C   UNK     0       3.229  41.501  25.730  0.00  0.00     0.152 C 
BRANCH  27  28
HETATM   28  O   UNK     0       2.855  40.816  26.930  0.00  0.00    -0.393 OA
HETATM   29  H   UNK     0       3.394  40.009  26.985  0.00  0.00     0.210 HD
ENDBRANCH  27  28
BRANCH  27  30
HETATM   30  C   UNK     0       2.840  40.619  24.528  0.00  0.00     0.037 C 
BRANCH  30  31
HETATM   31  C   UNK     0       1.930  41.365  23.535  0.00  0.00     0.040 C 
BRANCH  31  32
HETATM   32  C   UNK     0       2.548  41.580  22.138  0.00  0.00     0.051 C 
HETATM   33  C   UNK     0       2.649  43.082  21.848  0.00  0.00     0.045 C 
HETATM   34  C   UNK     0       3.926  40.928  21.999  0.00  0.00     0.045 C 
BRANCH  32  35
HETATM   35  O   UNK     0       1.675  41.003  21.165  0.00  0.00    -0.391 OA
HETATM   36  H   UNK     0       1.380  40.136  21.489  0.00  0.00     0.210 HD
ENDBRANCH  32  35
ENDBRANCH  31  32
ENDBRANCH  30  31
ENDBRANCH  27  30
ENDBRANCH  23  27
ENDBRANCH   5  23
BRANCH  10  37
HETATM   37  O   UNK     0       8.995  40.755  22.203  0.00  0.00    -0.395 OA
HETATM   38  H   UNK     0       9.403  41.102  21.392  0.00  0.00     0.210 HD
ENDBRANCH  10  37
BRANCH  19  39
HETATM   39  O   UNK     0       9.907  44.953  17.821  0.00  0.00    -0.393 OA
HETATM   40  H   UNK     0      10.562  44.463  17.295  0.00  0.00     0.210 HD
ENDBRANCH  19  39
BRANCH  20  41
HETATM   41  O   UNK     0      12.227  43.983  19.225  0.00  0.00    -0.393 OA
HETATM   42  H   UNK     0      12.442  44.302  20.118  0.00  0.00     0.210 HD
ENDBRANCH  20  41
ENDBRANCH   1   3
TORSDOF 12
ENDMDL
MODEL 5
REMARK VINA RESULT:      -7.6      3.093      8.867
REMARK  12 active torsions:
REMARK  status: ('A' for Active; 'I' for Inactive)
REMARK    1  A    between atoms: O_1  and  C_10 
REMARK    2  A    between atoms: O_2  and  C_17 
REMARK    3  A    between atoms: O_3  and  C_20 
REMARK    4  A    between atoms: O_4  and  C_27 
REMARK    5  A    between atoms: O_6  and  C_29 
REMARK    6  A    between atoms: O_7  and  C_28 
REMARK    7  A    between atoms: O_8  and  C_33 
REMARK    8  A    between atoms: C_11  and  C_20 
REMARK    9  A    between atoms: C_20  and  C_28 
REMARK   10  A    between atoms: C_28  and  C_31 
REMARK   11  A    between atoms: C_31  and  C_32 
REMARK   12  A    between atoms: C_32  and  C_33 
ROOT
HETATM    1  O   UNK     0       4.339  44.470  22.837  0.00  0.00    -0.384 OA
HETATM    2  H   UNK     0       4.741  45.132  22.256  0.00  0.00     0.211 HD
ENDROOT
BRANCH   1   3
HETATM    3  C   UNK     0       5.346  43.726  23.559  0.00  0.00     0.090 C 
HETATM    4  C   UNK     0       5.005  42.214  23.517  0.00  0.00    -0.000 C 
HETATM    5  C   UNK     0       3.668  42.196  24.304  0.00  0.00     0.034 C 
HETATM    6  C   UNK     0       4.871  41.784  22.049  0.00  0.00     0.045 C 
HETATM    7  C   UNK     0       6.071  41.330  24.222  0.00  0.00     0.019 C 
HETATM    8  C   UNK     0       3.904  43.206  25.451  0.00  0.00     0.012 C 
HETATM    9  C   UNK     0       5.120  44.066  25.040  0.00  0.00     0.044 C 
HETATM   10  C   UNK     0       6.164  42.068  21.258  0.00  0.00     0.128 C 
HETATM   11  C   UNK     0       6.696  43.544  21.382  0.00  0.00     0.055 C 
HETATM   12  C   UNK     0       8.099  43.785  20.669  0.00  0.00    -0.021 C 
HETATM   13  C   UNK     0       6.655  44.010  22.853  0.00  0.00    -0.034 C 
HETATM   14  C   UNK     0       8.753  45.096  21.195  0.00  0.00     0.071 C 
HETATM   15  C   UNK     0       7.945  43.862  19.105  0.00  0.00     0.045 C 
HETATM   16  C   UNK     0       9.078  42.618  20.978  0.00  0.00     0.017 C 
HETATM   17  C   UNK     0       8.065  46.399  20.747  0.00  0.00     0.047 C 
HETATM   18  C   UNK     0       8.845  45.091  22.707  0.00  0.00     0.154 C 
HETATM   19  C   UNK     0       7.387  46.299  19.384  0.00  0.00     0.147 C 
HETATM   20  C   UNK     0       8.056  45.262  18.492  0.00  0.00     0.147 C 
HETATM   21  O   UNK     0       9.836  45.510  23.302  0.00  0.00    -0.293 OA
HETATM   22  C   UNK     0       7.657  44.656  23.467  0.00  0.00     0.057 C 
BRANCH   5  23
HETATM   23  C   UNK     0       3.188  40.839  24.800  0.00  0.00     0.084 C 
HETATM   24  C   UNK     0       4.360  40.071  25.432  0.00  0.00     0.049 C 
BRANCH  23  25
HETATM   25  O   UNK     0       2.212  41.053  25.828  0.00  0.00    -0.387 OA
HETATM   26  H   UNK     0       2.495  40.589  26.633  0.00  0.00     0.210 HD
ENDBRANCH  23  25
BRANCH  23  27
HETATM   27  C   UNK     0       2.528  40.002  23.672  0.00  0.00     0.152 C 
BRANCH  27  28
HETATM   28  O   UNK     0       1.604  40.819  22.945  0.00  0.00    -0.393 OA
HETATM   29  H   UNK     0       1.027  40.225  22.437  0.00  0.00     0.210 HD
ENDBRANCH  27  28
BRANCH  27  30
HETATM   30  C   UNK     0       1.780  38.749  24.168  0.00  0.00     0.037 C 
BRANCH  30  31
HETATM   31  C   UNK     0       1.197  37.926  23.005  0.00  0.00     0.040 C 
BRANCH  31  32
HETATM   32  C   UNK     0      -0.165  37.266  23.307  0.00  0.00     0.051 C 
HETATM   33  C   UNK     0       0.050  35.797  23.686  0.00  0.00     0.045 C 
HETATM   34  C   UNK     0      -0.931  37.985  24.421  0.00  0.00     0.045 C 
BRANCH  32  35
HETATM   35  O   UNK     0      -0.957  37.302  22.118  0.00  0.00    -0.391 OA
HETATM   36  H   UNK     0      -1.167  38.229  21.914  0.00  0.00     0.210 HD
ENDBRANCH  32  35
ENDBRANCH  31  32
ENDBRANCH  30  31
ENDBRANCH  27  30
ENDBRANCH  23  27
ENDBRANCH   5  23
BRANCH  10  37
HETATM   37  O   UNK     0       5.903  41.742  19.896  0.00  0.00    -0.395 OA
HETATM   38  H   UNK     0       5.313  42.425  19.536  0.00  0.00     0.210 HD
ENDBRANCH  10  37
BRANCH  19  39
HETATM   39  O   UNK     0       7.415  47.581  18.764  0.00  0.00    -0.393 OA
HETATM   40  H   UNK     0       6.986  47.508  17.895  0.00  0.00     0.210 HD
ENDBRANCH  19  39
BRANCH  20  41
HETATM   41  O   UNK     0       9.436  45.581  18.307  0.00  0.00    -0.393 OA
HETATM   42  H   UNK     0       9.554  46.519  18.533  0.00  0.00     0.210 HD
ENDBRANCH  20  41
ENDBRANCH   1   3
TORSDOF 12
ENDMDL
MODEL 6
REMARK VINA RESULT:      -7.5      3.386      6.280
REMARK  12 active torsions:
REMARK  status: ('A' for Active; 'I' for Inactive)
REMARK    1  A    between atoms: O_1  and  C_10 
REMARK    2  A    between atoms: O_2  and  C_17 
REMARK    3  A    between atoms: O_3  and  C_20 
REMARK    4  A    between atoms: O_4  and  C_27 
REMARK    5  A    between atoms: O_6  and  C_29 
REMARK    6  A    between atoms: O_7  and  C_28 
REMARK    7  A    between atoms: O_8  and  C_33 
REMARK    8  A    between atoms: C_11  and  C_20 
REMARK    9  A    between atoms: C_20  and  C_28 
REMARK   10  A    between atoms: C_28  and  C_31 
REMARK   11  A    between atoms: C_31  and  C_32 
REMARK   12  A    between atoms: C_32  and  C_33 
ROOT
HETATM    1  O   UNK     0       3.767  44.208  23.857  0.00  0.00    -0.384 OA
HETATM    2  H   UNK     0       4.704  44.446  23.883  0.00  0.00     0.211 HD
ENDROOT
BRANCH   1   3
HETATM    3  C   UNK     0       3.580  42.873  23.335  0.00  0.00     0.090 C 
HETATM    4  C   UNK     0       4.681  42.565  22.288  0.00  0.00    -0.000 C 
HETATM    5  C   UNK     0       4.342  43.612  21.195  0.00  0.00     0.034 C 
HETATM    6  C   UNK     0       6.052  42.771  22.947  0.00  0.00     0.045 C 
HETATM    7  C   UNK     0       4.591  41.122  21.718  0.00  0.00     0.019 C 
HETATM    8  C   UNK     0       2.796  43.609  21.151  0.00  0.00     0.012 C 
HETATM    9  C   UNK     0       2.319  42.949  22.463  0.00  0.00     0.044 C 
HETATM   10  C   UNK     0       6.223  41.873  24.189  0.00  0.00     0.128 C 
HETATM   11  C   UNK     0       5.055  41.981  25.239  0.00  0.00     0.055 C 
HETATM   12  C   UNK     0       5.180  40.953  26.449  0.00  0.00    -0.021 C 
HETATM   13  C   UNK     0       3.686  41.945  24.528  0.00  0.00    -0.034 C 
HETATM   14  C   UNK     0       3.812  40.812  27.179  0.00  0.00     0.071 C 
HETATM   15  C   UNK     0       6.284  41.403  27.476  0.00  0.00     0.045 C 
HETATM   16  C   UNK     0       5.580  39.543  25.931  0.00  0.00     0.017 C 
HETATM   17  C   UNK     0       3.374  42.042  27.995  0.00  0.00     0.047 C 
HETATM   18  C   UNK     0       2.708  40.457  26.205  0.00  0.00     0.154 C 
HETATM   19  C   UNK     0       4.537  42.851  28.560  0.00  0.00     0.147 C 
HETATM   20  C   UNK     0       5.769  41.988  28.795  0.00  0.00     0.147 C 
HETATM   21  O   UNK     0       1.835  39.636  26.480  0.00  0.00    -0.293 OA
HETATM   22  C   UNK     0       2.645  41.204  24.934  0.00  0.00     0.057 C 
BRANCH   5  23
HETATM   23  C   UNK     0       4.973  43.395  19.826  0.00  0.00     0.084 C 
HETATM   24  C   UNK     0       6.029  42.282  19.909  0.00  0.00     0.049 C 
BRANCH  23  25
HETATM   25  O   UNK     0       3.953  42.952  18.922  0.00  0.00    -0.387 OA
HETATM   26  H   UNK     0       4.056  41.998  18.775  0.00  0.00     0.210 HD
ENDBRANCH  23  25
BRANCH  23  27
HETATM   27  C   UNK     0       5.594  44.698  19.254  0.00  0.00     0.152 C 
BRANCH  27  28
HETATM   28  O   UNK     0       5.060  44.952  17.950  0.00  0.00    -0.393 OA
HETATM   29  H   UNK     0       5.780  45.314  17.406  0.00  0.00     0.210 HD
ENDBRANCH  27  28
BRANCH  27  30
HETATM   30  C   UNK     0       7.132  44.674  19.151  0.00  0.00     0.037 C 
BRANCH  30  31
HETATM   31  C   UNK     0       7.776  45.885  19.850  0.00  0.00     0.040 C 
BRANCH  31  32
HETATM   32  C   UNK     0       8.576  45.537  21.124  0.00  0.00     0.051 C 
HETATM   33  C   UNK     0       8.978  44.059  21.091  0.00  0.00     0.045 C 
HETATM   34  C   UNK     0       9.821  46.412  21.291  0.00  0.00     0.045 C 
BRANCH  32  35
HETATM   35  O   UNK     0       7.728  45.737  22.257  0.00  0.00    -0.391 OA
HETATM   36  H   UNK     0       7.022  46.358  22.011  0.00  0.00     0.210 HD
ENDBRANCH  32  35
ENDBRANCH  31  32
ENDBRANCH  30  31
ENDBRANCH  27  30
ENDBRANCH  23  27
ENDBRANCH   5  23
BRANCH  10  37
HETATM   37  O   UNK     0       7.469  42.217  24.788  0.00  0.00    -0.395 OA
HETATM   38  H   UNK     0       7.935  41.389  24.999  0.00  0.00     0.210 HD
ENDBRANCH  10  37
BRANCH  19  39
HETATM   39  O   UNK     0       4.120  43.463  29.777  0.00  0.00    -0.393 OA
HETATM   40  H   UNK     0       3.469  42.881  30.204  0.00  0.00     0.210 HD
ENDBRANCH  19  39
BRANCH  20  41
HETATM   41  O   UNK     0       5.463  40.917  29.690  0.00  0.00    -0.393 OA
HETATM   42  H   UNK     0       4.571  41.075  30.043  0.00  0.00     0.210 HD
ENDBRANCH  20  41
ENDBRANCH   1   3
TORSDOF 12
ENDMDL
MODEL 7
REMARK VINA RESULT:      -7.4      1.676      2.441
REMARK  12 active torsions:
REMARK  status: ('A' for Active; 'I' for Inactive)
REMARK    1  A    between atoms: O_1  and  C_10 
REMARK    2  A    between atoms: O_2  and  C_17 
REMARK    3  A    between atoms: O_3  and  C_20 
REMARK    4  A    between atoms: O_4  and  C_27 
REMARK    5  A    between atoms: O_6  and  C_29 
REMARK    6  A    between atoms: O_7  and  C_28 
REMARK    7  A    between atoms: O_8  and  C_33 
REMARK    8  A    between atoms: C_11  and  C_20 
REMARK    9  A    between atoms: C_20  and  C_28 
REMARK   10  A    between atoms: C_28  and  C_31 
REMARK   11  A    between atoms: C_31  and  C_32 
REMARK   12  A    between atoms: C_32  and  C_33 
ROOT
HETATM    1  O   UNK     0       7.453  40.914  22.643  0.00  0.00    -0.384 OA
HETATM    2  H   UNK     0       7.752  40.762  21.735  0.00  0.00     0.211 HD
ENDROOT
BRANCH   1   3
HETATM    3  C   UNK     0       7.589  42.305  23.012  0.00  0.00     0.090 C 
HETATM    4  C   UNK     0       8.354  43.066  21.899  0.00  0.00    -0.000 C 
HETATM    5  C   UNK     0       9.736  42.365  21.965  0.00  0.00     0.034 C 
HETATM    6  C   UNK     0       7.613  42.862  20.570  0.00  0.00     0.045 C 
HETATM    7  C   UNK     0       8.493  44.587  22.187  0.00  0.00     0.019 C 
HETATM    8  C   UNK     0       9.974  42.166  23.480  0.00  0.00     0.012 C 
HETATM    9  C   UNK     0       8.600  42.324  24.168  0.00  0.00     0.044 C 
HETATM   10  C   UNK     0       6.154  43.355  20.656  0.00  0.00     0.128 C 
HETATM   11  C   UNK     0       5.338  42.772  21.868  0.00  0.00     0.055 C 
HETATM   12  C   UNK     0       3.878  43.391  22.019  0.00  0.00    -0.021 C 
HETATM   13  C   UNK     0       6.177  42.832  23.162  0.00  0.00    -0.034 C 
HETATM   14  C   UNK     0       3.319  43.112  23.445  0.00  0.00     0.071 C 
HETATM   15  C   UNK     0       2.891  42.809  20.941  0.00  0.00     0.045 C 
HETATM   16  C   UNK     0       3.914  44.933  21.825  0.00  0.00     0.017 C 
HETATM   17  C   UNK     0       2.953  41.645  23.731  0.00  0.00     0.047 C 
HETATM   18  C   UNK     0       4.282  43.589  24.512  0.00  0.00     0.154 C 
HETATM   19  C   UNK     0       2.500  40.871  22.497  0.00  0.00     0.147 C 
HETATM   20  C   UNK     0       1.873  41.785  21.453  0.00  0.00     0.147 C 
HETATM   21  O   UNK     0       3.897  44.159  25.531  0.00  0.00    -0.293 OA
HETATM   22  C   UNK     0       5.712  43.263  24.344  0.00  0.00     0.057 C 
BRANCH   5  23
HETATM   23  C   UNK     0      10.892  43.072  21.273  0.00  0.00     0.084 C 
HETATM   24  C   UNK     0      11.265  44.346  22.048  0.00  0.00     0.049 C 
BRANCH  23  25
HETATM   25  O   UNK     0      12.034  42.205  21.299  0.00  0.00    -0.387 OA
HETATM   26  H   UNK     0      12.748  42.609  20.779  0.00  0.00     0.210 HD
ENDBRANCH  23  25
BRANCH  23  27
HETATM   27  C   UNK     0      10.573  43.406  19.790  0.00  0.00     0.152 C 
BRANCH  27  28
HETATM   28  O   UNK     0      11.078  42.368  18.944  0.00  0.00    -0.393 OA
HETATM   29  H   UNK     0      12.007  42.219  19.190  0.00  0.00     0.210 HD
ENDBRANCH  27  28
BRANCH  27  30
HETATM   30  C   UNK     0      11.151  44.750  19.306  0.00  0.00     0.037 C 
BRANCH  30  31
HETATM   31  C   UNK     0      11.019  44.919  17.781  0.00  0.00     0.040 C 
BRANCH  31  32
HETATM   32  C   UNK     0      12.362  45.063  17.034  0.00  0.00     0.051 C 
HETATM   33  C   UNK     0      12.732  46.546  16.926  0.00  0.00     0.045 C 
HETATM   34  C   UNK     0      13.497  44.292  17.714  0.00  0.00     0.045 C 
BRANCH  32  35
HETATM   35  O   UNK     0      12.198  44.553  15.710  0.00  0.00    -0.391 OA
HETATM   36  H   UNK     0      12.971  44.007  15.490  0.00  0.00     0.210 HD
ENDBRANCH  32  35
ENDBRANCH  31  32
ENDBRANCH  30  31
ENDBRANCH  27  30
ENDBRANCH  23  27
ENDBRANCH   5  23
BRANCH  10  37
HETATM   37  O   UNK     0       5.525  43.022  19.422  0.00  0.00    -0.395 OA
HETATM   38  H   UNK     0       5.056  42.179  19.546  0.00  0.00     0.210 HD
ENDBRANCH  10  37
BRANCH  19  39
HETATM   39  O   UNK     0       1.574  39.867  22.900  0.00  0.00    -0.393 OA
HETATM   40  H   UNK     0       0.758  40.305  23.195  0.00  0.00     0.210 HD
ENDBRANCH  19  39
BRANCH  20  41
HETATM   41  O   UNK     0       0.754  42.479  22.008  0.00  0.00    -0.393 OA
HETATM   42  H   UNK     0       0.118  41.813  22.317  0.00  0.00     0.210 HD
ENDBRANCH  20  41
ENDBRANCH   1   3
TORSDOF 12
ENDMDL
MODEL 8
REMARK VINA RESULT:      -7.2      4.320      7.515
REMARK  12 active torsions:
REMARK  status: ('A' for Active; 'I' for Inactive)
REMARK    1  A    between atoms: O_1  and  C_10 
REMARK    2  A    between atoms: O_2  and  C_17 
REMARK    3  A    between atoms: O_3  and  C_20 
REMARK    4  A    between atoms: O_4  and  C_27 
REMARK    5  A    between atoms: O_6  and  C_29 
REMARK    6  A    between atoms: O_7  and  C_28 
REMARK    7  A    between atoms: O_8  and  C_33 
REMARK    8  A    between atoms: C_11  and  C_20 
REMARK    9  A    between atoms: C_20  and  C_28 
REMARK   10  A    between atoms: C_28  and  C_31 
REMARK   11  A    between atoms: C_31  and  C_32 
REMARK   12  A    between atoms: C_32  and  C_33 
ROOT
HETATM    1  O   UNK     0       6.389  43.738  25.339  0.00  0.00    -0.384 OA
HETATM    2  H   UNK     0       7.129  43.137  25.506  0.00  0.00     0.211 HD
ENDROOT
BRANCH   1   3
HETATM    3  C   UNK     0       5.153  43.011  25.160  0.00  0.00     0.090 C 
HETATM    4  C   UNK     0       5.314  41.987  24.007  0.00  0.00    -0.000 C 
HETATM    5  C   UNK     0       5.545  42.940  22.805  0.00  0.00     0.034 C 
HETATM    6  C   UNK     0       6.510  41.079  24.323  0.00  0.00     0.045 C 
HETATM    7  C   UNK     0       4.046  41.117  23.785  0.00  0.00     0.019 C 
HETATM    8  C   UNK     0       4.565  44.107  23.067  0.00  0.00     0.012 C 
HETATM    9  C   UNK     0       4.167  44.023  24.557  0.00  0.00     0.044 C 
HETATM   10  C   UNK     0       6.324  40.349  25.670  0.00  0.00     0.128 C 
HETATM   11  C   UNK     0       5.978  41.292  26.881  0.00  0.00     0.055 C 
HETATM   12  C   UNK     0       5.660  40.513  28.233  0.00  0.00    -0.021 C 
HETATM   13  C   UNK     0       4.891  42.311  26.478  0.00  0.00    -0.034 C 
HETATM   14  C   UNK     0       4.915  41.447  29.231  0.00  0.00     0.071 C 
HETATM   15  C   UNK     0       6.972  39.962  28.903  0.00  0.00     0.045 C 
HETATM   16  C   UNK     0       4.737  39.293  27.958  0.00  0.00     0.017 C 
HETATM   17  C   UNK     0       5.770  42.574  29.838  0.00  0.00     0.047 C 
HETATM   18  C   UNK     0       3.686  42.059  28.592  0.00  0.00     0.154 C 
HETATM   19  C   UNK     0       7.247  42.220  29.978  0.00  0.00     0.147 C 
HETATM   20  C   UNK     0       7.457  40.721  30.143  0.00  0.00     0.147 C 
HETATM   21  O   UNK     0       2.625  42.178  29.201  0.00  0.00    -0.293 OA
HETATM   22  C   UNK     0       3.821  42.609  27.229  0.00  0.00     0.057 C 
BRANCH   5  23
HETATM   23  C   UNK     0       5.386  42.335  21.416  0.00  0.00     0.084 C 
HETATM   24  C   UNK     0       6.753  41.869  20.891  0.00  0.00     0.049 C 
BRANCH  23  25
HETATM   25  O   UNK     0       4.549  41.176  21.521  0.00  0.00    -0.387 OA
HETATM   26  H   UNK     0       3.682  41.377  21.131  0.00  0.00     0.210 HD
ENDBRANCH  23  25
BRANCH  23  27
HETATM   27  C   UNK     0       4.723  43.323  20.418  0.00  0.00     0.152 C 
BRANCH  27  28
HETATM   28  O   UNK     0       3.650  42.667  19.735  0.00  0.00    -0.393 OA
HETATM   29  H   UNK     0       3.919  42.560  18.807  0.00  0.00     0.210 HD
ENDBRANCH  27  28
BRANCH  27  30
HETATM   30  C   UNK     0       5.688  43.900  19.364  0.00  0.00     0.037 C 
BRANCH  30  31
HETATM   31  C   UNK     0       5.340  45.355  18.998  0.00  0.00     0.040 C 
BRANCH  31  32
HETATM   32  C   UNK     0       6.325  46.407  19.551  0.00  0.00     0.051 C 
HETATM   33  C   UNK     0       5.565  47.694  19.889  0.00  0.00     0.045 C 
HETATM   34  C   UNK     0       7.082  45.910  20.786  0.00  0.00     0.045 C 
BRANCH  32  35
HETATM   35  O   UNK     0       7.276  46.713  18.531  0.00  0.00    -0.391 OA
HETATM   36  H   UNK     0       8.143  46.367  18.800  0.00  0.00     0.210 HD
ENDBRANCH  32  35
ENDBRANCH  31  32
ENDBRANCH  30  31
ENDBRANCH  27  30
ENDBRANCH  23  27
ENDBRANCH   5  23
BRANCH  10  37
HETATM   37  O   UNK     0       7.525  39.626  25.925  0.00  0.00    -0.395 OA
HETATM   38  H   UNK     0       7.646  38.988  25.201  0.00  0.00     0.210 HD
ENDBRANCH  10  37
BRANCH  19  39
HETATM   39  O   UNK     0       7.783  42.923  31.094  0.00  0.00    -0.393 OA
HETATM   40  H   UNK     0       7.802  42.319  31.855  0.00  0.00     0.210 HD
ENDBRANCH  19  39
BRANCH  20  41
HETATM   41  O   UNK     0       6.749  40.242  31.287  0.00  0.00    -0.393 OA
HETATM   42  H   UNK     0       6.758  39.271  31.254  0.00  0.00     0.210 HD
ENDBRANCH  20  41
ENDBRANCH   1   3
TORSDOF 12
ENDMDL
MODEL 9
REMARK VINA RESULT:      -7.1      2.236      8.481
REMARK  12 active torsions:
REMARK  status: ('A' for Active; 'I' for Inactive)
REMARK    1  A    between atoms: O_1  and  C_10 
REMARK    2  A    between atoms: O_2  and  C_17 
REMARK    3  A    between atoms: O_3  and  C_20 
REMARK    4  A    between atoms: O_4  and  C_27 
REMARK    5  A    between atoms: O_6  and  C_29 
REMARK    6  A    between atoms: O_7  and  C_28 
REMARK    7  A    between atoms: O_8  and  C_33 
REMARK    8  A    between atoms: C_11  and  C_20 
REMARK    9  A    between atoms: C_20  and  C_28 
REMARK   10  A    between atoms: C_28  and  C_31 
REMARK   11  A    between atoms: C_31  and  C_32 
REMARK   12  A    between atoms: C_32  and  C_33 
ROOT
HETATM    1  O   UNK     0       9.457  44.881  23.419  0.00  0.00    -0.384 OA
HETATM    2  H   UNK     0      10.293  45.228  23.762  0.00  0.00     0.211 HD
ENDROOT
BRANCH   1   3
HETATM    3  C   UNK     0       9.299  43.481  23.744  0.00  0.00     0.090 C 
HETATM    4  C   UNK     0       8.440  42.789  22.654  0.00  0.00    -0.000 C 
HETATM    5  C   UNK     0       7.089  43.529  22.836  0.00  0.00     0.034 C 
HETATM    6  C   UNK     0       9.102  43.023  21.289  0.00  0.00     0.045 C 
HETATM    7  C   UNK     0       8.269  41.263  22.894  0.00  0.00     0.019 C 
HETATM    8  C   UNK     0       6.954  43.675  24.370  0.00  0.00     0.012 C 
HETATM    9  C   UNK     0       8.363  43.448  24.961  0.00  0.00     0.044 C 
HETATM   10  C   UNK     0      10.546  42.482  21.262  0.00  0.00     0.128 C 
HETATM   11  C   UNK     0      11.457  42.991  22.441  0.00  0.00     0.055 C 
HETATM   12  C   UNK     0      12.902  42.322  22.474  0.00  0.00    -0.021 C 
HETATM   13  C   UNK     0      10.700  42.906  23.783  0.00  0.00    -0.034 C 
HETATM   14  C   UNK     0      13.559  42.526  23.870  0.00  0.00     0.071 C 
HETATM   15  C   UNK     0      13.837  42.916  21.357  0.00  0.00     0.045 C 
HETATM   16  C   UNK     0      12.802  40.791  22.224  0.00  0.00     0.017 C 
HETATM   17  C   UNK     0      13.991  43.970  24.187  0.00  0.00     0.047 C 
HETATM   18  C   UNK     0      12.649  42.037  24.977  0.00  0.00     0.154 C 
HETATM   19  C   UNK     0      14.390  44.777  22.956  0.00  0.00     0.147 C 
HETATM   20  C   UNK     0      14.919  43.886  21.840  0.00  0.00     0.147 C 
HETATM   21  O   UNK     0      13.079  41.416  25.947  0.00  0.00    -0.293 OA
HETATM   22  C   UNK     0      11.224  42.414  24.914  0.00  0.00     0.057 C 
BRANCH   5  23
HETATM   23  C   UNK     0       5.868  42.886  22.193  0.00  0.00     0.084 C 
HETATM   24  C   UNK     0       6.127  42.658  20.695  0.00  0.00     0.049 C 
BRANCH  23  25
HETATM   25  O   UNK     0       5.665  41.600  22.793  0.00  0.00    -0.387 OA
HETATM   26  H   UNK     0       6.466  41.351  23.283  0.00  0.00     0.210 HD
ENDBRANCH  23  25
BRANCH  23  27
HETATM   27  C   UNK     0       4.581  43.729  22.405  0.00  0.00     0.152 C 
BRANCH  27  28
HETATM   28  O   UNK     0       3.467  42.856  22.620  0.00  0.00    -0.393 OA
HETATM   29  H   UNK     0       3.011  43.160  23.423  0.00  0.00     0.210 HD
ENDBRANCH  27  28
BRANCH  27  30
HETATM   30  C   UNK     0       4.240  44.669  21.233  0.00  0.00     0.037 C 
BRANCH  30  31
HETATM   31  C   UNK     0       4.846  46.072  21.424  0.00  0.00     0.040 C 
BRANCH  31  32
HETATM   32  C   UNK     0       5.759  46.538  20.270  0.00  0.00     0.051 C 
HETATM   33  C   UNK     0       7.214  46.185  20.592  0.00  0.00     0.045 C 
HETATM   34  C   UNK     0       5.361  45.925  18.924  0.00  0.00     0.045 C 
BRANCH  32  35
HETATM   35  O   UNK     0       5.663  47.959  20.165  0.00  0.00    -0.391 OA
HETATM   36  H   UNK     0       4.789  48.236  20.488  0.00  0.00     0.210 HD
ENDBRANCH  32  35
ENDBRANCH  31  32
ENDBRANCH  30  31
ENDBRANCH  27  30
ENDBRANCH  23  27
ENDBRANCH   5  23
BRANCH  10  37
HETATM   37  O   UNK     0      11.107  42.844  20.003  0.00  0.00    -0.395 OA
HETATM   38  H   UNK     0      10.564  42.435  19.308  0.00  0.00     0.210 HD
ENDBRANCH  10  37
BRANCH  19  39
HETATM   39  O   UNK     0      15.373  45.735  23.336  0.00  0.00    -0.393 OA
HETATM   40  H   UNK     0      15.507  45.670  24.296  0.00  0.00     0.210 HD
ENDBRANCH  19  39
BRANCH  20  41
HETATM   41  O   UNK     0      16.047  43.136  22.295  0.00  0.00    -0.393 OA
HETATM   42  H   UNK     0      16.848  43.598  21.994  0.00  0.00     0.210 HD
ENDBRANCH  20  41
ENDBRANCH   1   3
TORSDOF 12
ENDMDL
