MODEL 1
REMARK VINA RESULT:   -10.789      0.000      0.000
REMARK INTER + INTRA:         -27.639
REMARK INTER:                 -23.087
REMARK INTRA:                  -4.552
REMARK UNBOUND:                -4.552
REMARK  26 active torsions:
REMARK  status: ('A' for Active; 'I' for Inactive)
REMARK    1  A    between atoms: O_2  and  C_29 
REMARK    2  A    between atoms: O_2  and  C_23 
REMARK    3  A    between atoms: O_3  and  C_24 
REMARK    4  A    between atoms: O_3  and  C_30 
REMARK    5  A    between atoms: O_4  and  C_26 
REMARK    6  A    between atoms: O_5  and  C_31 
REMARK    7  A    between atoms: O_5  and  C_27 
REMARK    8  A    between atoms: O_6  and  C_28 
REMARK    9  A    between atoms: O_6  and  C_34 
REMARK   10  A    between atoms: O_11  and  C_43 
REMARK   11  A    between atoms: O_12  and  C_44 
REMARK   12  A    between atoms: O_13  and  C_45 
REMARK   13  A    between atoms: O_14  and  C_46 
REMARK   14  A    between atoms: O_15  and  C_49 
REMARK   15  A    between atoms: O_16  and  C_50 
REMARK   16  A    between atoms: O_17  and  C_51 
REMARK   17  A    between atoms: O_18  and  C_52 
REMARK   18  A    between atoms: O_19  and  C_53 
REMARK   19  A    between atoms: O_20  and  C_54 
REMARK   20  A    between atoms: O_21  and  C_55 
REMARK   21  A    between atoms: O_22  and  C_56 
REMARK   22  A    between atoms: C_25  and  C_28 
REMARK   23  A    between atoms: C_29  and  C_32 
REMARK   24  A    between atoms: C_30  and  C_33 
REMARK   25  A    between atoms: C_31  and  C_35 
REMARK   26  A    between atoms: C_34  and  C_36 
ROOT
HETATM    1  O   UNL     1     107.883 147.494 160.790  1.00  0.00    -0.348 OA
HETATM    2  C   UNL     1     106.489 146.411 162.437  1.00  0.00     0.195 C 
HETATM    3  C   UNL     1     107.603 145.394 162.725  1.00  0.00     0.198 C 
HETATM    4  C   UNL     1     106.611 146.863 160.971  1.00  0.00     0.181 C 
HETATM    5  C   UNL     1     108.994 145.918 162.311  1.00  0.00     0.206 C 
HETATM    6  C   UNL     1     108.964 146.565 160.906  1.00  0.00     0.301 C 
ENDROOT
BRANCH   4   7
HETATM    7  C   UNL     1     105.473 147.822 160.589  1.00  0.00     0.213 C 
BRANCH   7   8
HETATM    8  O   UNL     1     104.706 147.301 159.493  1.00  0.00    -0.315 OA
BRANCH   8   9
HETATM    9  C   UNL     1     105.361 147.295 158.302  1.00  0.00     0.293 C 
HETATM   10  O   UNL     1     105.940 146.349 157.793  1.00  0.00    -0.259 OA
BRANCH   9  11
HETATM   11  C   UNL     1     105.275 148.634 157.681  1.00  0.00     0.045 A 
HETATM   12  C   UNL     1     106.427 149.304 157.231  1.00  0.00     0.057 A 
HETATM   13  C   UNL     1     106.287 150.536 156.603  1.00  0.00     0.102 A 
HETATM   14  C   UNL     1     105.025 151.098 156.435  1.00  0.00     0.132 A 
HETATM   15  C   UNL     1     103.893 150.432 156.887  1.00  0.00     0.102 A 
HETATM   16  C   UNL     1     104.003 149.195 157.504  1.00  0.00     0.057 A 
BRANCH  13  17
HETATM   17  O   UNL     1     107.360 151.233 156.121  1.00  0.00    -0.358 OA
HETATM   18  H   UNL     1     108.161 150.692 156.238  1.00  0.00     0.217 HD
ENDBRANCH  13  17
BRANCH  14  19
HETATM   19  O   UNL     1     104.880 152.308 155.814  1.00  0.00    -0.356 OA
HETATM   20  H   UNL     1     103.996 152.264 155.397  1.00  0.00     0.218 HD
ENDBRANCH  14  19
BRANCH  15  21
HETATM   21  O   UNL     1     102.658 150.987 156.719  1.00  0.00    -0.358 OA
HETATM   22  H   UNL     1     102.387 151.270 157.617  1.00  0.00     0.217 HD
ENDBRANCH  15  21
ENDBRANCH   9  11
ENDBRANCH   8   9
ENDBRANCH   7   8
ENDBRANCH   4   7
BRANCH   2  23
HETATM   23  O   UNL     1     105.190 145.793 162.605  1.00  0.00    -0.307 OA
BRANCH  23  24
HETATM   24  C   UNL     1     104.301 145.942 163.616  1.00  0.00     0.294 C 
HETATM   25  O   UNL     1     103.797 147.037 163.837  1.00  0.00    -0.259 OA
BRANCH  24  26
HETATM   26  C   UNL     1     103.887 144.786 164.444  1.00  0.00     0.045 A 
HETATM   27  C   UNL     1     103.812 144.850 165.843  1.00  0.00     0.057 A 
HETATM   28  C   UNL     1     103.454 143.714 166.561  1.00  0.00     0.102 A 
HETATM   29  C   UNL     1     103.089 142.552 165.892  1.00  0.00     0.132 A 
HETATM   30  C   UNL     1     103.085 142.514 164.505  1.00  0.00     0.102 A 
HETATM   31  C   UNL     1     103.479 143.624 163.771  1.00  0.00     0.057 A 
BRANCH  28  32
HETATM   32  O   UNL     1     103.448 143.691 167.926  1.00  0.00    -0.358 OA
HETATM   33  H   UNL     1     102.589 143.352 168.237  1.00  0.00     0.217 HD
ENDBRANCH  28  32
BRANCH  29  34
HETATM   34  O   UNL     1     102.726 141.433 166.592  1.00  0.00    -0.356 OA
HETATM   35  H   UNL     1     102.300 140.859 165.922  1.00  0.00     0.218 HD
ENDBRANCH  29  34
BRANCH  30  36
HETATM   36  O   UNL     1     102.697 141.382 163.853  1.00  0.00    -0.358 OA
HETATM   37  H   UNL     1     103.510 141.049 163.421  1.00  0.00     0.217 HD
ENDBRANCH  30  36
ENDBRANCH  24  26
ENDBRANCH  23  24
ENDBRANCH   2  23
BRANCH   6  38
HETATM   38  O   UNL     1     110.211 147.280 160.748  1.00  0.00    -0.283 OA
BRANCH  38  39
HETATM   39  C   UNL     1     111.066 147.164 159.708  1.00  0.00     0.295 C 
HETATM   40  O   UNL     1     112.209 146.747 159.852  1.00  0.00    -0.259 OA
BRANCH  39  41
HETATM   41  C   UNL     1     110.660 147.692 158.392  1.00  0.00     0.045 A 
HETATM   42  C   UNL     1     110.496 146.842 157.288  1.00  0.00     0.057 A 
HETATM   43  C   UNL     1     110.077 147.384 156.078  1.00  0.00     0.102 A 
HETATM   44  C   UNL     1     109.902 148.757 155.950  1.00  0.00     0.132 A 
HETATM   45  C   UNL     1     110.141 149.600 157.029  1.00  0.00     0.102 A 
HETATM   46  C   UNL     1     110.514 149.079 158.259  1.00  0.00     0.057 A 
BRANCH  43  47
HETATM   47  O   UNL     1     109.814 146.602 154.989  1.00  0.00    -0.358 OA
HETATM   48  H   UNL     1     109.635 147.180 154.226  1.00  0.00     0.217 HD
ENDBRANCH  43  47
BRANCH  44  49
HETATM   49  O   UNL     1     109.498 149.298 154.761  1.00  0.00    -0.356 OA
HETATM   50  H   UNL     1     108.968 150.082 155.016  1.00  0.00     0.218 HD
ENDBRANCH  44  49
BRANCH  45  51
HETATM   51  O   UNL     1     110.010 150.950 156.884  1.00  0.00    -0.358 OA
HETATM   52  H   UNL     1     110.825 151.326 157.274  1.00  0.00     0.217 HD
ENDBRANCH  45  51
ENDBRANCH  39  41
ENDBRANCH  38  39
ENDBRANCH   6  38
BRANCH   3  53
HETATM   53  O   UNL     1     107.574 144.910 164.099  1.00  0.00    -0.306 OA
BRANCH  53  54
HETATM   54  C   UNL     1     107.355 143.595 164.334  1.00  0.00     0.294 C 
HETATM   55  O   UNL     1     106.879 142.797 163.547  1.00  0.00    -0.259 OA
BRANCH  54  56
HETATM   56  C   UNL     1     107.711 143.254 165.726  1.00  0.00     0.045 A 
HETATM   57  C   UNL     1     109.057 143.369 166.114  1.00  0.00     0.057 A 
HETATM   58  C   UNL     1     109.408 143.097 167.432  1.00  0.00     0.102 A 
HETATM   59  C   UNL     1     108.429 142.745 168.357  1.00  0.00     0.132 A 
HETATM   60  C   UNL     1     107.100 142.640 167.968  1.00  0.00     0.102 A 
HETATM   61  C   UNL     1     106.728 142.875 166.651  1.00  0.00     0.057 A 
BRANCH  58  62
HETATM   62  O   UNL     1     110.700 143.167 167.869  1.00  0.00    -0.358 OA
HETATM   63  H   UNL     1     110.926 144.099 168.032  1.00  0.00     0.217 HD
ENDBRANCH  58  62
BRANCH  59  64
HETATM   64  O   UNL     1     108.762 142.501 169.662  1.00  0.00    -0.356 OA
HETATM   65  H   UNL     1     108.002 142.845 170.175  1.00  0.00     0.218 HD
ENDBRANCH  59  64
BRANCH  60  66
HETATM   66  O   UNL     1     106.142 142.315 168.882  1.00  0.00    -0.358 OA
HETATM   67  H   UNL     1     106.199 141.342 168.969  1.00  0.00     0.217 HD
ENDBRANCH  60  66
ENDBRANCH  54  56
ENDBRANCH  53  54
ENDBRANCH   3  53
BRANCH   5  68
HETATM   68  O   UNL     1     109.925 144.822 162.335  1.00  0.00    -0.388 OA
HETATM   69  H   UNL     1     109.840 144.404 163.213  1.00  0.00     0.210 HD
ENDBRANCH   5  68
TORSDOF 26
ENDMDL
MODEL 2
REMARK VINA RESULT:   -10.671      1.857      5.156
REMARK INTER + INTRA:         -27.388
REMARK INTER:                 -22.723
REMARK INTRA:                  -4.666
REMARK UNBOUND:                -4.552
REMARK  26 active torsions:
REMARK  status: ('A' for Active; 'I' for Inactive)
REMARK    1  A    between atoms: O_2  and  C_29 
REMARK    2  A    between atoms: O_2  and  C_23 
REMARK    3  A    between atoms: O_3  and  C_24 
REMARK    4  A    between atoms: O_3  and  C_30 
REMARK    5  A    between atoms: O_4  and  C_26 
REMARK    6  A    between atoms: O_5  and  C_31 
REMARK    7  A    between atoms: O_5  and  C_27 
REMARK    8  A    between atoms: O_6  and  C_28 
REMARK    9  A    between atoms: O_6  and  C_34 
REMARK   10  A    between atoms: O_11  and  C_43 
REMARK   11  A    between atoms: O_12  and  C_44 
REMARK   12  A    between atoms: O_13  and  C_45 
REMARK   13  A    between atoms: O_14  and  C_46 
REMARK   14  A    between atoms: O_15  and  C_49 
REMARK   15  A    between atoms: O_16  and  C_50 
REMARK   16  A    between atoms: O_17  and  C_51 
REMARK   17  A    between atoms: O_18  and  C_52 
REMARK   18  A    between atoms: O_19  and  C_53 
REMARK   19  A    between atoms: O_20  and  C_54 
REMARK   20  A    between atoms: O_21  and  C_55 
REMARK   21  A    between atoms: O_22  and  C_56 
REMARK   22  A    between atoms: C_25  and  C_28 
REMARK   23  A    between atoms: C_29  and  C_32 
REMARK   24  A    between atoms: C_30  and  C_33 
REMARK   25  A    between atoms: C_31  and  C_35 
REMARK   26  A    between atoms: C_34  and  C_36 
ROOT
HETATM    1  O   UNL     1     107.770 146.224 160.454  1.00  0.00    -0.348 OA
HETATM    2  C   UNL     1     106.875 144.729 162.127  1.00  0.00     0.195 C 
HETATM    3  C   UNL     1     105.445 145.084 161.693  1.00  0.00     0.198 C 
HETATM    4  C   UNL     1     107.780 145.945 161.859  1.00  0.00     0.181 C 
HETATM    5  C   UNL     1     105.392 145.640 160.255  1.00  0.00     0.206 C 
HETATM    6  C   UNL     1     106.495 146.698 160.011  1.00  0.00     0.301 C 
ENDROOT
BRANCH   4   7
HETATM    7  C   UNL     1     109.214 145.689 162.348  1.00  0.00     0.213 C 
BRANCH   7   8
HETATM    8  O   UNL     1     110.110 146.702 161.868  1.00  0.00    -0.315 OA
BRANCH   8   9
HETATM    9  C   UNL     1     111.021 146.263 160.960  1.00  0.00     0.293 C 
HETATM   10  O   UNL     1     111.618 145.199 160.983  1.00  0.00    -0.259 OA
BRANCH   9  11
HETATM   11  C   UNL     1     111.196 147.278 159.900  1.00  0.00     0.045 A 
HETATM   12  C   UNL     1     112.142 147.104 158.874  1.00  0.00     0.057 A 
HETATM   13  C   UNL     1     112.229 148.061 157.870  1.00  0.00     0.102 A 
HETATM   14  C   UNL     1     111.400 149.178 157.892  1.00  0.00     0.132 A 
HETATM   15  C   UNL     1     110.473 149.345 158.912  1.00  0.00     0.102 A 
HETATM   16  C   UNL     1     110.355 148.399 159.918  1.00  0.00     0.057 A 
BRANCH  13  17
HETATM   17  O   UNL     1     113.109 147.945 156.829  1.00  0.00    -0.358 OA
HETATM   18  H   UNL     1     113.400 147.018 156.768  1.00  0.00     0.217 HD
ENDBRANCH  13  17
BRANCH  14  19
HETATM   19  O   UNL     1     111.478 150.122 156.904  1.00  0.00    -0.356 OA
HETATM   20  H   UNL     1     110.909 150.853 157.219  1.00  0.00     0.218 HD
ENDBRANCH  14  19
BRANCH  15  21
HETATM   21  O   UNL     1     109.662 150.442 158.928  1.00  0.00    -0.358 OA
HETATM   22  H   UNL     1     108.974 150.235 159.595  1.00  0.00     0.217 HD
ENDBRANCH  15  21
ENDBRANCH   9  11
ENDBRANCH   8   9
ENDBRANCH   7   8
ENDBRANCH   4   7
BRANCH   2  23
HETATM   23  O   UNL     1     106.914 144.450 163.548  1.00  0.00    -0.307 OA
BRANCH  23  24
HETATM   24  C   UNL     1     106.908 143.253 164.180  1.00  0.00     0.294 C 
HETATM   25  O   UNL     1     106.505 142.251 163.600  1.00  0.00    -0.259 OA
BRANCH  24  26
HETATM   26  C   UNL     1     107.426 143.118 165.561  1.00  0.00     0.045 A 
HETATM   27  C   UNL     1     108.752 143.425 165.901  1.00  0.00     0.057 A 
HETATM   28  C   UNL     1     109.182 143.237 167.211  1.00  0.00     0.102 A 
HETATM   29  C   UNL     1     108.283 142.831 168.189  1.00  0.00     0.132 A 
HETATM   30  C   UNL     1     106.952 142.605 167.867  1.00  0.00     0.102 A 
HETATM   31  C   UNL     1     106.512 142.748 166.559  1.00  0.00     0.057 A 
BRANCH  28  32
HETATM   32  O   UNL     1     110.480 143.436 167.582  1.00  0.00    -0.358 OA
HETATM   33  H   UNL     1     111.063 143.243 166.824  1.00  0.00     0.217 HD
ENDBRANCH  28  32
BRANCH  29  34
HETATM   34  O   UNL     1     108.697 142.653 169.482  1.00  0.00    -0.356 OA
HETATM   35  H   UNL     1     107.867 142.649 170.002  1.00  0.00     0.218 HD
ENDBRANCH  29  34
BRANCH  30  36
HETATM   36  O   UNL     1     106.067 142.237 168.836  1.00  0.00    -0.358 OA
HETATM   37  H   UNL     1     105.454 142.995 168.919  1.00  0.00     0.217 HD
ENDBRANCH  30  36
ENDBRANCH  24  26
ENDBRANCH  23  24
ENDBRANCH   2  23
BRANCH   6  38
HETATM   38  O   UNL     1     106.553 146.922 158.585  1.00  0.00    -0.283 OA
BRANCH  38  39
HETATM   39  C   UNL     1     107.118 147.985 157.970  1.00  0.00     0.295 C 
HETATM   40  O   UNL     1     107.035 149.118 158.429  1.00  0.00    -0.259 OA
BRANCH  39  41
HETATM   41  C   UNL     1     107.721 147.799 156.638  1.00  0.00     0.045 A 
HETATM   42  C   UNL     1     107.108 148.309 155.485  1.00  0.00     0.057 A 
HETATM   43  C   UNL     1     107.736 148.140 154.257  1.00  0.00     0.102 A 
HETATM   44  C   UNL     1     108.913 147.405 154.169  1.00  0.00     0.132 A 
HETATM   45  C   UNL     1     109.474 146.837 155.307  1.00  0.00     0.102 A 
HETATM   46  C   UNL     1     108.892 147.033 156.550  1.00  0.00     0.057 A 
BRANCH  43  47
HETATM   47  O   UNL     1     107.237 148.686 153.109  1.00  0.00    -0.358 OA
HETATM   48  H   UNL     1     107.973 149.078 152.604  1.00  0.00     0.217 HD
ENDBRANCH  43  47
BRANCH  44  49
HETATM   49  O   UNL     1     109.532 147.226 152.963  1.00  0.00    -0.356 OA
HETATM   50  H   UNL     1     109.811 148.126 152.695  1.00  0.00     0.218 HD
ENDBRANCH  44  49
BRANCH  45  51
HETATM   51  O   UNL     1     110.605 146.081 155.207  1.00  0.00    -0.358 OA
HETATM   52  H   UNL     1     111.308 146.711 154.948  1.00  0.00     0.217 HD
ENDBRANCH  45  51
ENDBRANCH  39  41
ENDBRANCH  38  39
ENDBRANCH   6  38
BRANCH   3  53
HETATM   53  O   UNL     1     104.511 143.986 161.903  1.00  0.00    -0.306 OA
BRANCH  53  54
HETATM   54  C   UNL     1     103.304 144.241 162.459  1.00  0.00     0.294 C 
HETATM   55  O   UNL     1     102.322 144.664 161.876  1.00  0.00    -0.259 OA
BRANCH  54  56
HETATM   56  C   UNL     1     103.346 144.000 163.916  1.00  0.00     0.045 A 
HETATM   57  C   UNL     1     103.638 145.085 164.760  1.00  0.00     0.057 A 
HETATM   58  C   UNL     1     103.638 144.891 166.137  1.00  0.00     0.102 A 
HETATM   59  C   UNL     1     103.324 143.643 166.666  1.00  0.00     0.132 A 
HETATM   60  C   UNL     1     103.029 142.577 165.826  1.00  0.00     0.102 A 
HETATM   61  C   UNL     1     103.053 142.737 164.447  1.00  0.00     0.057 A 
BRANCH  58  62
HETATM   62  O   UNL     1     103.936 145.897 167.012  1.00  0.00    -0.358 OA
HETATM   63  H   UNL     1     103.545 145.685 167.877  1.00  0.00     0.217 HD
ENDBRANCH  58  62
BRANCH  59  64
HETATM   64  O   UNL     1     103.295 143.450 168.021  1.00  0.00    -0.356 OA
HETATM   65  H   UNL     1     103.485 142.496 168.135  1.00  0.00     0.218 HD
ENDBRANCH  59  64
BRANCH  60  66
HETATM   66  O   UNL     1     102.701 141.362 166.350  1.00  0.00    -0.358 OA
HETATM   67  H   UNL     1     103.499 141.077 166.840  1.00  0.00     0.217 HD
ENDBRANCH  60  66
ENDBRANCH  54  56
ENDBRANCH  53  54
ENDBRANCH   3  53
BRANCH   5  68
HETATM   68  O   UNL     1     104.092 146.215 160.031  1.00  0.00    -0.388 OA
HETATM   69  H   UNL     1     104.239 147.061 159.569  1.00  0.00     0.210 HD
ENDBRANCH   5  68
TORSDOF 26
ENDMDL
MODEL 3
REMARK VINA RESULT:   -10.628     19.450     23.172
REMARK INTER + INTRA:         -27.296
REMARK INTER:                 -24.308
REMARK INTRA:                  -2.988
REMARK UNBOUND:                -4.552
REMARK  26 active torsions:
REMARK  status: ('A' for Active; 'I' for Inactive)
REMARK    1  A    between atoms: O_2  and  C_29 
REMARK    2  A    between atoms: O_2  and  C_23 
REMARK    3  A    between atoms: O_3  and  C_24 
REMARK    4  A    between atoms: O_3  and  C_30 
REMARK    5  A    between atoms: O_4  and  C_26 
REMARK    6  A    between atoms: O_5  and  C_31 
REMARK    7  A    between atoms: O_5  and  C_27 
REMARK    8  A    between atoms: O_6  and  C_28 
REMARK    9  A    between atoms: O_6  and  C_34 
REMARK   10  A    between atoms: O_11  and  C_43 
REMARK   11  A    between atoms: O_12  and  C_44 
REMARK   12  A    between atoms: O_13  and  C_45 
REMARK   13  A    between atoms: O_14  and  C_46 
REMARK   14  A    between atoms: O_15  and  C_49 
REMARK   15  A    between atoms: O_16  and  C_50 
REMARK   16  A    between atoms: O_17  and  C_51 
REMARK   17  A    between atoms: O_18  and  C_52 
REMARK   18  A    between atoms: O_19  and  C_53 
REMARK   19  A    between atoms: O_20  and  C_54 
REMARK   20  A    between atoms: O_21  and  C_55 
REMARK   21  A    between atoms: O_22  and  C_56 
REMARK   22  A    between atoms: C_25  and  C_28 
REMARK   23  A    between atoms: C_29  and  C_32 
REMARK   24  A    between atoms: C_30  and  C_33 
REMARK   25  A    between atoms: C_31  and  C_35 
REMARK   26  A    between atoms: C_34  and  C_36 
ROOT
HETATM    1  O   UNL     1     123.833 152.354 144.830  1.00  0.00    -0.348 OA
HETATM    2  C   UNL     1     122.468 150.768 146.036  1.00  0.00     0.195 C 
HETATM    3  C   UNL     1     123.423 150.844 147.236  1.00  0.00     0.198 C 
HETATM    4  C   UNL     1     123.277 151.037 144.754  1.00  0.00     0.181 C 
HETATM    5  C   UNL     1     124.252 152.145 147.241  1.00  0.00     0.206 C 
HETATM    6  C   UNL     1     124.838 152.454 145.843  1.00  0.00     0.301 C 
ENDROOT
BRANCH   4   7
HETATM    7  C   UNL     1     122.397 150.894 143.502  1.00  0.00     0.213 C 
BRANCH   7   8
HETATM    8  O   UNL     1     121.062 151.358 143.755  1.00  0.00    -0.315 OA
BRANCH   8   9
HETATM    9  C   UNL     1     120.098 150.700 143.060  1.00  0.00     0.293 C 
HETATM   10  O   UNL     1     120.176 149.575 142.593  1.00  0.00    -0.259 OA
BRANCH   9  11
HETATM   11  C   UNL     1     118.897 151.554 142.944  1.00  0.00     0.045 A 
HETATM   12  C   UNL     1     118.062 151.487 141.815  1.00  0.00     0.057 A 
HETATM   13  C   UNL     1     116.914 152.271 141.779  1.00  0.00     0.102 A 
HETATM   14  C   UNL     1     116.608 153.115 142.842  1.00  0.00     0.132 A 
HETATM   15  C   UNL     1     117.442 153.179 143.951  1.00  0.00     0.102 A 
HETATM   16  C   UNL     1     118.585 152.398 144.019  1.00  0.00     0.057 A 
BRANCH  13  17
HETATM   17  O   UNL     1     116.045 152.240 140.723  1.00  0.00    -0.358 OA
HETATM   18  H   UNL     1     116.300 152.933 140.088  1.00  0.00     0.217 HD
ENDBRANCH  13  17
BRANCH  14  19
HETATM   19  O   UNL     1     115.478 153.886 142.814  1.00  0.00    -0.356 OA
HETATM   20  H   UNL     1     114.822 153.375 143.331  1.00  0.00     0.218 HD
ENDBRANCH  14  19
BRANCH  15  21
HETATM   21  O   UNL     1     117.137 154.009 144.990  1.00  0.00    -0.358 OA
HETATM   22  H   UNL     1     117.560 153.597 145.772  1.00  0.00     0.217 HD
ENDBRANCH  15  21
ENDBRANCH   9  11
ENDBRANCH   8   9
ENDBRANCH   7   8
ENDBRANCH   4   7
BRANCH   2  23
HETATM   23  O   UNL     1     121.898 149.440 145.931  1.00  0.00    -0.307 OA
BRANCH  23  24
HETATM   24  C   UNL     1     120.873 148.898 146.629  1.00  0.00     0.294 C 
HETATM   25  O   UNL     1     121.086 148.011 147.448  1.00  0.00    -0.259 OA
BRANCH  24  26
HETATM   26  C   UNL     1     119.487 149.389 146.454  1.00  0.00     0.045 A 
HETATM   27  C   UNL     1     119.026 150.572 147.051  1.00  0.00     0.057 A 
HETATM   28  C   UNL     1     117.701 150.954 146.876  1.00  0.00     0.102 A 
HETATM   29  C   UNL     1     116.864 150.216 146.047  1.00  0.00     0.132 A 
HETATM   30  C   UNL     1     117.344 149.091 145.392  1.00  0.00     0.102 A 
HETATM   31  C   UNL     1     118.652 148.670 145.585  1.00  0.00     0.057 A 
BRANCH  28  32
HETATM   32  O   UNL     1     117.172 152.046 147.503  1.00  0.00    -0.358 OA
HETATM   33  H   UNL     1     116.332 151.795 147.928  1.00  0.00     0.217 HD
ENDBRANCH  28  32
BRANCH  29  34
HETATM   34  O   UNL     1     115.562 150.591 145.863  1.00  0.00    -0.356 OA
HETATM   35  H   UNL     1     115.234 149.988 145.164  1.00  0.00     0.218 HD
ENDBRANCH  29  34
BRANCH  30  36
HETATM   36  O   UNL     1     116.530 148.388 144.555  1.00  0.00    -0.358 OA
HETATM   37  H   UNL     1     115.722 148.214 145.077  1.00  0.00     0.217 HD
ENDBRANCH  30  36
ENDBRANCH  24  26
ENDBRANCH  23  24
ENDBRANCH   2  23
BRANCH   6  38
HETATM   38  O   UNL     1     125.324 153.815 145.883  1.00  0.00    -0.283 OA
BRANCH  38  39
HETATM   39  C   UNL     1     125.634 154.579 144.813  1.00  0.00     0.295 C 
HETATM   40  O   UNL     1     124.772 155.124 144.134  1.00  0.00    -0.259 OA
BRANCH  39  41
HETATM   41  C   UNL     1     127.037 154.637 144.363  1.00  0.00     0.045 A 
HETATM   42  C   UNL     1     128.060 154.018 145.095  1.00  0.00     0.057 A 
HETATM   43  C   UNL     1     129.362 154.069 144.609  1.00  0.00     0.102 A 
HETATM   44  C   UNL     1     129.649 154.793 143.457  1.00  0.00     0.132 A 
HETATM   45  C   UNL     1     128.641 155.467 142.779  1.00  0.00     0.102 A 
HETATM   46  C   UNL     1     127.327 155.391 143.218  1.00  0.00     0.057 A 
BRANCH  43  47
HETATM   47  O   UNL     1     130.390 153.415 145.226  1.00  0.00    -0.358 OA
HETATM   48  H   UNL     1     130.784 152.787 144.594  1.00  0.00     0.217 HD
ENDBRANCH  43  47
BRANCH  44  49
HETATM   49  O   UNL     1     130.929 154.856 142.978  1.00  0.00    -0.356 OA
HETATM   50  H   UNL     1     131.442 154.268 143.571  1.00  0.00     0.218 HD
ENDBRANCH  44  49
BRANCH  45  51
HETATM   51  O   UNL     1     128.938 156.211 141.675  1.00  0.00    -0.358 OA
HETATM   52  H   UNL     1     128.581 155.698 140.922  1.00  0.00     0.217 HD
ENDBRANCH  45  51
ENDBRANCH  39  41
ENDBRANCH  38  39
ENDBRANCH   6  38
BRANCH   3  53
HETATM   53  O   UNL     1     122.745 150.608 148.504  1.00  0.00    -0.306 OA
BRANCH  53  54
HETATM   54  C   UNL     1     123.478 150.316 149.603  1.00  0.00     0.294 C 
HETATM   55  O   UNL     1     123.693 151.064 150.540  1.00  0.00    -0.259 OA
BRANCH  54  56
HETATM   56  C   UNL     1     124.058 148.962 149.491  1.00  0.00     0.045 A 
HETATM   57  C   UNL     1     123.181 147.863 149.477  1.00  0.00     0.057 A 
HETATM   58  C   UNL     1     123.702 146.583 149.326  1.00  0.00     0.102 A 
HETATM   59  C   UNL     1     125.071 146.401 149.161  1.00  0.00     0.132 A 
HETATM   60  C   UNL     1     125.931 147.492 149.168  1.00  0.00     0.102 A 
HETATM   61  C   UNL     1     125.440 148.778 149.349  1.00  0.00     0.057 A 
BRANCH  58  62
HETATM   62  O   UNL     1     122.908 145.471 149.328  1.00  0.00    -0.358 OA
HETATM   63  H   UNL     1     122.884 145.102 148.428  1.00  0.00     0.217 HD
ENDBRANCH  58  62
BRANCH  59  64
HETATM   64  O   UNL     1     125.590 145.147 148.985  1.00  0.00    -0.356 OA
HETATM   65  H   UNL     1     125.996 145.173 148.094  1.00  0.00     0.218 HD
ENDBRANCH  59  64
BRANCH  60  66
HETATM   66  O   UNL     1     127.270 147.311 148.984  1.00  0.00    -0.358 OA
HETATM   67  H   UNL     1     127.633 148.214 148.883  1.00  0.00     0.217 HD
ENDBRANCH  60  66
ENDBRANCH  54  56
ENDBRANCH  53  54
ENDBRANCH   3  53
BRANCH   5  68
HETATM   68  O   UNL     1     125.311 152.013 148.207  1.00  0.00    -0.388 OA
HETATM   69  H   UNL     1     125.075 152.590 148.958  1.00  0.00     0.210 HD
ENDBRANCH   5  68
TORSDOF 26
ENDMDL
MODEL 4
REMARK VINA RESULT:   -10.496      1.584     11.095
REMARK INTER + INTRA:         -27.013
REMARK INTER:                 -22.760
REMARK INTRA:                  -4.253
REMARK UNBOUND:                -4.552
REMARK  26 active torsions:
REMARK  status: ('A' for Active; 'I' for Inactive)
REMARK    1  A    between atoms: O_2  and  C_29 
REMARK    2  A    between atoms: O_2  and  C_23 
REMARK    3  A    between atoms: O_3  and  C_24 
REMARK    4  A    between atoms: O_3  and  C_30 
REMARK    5  A    between atoms: O_4  and  C_26 
REMARK    6  A    between atoms: O_5  and  C_31 
REMARK    7  A    between atoms: O_5  and  C_27 
REMARK    8  A    between atoms: O_6  and  C_28 
REMARK    9  A    between atoms: O_6  and  C_34 
REMARK   10  A    between atoms: O_11  and  C_43 
REMARK   11  A    between atoms: O_12  and  C_44 
REMARK   12  A    between atoms: O_13  and  C_45 
REMARK   13  A    between atoms: O_14  and  C_46 
REMARK   14  A    between atoms: O_15  and  C_49 
REMARK   15  A    between atoms: O_16  and  C_50 
REMARK   16  A    between atoms: O_17  and  C_51 
REMARK   17  A    between atoms: O_18  and  C_52 
REMARK   18  A    between atoms: O_19  and  C_53 
REMARK   19  A    between atoms: O_20  and  C_54 
REMARK   20  A    between atoms: O_21  and  C_55 
REMARK   21  A    between atoms: O_22  and  C_56 
REMARK   22  A    between atoms: C_25  and  C_28 
REMARK   23  A    between atoms: C_29  and  C_32 
REMARK   24  A    between atoms: C_30  and  C_33 
REMARK   25  A    between atoms: C_31  and  C_35 
REMARK   26  A    between atoms: C_34  and  C_36 
ROOT
HETATM    1  O   UNL     1     104.480 145.444 162.490  1.00  0.00    -0.348 OA
HETATM    2  C   UNL     1     105.885 146.865 161.133  1.00  0.00     0.195 C 
HETATM    3  C   UNL     1     104.940 146.675 159.938  1.00  0.00     0.198 C 
HETATM    4  C   UNL     1     105.820 145.602 162.009  1.00  0.00     0.181 C 
HETATM    5  C   UNL     1     103.523 146.249 160.376  1.00  0.00     0.206 C 
HETATM    6  C   UNL     1     103.568 145.123 161.437  1.00  0.00     0.301 C 
ENDROOT
BRANCH   4   7
HETATM    7  C   UNL     1     106.808 145.689 163.184  1.00  0.00     0.213 C 
BRANCH   7   8
HETATM    8  O   UNL     1     106.827 144.464 163.933  1.00  0.00    -0.315 OA
BRANCH   8   9
HETATM    9  C   UNL     1     108.069 143.957 164.148  1.00  0.00     0.293 C 
HETATM   10  O   UNL     1     108.952 143.814 163.319  1.00  0.00    -0.259 OA
BRANCH   9  11
HETATM   11  C   UNL     1     108.215 143.589 165.573  1.00  0.00     0.045 A 
HETATM   12  C   UNL     1     107.092 143.318 166.374  1.00  0.00     0.057 A 
HETATM   13  C   UNL     1     107.285 142.922 167.693  1.00  0.00     0.102 A 
HETATM   14  C   UNL     1     108.572 142.809 168.209  1.00  0.00     0.132 A 
HETATM   15  C   UNL     1     109.676 143.083 167.412  1.00  0.00     0.102 A 
HETATM   16  C   UNL     1     109.512 143.466 166.090  1.00  0.00     0.057 A 
BRANCH  13  17
HETATM   17  O   UNL     1     106.240 142.621 168.522  1.00  0.00    -0.358 OA
HETATM   18  H   UNL     1     105.860 141.768 168.248  1.00  0.00     0.217 HD
ENDBRANCH  13  17
BRANCH  14  19
HETATM   19  O   UNL     1     108.770 142.415 169.504  1.00  0.00    -0.356 OA
HETATM   20  H   UNL     1     107.939 142.657 169.962  1.00  0.00     0.218 HD
ENDBRANCH  14  19
BRANCH  15  21
HETATM   21  O   UNL     1     110.936 142.970 167.923  1.00  0.00    -0.358 OA
HETATM   22  H   UNL     1     110.936 143.543 168.717  1.00  0.00     0.217 HD
ENDBRANCH  15  21
ENDBRANCH   9  11
ENDBRANCH   8   9
ENDBRANCH   7   8
ENDBRANCH   4   7
BRANCH   2  23
HETATM   23  O   UNL     1     107.250 147.018 160.674  1.00  0.00    -0.307 OA
BRANCH  23  24
HETATM   24  C   UNL     1     108.156 147.970 161.000  1.00  0.00     0.294 C 
HETATM   25  O   UNL     1     107.986 148.668 161.994  1.00  0.00    -0.259 OA
BRANCH  24  26
HETATM   26  C   UNL     1     109.386 148.159 160.198  1.00  0.00     0.045 A 
HETATM   27  C   UNL     1     109.689 149.370 159.558  1.00  0.00     0.057 A 
HETATM   28  C   UNL     1     110.843 149.466 158.788  1.00  0.00     0.102 A 
HETATM   29  C   UNL     1     111.730 148.399 158.723  1.00  0.00     0.132 A 
HETATM   30  C   UNL     1     111.470 147.229 159.423  1.00  0.00     0.102 A 
HETATM   31  C   UNL     1     110.304 147.099 160.164  1.00  0.00     0.057 A 
BRANCH  28  32
HETATM   32  O   UNL     1     111.145 150.589 158.072  1.00  0.00    -0.358 OA
HETATM   33  H   UNL     1     111.775 151.132 158.581  1.00  0.00     0.217 HD
ENDBRANCH  28  32
BRANCH  29  34
HETATM   34  O   UNL     1     112.873 148.490 157.975  1.00  0.00    -0.356 OA
HETATM   35  H   UNL     1     113.269 149.344 158.244  1.00  0.00     0.218 HD
ENDBRANCH  29  34
BRANCH  30  36
HETATM   36  O   UNL     1     112.358 146.196 159.382  1.00  0.00    -0.358 OA
HETATM   37  H   UNL     1     112.921 146.317 160.173  1.00  0.00     0.217 HD
ENDBRANCH  30  36
ENDBRANCH  24  26
ENDBRANCH  23  24
ENDBRANCH   2  23
BRANCH   6  38
HETATM   38  O   UNL     1     102.237 145.016 161.991  1.00  0.00    -0.283 OA
BRANCH  38  39
HETATM   39  C   UNL     1     101.696 143.910 162.547  1.00  0.00     0.295 C 
HETATM   40  O   UNL     1     100.692 143.378 162.088  1.00  0.00    -0.259 OA
BRANCH  39  41
HETATM   41  C   UNL     1     102.240 143.418 163.827  1.00  0.00     0.045 A 
HETATM   42  C   UNL     1     101.755 143.895 165.053  1.00  0.00     0.057 A 
HETATM   43  C   UNL     1     102.275 143.372 166.232  1.00  0.00     0.102 A 
HETATM   44  C   UNL     1     103.315 142.451 166.188  1.00  0.00     0.132 A 
HETATM   45  C   UNL     1     103.842 142.041 164.970  1.00  0.00     0.102 A 
HETATM   46  C   UNL     1     103.308 142.512 163.779  1.00  0.00     0.057 A 
BRANCH  43  47
HETATM   47  O   UNL     1     101.787 143.728 167.457  1.00  0.00    -0.358 OA
HETATM   48  H   UNL     1     101.779 144.700 167.519  1.00  0.00     0.217 HD
ENDBRANCH  43  47
BRANCH  44  49
HETATM   49  O   UNL     1     103.838 141.939 167.344  1.00  0.00    -0.356 OA
HETATM   50  H   UNL     1     104.075 141.015 167.117  1.00  0.00     0.218 HD
ENDBRANCH  44  49
BRANCH  45  51
HETATM   51  O   UNL     1     104.891 141.170 164.936  1.00  0.00    -0.358 OA
HETATM   52  H   UNL     1     105.529 141.517 165.593  1.00  0.00     0.217 HD
ENDBRANCH  45  51
ENDBRANCH  39  41
ENDBRANCH  38  39
ENDBRANCH   6  38
BRANCH   3  53
HETATM   53  O   UNL     1     104.927 147.829 159.048  1.00  0.00    -0.306 OA
BRANCH  53  54
HETATM   54  C   UNL     1     104.997 147.635 157.711  1.00  0.00     0.294 C 
HETATM   55  O   UNL     1     104.131 147.141 157.012  1.00  0.00    -0.259 OA
BRANCH  54  56
HETATM   56  C   UNL     1     106.321 148.046 157.200  1.00  0.00     0.045 A 
HETATM   57  C   UNL     1     107.277 147.046 156.952  1.00  0.00     0.057 A 
HETATM   58  C   UNL     1     108.513 147.406 156.427  1.00  0.00     0.102 A 
HETATM   59  C   UNL     1     108.783 148.737 156.125  1.00  0.00     0.132 A 
HETATM   60  C   UNL     1     107.830 149.719 156.366  1.00  0.00     0.102 A 
HETATM   61  C   UNL     1     106.600 149.390 156.919  1.00  0.00     0.057 A 
BRANCH  58  62
HETATM   62  O   UNL     1     109.495 146.488 156.185  1.00  0.00    -0.358 OA
HETATM   63  H   UNL     1     109.239 145.641 156.590  1.00  0.00     0.217 HD
ENDBRANCH  58  62
BRANCH  59  64
HETATM   64  O   UNL     1     109.987 149.097 155.584  1.00  0.00    -0.356 OA
HETATM   65  H   UNL     1     110.566 148.324 155.742  1.00  0.00     0.218 HD
ENDBRANCH  59  64
BRANCH  60  66
HETATM   66  O   UNL     1     108.092 151.020 156.049  1.00  0.00    -0.358 OA
HETATM   67  H   UNL     1     109.063 151.059 155.934  1.00  0.00     0.217 HD
ENDBRANCH  60  66
ENDBRANCH  54  56
ENDBRANCH  53  54
ENDBRANCH   3  53
BRANCH   5  68
HETATM   68  O   UNL     1     102.794 145.812 159.215  1.00  0.00    -0.388 OA
HETATM   69  H   UNL     1     102.380 146.608 158.831  1.00  0.00     0.210 HD
ENDBRANCH   5  68
TORSDOF 26
ENDMDL
MODEL 5
REMARK VINA RESULT:   -10.385      1.472      2.533
REMARK INTER + INTRA:         -26.775
REMARK INTER:                 -22.111
REMARK INTRA:                  -4.664
REMARK UNBOUND:                -4.552
REMARK  26 active torsions:
REMARK  status: ('A' for Active; 'I' for Inactive)
REMARK    1  A    between atoms: O_2  and  C_29 
REMARK    2  A    between atoms: O_2  and  C_23 
REMARK    3  A    between atoms: O_3  and  C_24 
REMARK    4  A    between atoms: O_3  and  C_30 
REMARK    5  A    between atoms: O_4  and  C_26 
REMARK    6  A    between atoms: O_5  and  C_31 
REMARK    7  A    between atoms: O_5  and  C_27 
REMARK    8  A    between atoms: O_6  and  C_28 
REMARK    9  A    between atoms: O_6  and  C_34 
REMARK   10  A    between atoms: O_11  and  C_43 
REMARK   11  A    between atoms: O_12  and  C_44 
REMARK   12  A    between atoms: O_13  and  C_45 
REMARK   13  A    between atoms: O_14  and  C_46 
REMARK   14  A    between atoms: O_15  and  C_49 
REMARK   15  A    between atoms: O_16  and  C_50 
REMARK   16  A    between atoms: O_17  and  C_51 
REMARK   17  A    between atoms: O_18  and  C_52 
REMARK   18  A    between atoms: O_19  and  C_53 
REMARK   19  A    between atoms: O_20  and  C_54 
REMARK   20  A    between atoms: O_21  and  C_55 
REMARK   21  A    between atoms: O_22  and  C_56 
REMARK   22  A    between atoms: C_25  and  C_28 
REMARK   23  A    between atoms: C_29  and  C_32 
REMARK   24  A    between atoms: C_30  and  C_33 
REMARK   25  A    between atoms: C_31  and  C_35 
REMARK   26  A    between atoms: C_34  and  C_36 
ROOT
HETATM    1  O   UNL     1     107.391 147.015 160.538  1.00  0.00    -0.348 OA
HETATM    2  C   UNL     1     105.850 145.752 161.902  1.00  0.00     0.195 C 
HETATM    3  C   UNL     1     107.021 144.968 162.515  1.00  0.00     0.198 C 
HETATM    4  C   UNL     1     106.239 146.166 160.472  1.00  0.00     0.181 C 
HETATM    5  C   UNL     1     108.359 145.725 162.390  1.00  0.00     0.206 C 
HETATM    6  C   UNL     1     108.555 146.306 160.969  1.00  0.00     0.301 C 
ENDROOT
BRANCH   4   7
HETATM    7  C   UNL     1     105.078 146.885 159.767  1.00  0.00     0.213 C 
BRANCH   7   8
HETATM    8  O   UNL     1     105.155 146.714 158.344  1.00  0.00    -0.315 OA
BRANCH   8   9
HETATM    9  C   UNL     1     105.368 147.863 157.651  1.00  0.00     0.293 C 
HETATM   10  O   UNL     1     104.699 148.882 157.705  1.00  0.00    -0.259 OA
BRANCH   9  11
HETATM   11  C   UNL     1     106.563 147.713 156.794  1.00  0.00     0.045 A 
HETATM   12  C   UNL     1     106.670 148.393 155.568  1.00  0.00     0.057 A 
HETATM   13  C   UNL     1     107.838 148.262 154.825  1.00  0.00     0.102 A 
HETATM   14  C   UNL     1     108.877 147.460 155.287  1.00  0.00     0.132 A 
HETATM   15  C   UNL     1     108.760 146.787 156.497  1.00  0.00     0.102 A 
HETATM   16  C   UNL     1     107.613 146.911 157.264  1.00  0.00     0.057 A 
BRANCH  13  17
HETATM   17  O   UNL     1     108.020 148.912 153.636  1.00  0.00    -0.358 OA
HETATM   18  H   UNL     1     108.270 148.259 152.958  1.00  0.00     0.217 HD
ENDBRANCH  13  17
BRANCH  14  19
HETATM   19  O   UNL     1     110.031 147.330 154.563  1.00  0.00    -0.356 OA
HETATM   20  H   UNL     1     110.666 146.926 155.188  1.00  0.00     0.218 HD
ENDBRANCH  14  19
BRANCH  15  21
HETATM   21  O   UNL     1     109.782 146.002 156.946  1.00  0.00    -0.358 OA
HETATM   22  H   UNL     1     109.885 145.309 156.261  1.00  0.00     0.217 HD
ENDBRANCH  15  21
ENDBRANCH   9  11
ENDBRANCH   8   9
ENDBRANCH   7   8
ENDBRANCH   4   7
BRANCH   2  23
HETATM   23  O   UNL     1     104.674 144.911 161.817  1.00  0.00    -0.307 OA
BRANCH  23  24
HETATM   24  C   UNL     1     103.510 145.005 162.502  1.00  0.00     0.294 C 
HETATM   25  O   UNL     1     102.510 145.461 161.959  1.00  0.00    -0.259 OA
BRANCH  24  26
HETATM   26  C   UNL     1     103.405 144.520 163.897  1.00  0.00     0.045 A 
HETATM   27  C   UNL     1     103.405 145.390 164.998  1.00  0.00     0.057 A 
HETATM   28  C   UNL     1     103.343 144.863 166.284  1.00  0.00     0.102 A 
HETATM   29  C   UNL     1     103.197 143.495 166.473  1.00  0.00     0.132 A 
HETATM   30  C   UNL     1     103.115 142.643 165.380  1.00  0.00     0.102 A 
HETATM   31  C   UNL     1     103.215 143.143 164.090  1.00  0.00     0.057 A 
BRANCH  28  32
HETATM   32  O   UNL     1     103.427 145.653 167.395  1.00  0.00    -0.358 OA
HETATM   33  H   UNL     1     102.539 145.986 167.618  1.00  0.00     0.217 HD
ENDBRANCH  28  32
BRANCH  29  34
HETATM   34  O   UNL     1     103.125 142.971 167.735  1.00  0.00    -0.356 OA
HETATM   35  H   UNL     1     103.305 142.016 167.609  1.00  0.00     0.218 HD
ENDBRANCH  29  34
BRANCH  30  36
HETATM   36  O   UNL     1     102.940 141.304 165.568  1.00  0.00    -0.358 OA
HETATM   37  H   UNL     1     102.671 141.214 166.505  1.00  0.00     0.217 HD
ENDBRANCH  30  36
ENDBRANCH  24  26
ENDBRANCH  23  24
ENDBRANCH   2  23
BRANCH   6  38
HETATM   38  O   UNL     1     109.662 147.232 161.044  1.00  0.00    -0.283 OA
BRANCH  38  39
HETATM   39  C   UNL     1     109.645 148.524 160.646  1.00  0.00     0.295 C 
HETATM   40  O   UNL     1     109.071 149.393 161.292  1.00  0.00    -0.259 OA
BRANCH  39  41
HETATM   41  C   UNL     1     110.204 148.869 159.326  1.00  0.00     0.045 A 
HETATM   42  C   UNL     1     111.427 148.335 158.894  1.00  0.00     0.057 A 
HETATM   43  C   UNL     1     111.893 148.662 157.625  1.00  0.00     0.102 A 
HETATM   44  C   UNL     1     111.193 149.567 156.835  1.00  0.00     0.132 A 
HETATM   45  C   UNL     1     110.021 150.150 157.302  1.00  0.00     0.102 A 
HETATM   46  C   UNL     1     109.511 149.804 158.545  1.00  0.00     0.057 A 
BRANCH  43  47
HETATM   47  O   UNL     1     113.031 148.110 157.110  1.00  0.00    -0.358 OA
HETATM   48  H   UNL     1     113.776 148.715 157.277  1.00  0.00     0.217 HD
ENDBRANCH  43  47
BRANCH  44  49
HETATM   49  O   UNL     1     111.650 149.900 155.590  1.00  0.00    -0.356 OA
HETATM   50  H   UNL     1     112.306 149.205 155.376  1.00  0.00     0.218 HD
ENDBRANCH  44  49
BRANCH  45  51
HETATM   51  O   UNL     1     109.363 151.070 156.540  1.00  0.00    -0.358 OA
HETATM   52  H   UNL     1     109.233 150.633 155.674  1.00  0.00     0.217 HD
ENDBRANCH  45  51
ENDBRANCH  39  41
ENDBRANCH  38  39
ENDBRANCH   6  38
BRANCH   3  53
HETATM   53  O   UNL     1     106.748 144.536 163.879  1.00  0.00    -0.306 OA
BRANCH  53  54
HETATM   54  C   UNL     1     106.833 143.220 164.187  1.00  0.00     0.294 C 
HETATM   55  O   UNL     1     106.531 142.293 163.457  1.00  0.00    -0.259 OA
BRANCH  54  56
HETATM   56  C   UNL     1     107.286 143.046 165.582  1.00  0.00     0.045 A 
HETATM   57  C   UNL     1     108.634 143.306 165.880  1.00  0.00     0.057 A 
HETATM   58  C   UNL     1     109.072 143.193 167.194  1.00  0.00     0.102 A 
HETATM   59  C   UNL     1     108.174 142.854 168.202  1.00  0.00     0.132 A 
HETATM   60  C   UNL     1     106.842 142.604 167.902  1.00  0.00     0.102 A 
HETATM   61  C   UNL     1     106.386 142.680 166.592  1.00  0.00     0.057 A 
BRANCH  58  62
HETATM   62  O   UNL     1     110.374 143.410 167.549  1.00  0.00    -0.358 OA
HETATM   63  H   UNL     1     110.922 143.404 166.745  1.00  0.00     0.217 HD
ENDBRANCH  58  62
BRANCH  59  64
HETATM   64  O   UNL     1     108.591 142.766 169.503  1.00  0.00    -0.356 OA
HETATM   65  H   UNL     1     109.422 143.281 169.529  1.00  0.00     0.218 HD
ENDBRANCH  59  64
BRANCH  60  66
HETATM   66  O   UNL     1     105.961 142.293 168.896  1.00  0.00    -0.358 OA
HETATM   67  H   UNL     1     106.030 141.322 168.995  1.00  0.00     0.217 HD
ENDBRANCH  60  66
ENDBRANCH  54  56
ENDBRANCH  53  54
ENDBRANCH   3  53
BRANCH   5  68
HETATM   68  O   UNL     1     109.432 144.821 162.711  1.00  0.00    -0.388 OA
HETATM   69  H   UNL     1     109.280 144.013 162.184  1.00  0.00     0.210 HD
ENDBRANCH   5  68
TORSDOF 26
ENDMDL
MODEL 6
REMARK VINA RESULT:   -10.344      0.554      2.011
REMARK INTER + INTRA:         -26.689
REMARK INTER:                 -22.819
REMARK INTRA:                  -3.870
REMARK UNBOUND:                -4.552
REMARK  26 active torsions:
REMARK  status: ('A' for Active; 'I' for Inactive)
REMARK    1  A    between atoms: O_2  and  C_29 
REMARK    2  A    between atoms: O_2  and  C_23 
REMARK    3  A    between atoms: O_3  and  C_24 
REMARK    4  A    between atoms: O_3  and  C_30 
REMARK    5  A    between atoms: O_4  and  C_26 
REMARK    6  A    between atoms: O_5  and  C_31 
REMARK    7  A    between atoms: O_5  and  C_27 
REMARK    8  A    between atoms: O_6  and  C_28 
REMARK    9  A    between atoms: O_6  and  C_34 
REMARK   10  A    between atoms: O_11  and  C_43 
REMARK   11  A    between atoms: O_12  and  C_44 
REMARK   12  A    between atoms: O_13  and  C_45 
REMARK   13  A    between atoms: O_14  and  C_46 
REMARK   14  A    between atoms: O_15  and  C_49 
REMARK   15  A    between atoms: O_16  and  C_50 
REMARK   16  A    between atoms: O_17  and  C_51 
REMARK   17  A    between atoms: O_18  and  C_52 
REMARK   18  A    between atoms: O_19  and  C_53 
REMARK   19  A    between atoms: O_20  and  C_54 
REMARK   20  A    between atoms: O_21  and  C_55 
REMARK   21  A    between atoms: O_22  and  C_56 
REMARK   22  A    between atoms: C_25  and  C_28 
REMARK   23  A    between atoms: C_29  and  C_32 
REMARK   24  A    between atoms: C_30  and  C_33 
REMARK   25  A    between atoms: C_31  and  C_35 
REMARK   26  A    between atoms: C_34  and  C_36 
ROOT
HETATM    1  O   UNL     1     107.893 147.276 160.567  1.00  0.00    -0.348 OA
HETATM    2  C   UNL     1     106.357 146.276 162.140  1.00  0.00     0.195 C 
HETATM    3  C   UNL     1     107.453 145.306 162.607  1.00  0.00     0.198 C 
HETATM    4  C   UNL     1     106.619 146.629 160.665  1.00  0.00     0.181 C 
HETATM    5  C   UNL     1     108.870 145.832 162.298  1.00  0.00     0.206 C 
HETATM    6  C   UNL     1     108.972 146.382 160.854  1.00  0.00     0.301 C 
ENDROOT
BRANCH   4   7
HETATM    7  C   UNL     1     105.510 147.534 160.105  1.00  0.00     0.213 C 
BRANCH   7   8
HETATM    8  O   UNL     1     105.319 147.306 158.701  1.00  0.00    -0.315 OA
BRANCH   8   9
HETATM    9  C   UNL     1     104.119 147.726 158.222  1.00  0.00     0.293 C 
HETATM   10  O   UNL     1     103.059 147.125 158.283  1.00  0.00    -0.259 OA
BRANCH   9  11
HETATM   11  C   UNL     1     104.272 149.057 157.596  1.00  0.00     0.045 A 
HETATM   12  C   UNL     1     105.530 149.526 157.181  1.00  0.00     0.057 A 
HETATM   13  C   UNL     1     105.613 150.761 156.547  1.00  0.00     0.102 A 
HETATM   14  C   UNL     1     104.466 151.520 156.340  1.00  0.00     0.132 A 
HETATM   15  C   UNL     1     103.228 151.052 156.759  1.00  0.00     0.102 A 
HETATM   16  C   UNL     1     103.115 149.818 157.380  1.00  0.00     0.057 A 
BRANCH  13  17
HETATM   17  O   UNL     1     106.800 151.269 156.097  1.00  0.00    -0.358 OA
HETATM   18  H   UNL     1     107.429 151.298 156.839  1.00  0.00     0.217 HD
ENDBRANCH  13  17
BRANCH  14  19
HETATM   19  O   UNL     1     104.540 152.735 155.713  1.00  0.00    -0.356 OA
HETATM   20  H   UNL     1     104.888 153.342 156.397  1.00  0.00     0.218 HD
ENDBRANCH  14  19
BRANCH  15  21
HETATM   21  O   UNL     1     102.106 151.801 156.553  1.00  0.00    -0.358 OA
HETATM   22  H   UNL     1     102.254 152.241 155.690  1.00  0.00     0.217 HD
ENDBRANCH  15  21
ENDBRANCH   9  11
ENDBRANCH   8   9
ENDBRANCH   7   8
ENDBRANCH   4   7
BRANCH   2  23
HETATM   23  O   UNL     1     105.058 145.641 162.221  1.00  0.00    -0.307 OA
BRANCH  23  24
HETATM   24  C   UNL     1     104.080 145.820 163.140  1.00  0.00     0.294 C 
HETATM   25  O   UNL     1     103.502 146.898 163.224  1.00  0.00    -0.259 OA
BRANCH  24  26
HETATM   26  C   UNL     1     103.658 144.713 164.029  1.00  0.00     0.045 A 
HETATM   27  C   UNL     1     103.382 143.424 163.548  1.00  0.00     0.057 A 
HETATM   28  C   UNL     1     102.953 142.442 164.434  1.00  0.00     0.102 A 
HETATM   29  C   UNL     1     102.881 142.712 165.795  1.00  0.00     0.132 A 
HETATM   30  C   UNL     1     103.232 143.964 166.280  1.00  0.00     0.102 A 
HETATM   31  C   UNL     1     103.625 144.970 165.408  1.00  0.00     0.057 A 
BRANCH  28  32
HETATM   32  O   UNL     1     102.585 141.197 164.013  1.00  0.00    -0.358 OA
HETATM   33  H   UNL     1     101.614 141.156 163.944  1.00  0.00     0.217 HD
ENDBRANCH  28  32
BRANCH  29  34
HETATM   34  O   UNL     1     102.468 141.748 166.674  1.00  0.00    -0.356 OA
HETATM   35  H   UNL     1     103.197 141.094 166.673  1.00  0.00     0.218 HD
ENDBRANCH  29  34
BRANCH  30  36
HETATM   36  O   UNL     1     103.191 144.216 167.618  1.00  0.00    -0.358 OA
HETATM   37  H   UNL     1     103.159 143.334 168.040  1.00  0.00     0.217 HD
ENDBRANCH  30  36
ENDBRANCH  24  26
ENDBRANCH  23  24
ENDBRANCH   2  23
BRANCH   6  38
HETATM   38  O   UNL     1     110.216 147.112 160.771  1.00  0.00    -0.283 OA
BRANCH  38  39
HETATM   39  C   UNL     1     111.068 147.111 159.722  1.00  0.00     0.295 C 
HETATM   40  O   UNL     1     112.241 146.775 159.840  1.00  0.00    -0.259 OA
BRANCH  39  41
HETATM   41  C   UNL     1     110.613 147.669 158.435  1.00  0.00     0.045 A 
HETATM   42  C   UNL     1     110.148 148.989 158.340  1.00  0.00     0.057 A 
HETATM   43  C   UNL     1     109.766 149.480 157.097  1.00  0.00     0.102 A 
HETATM   44  C   UNL     1     109.771 148.646 155.985  1.00  0.00     0.132 A 
HETATM   45  C   UNL     1     110.161 147.317 156.103  1.00  0.00     0.102 A 
HETATM   46  C   UNL     1     110.592 146.817 157.323  1.00  0.00     0.057 A 
BRANCH  43  47
HETATM   47  O   UNL     1     109.387 150.780 156.920  1.00  0.00    -0.358 OA
HETATM   48  H   UNL     1     109.548 151.029 155.992  1.00  0.00     0.217 HD
ENDBRANCH  43  47
BRANCH  44  49
HETATM   49  O   UNL     1     109.387 149.120 154.760  1.00  0.00    -0.356 OA
HETATM   50  H   UNL     1     110.008 149.855 154.577  1.00  0.00     0.218 HD
ENDBRANCH  44  49
BRANCH  45  51
HETATM   51  O   UNL     1     110.121 146.494 155.016  1.00  0.00    -0.358 OA
HETATM   52  H   UNL     1     110.798 145.809 155.194  1.00  0.00     0.217 HD
ENDBRANCH  45  51
ENDBRANCH  39  41
ENDBRANCH  38  39
ENDBRANCH   6  38
BRANCH   3  53
HETATM   53  O   UNL     1     107.294 144.916 164.002  1.00  0.00    -0.306 OA
BRANCH  53  54
HETATM   54  C   UNL     1     107.169 143.605 164.313  1.00  0.00     0.294 C 
HETATM   55  O   UNL     1     106.734 142.734 163.582  1.00  0.00    -0.259 OA
BRANCH  54  56
HETATM   56  C   UNL     1     107.575 143.367 165.714  1.00  0.00     0.045 A 
HETATM   57  C   UNL     1     106.588 142.976 166.634  1.00  0.00     0.057 A 
HETATM   58  C   UNL     1     106.955 142.702 167.946  1.00  0.00     0.102 A 
HETATM   59  C   UNL     1     108.290 142.787 168.330  1.00  0.00     0.132 A 
HETATM   60  C   UNL     1     109.261 143.169 167.414  1.00  0.00     0.102 A 
HETATM   61  C   UNL     1     108.916 143.478 166.105  1.00  0.00     0.057 A 
BRANCH  58  62
HETATM   62  O   UNL     1     106.042 142.339 168.896  1.00  0.00    -0.358 OA
HETATM   63  H   UNL     1     105.568 143.134 169.194  1.00  0.00     0.217 HD
ENDBRANCH  58  62
BRANCH  59  64
HETATM   64  O   UNL     1     108.664 142.494 169.614  1.00  0.00    -0.356 OA
HETATM   65  H   UNL     1     109.632 142.353 169.559  1.00  0.00     0.218 HD
ENDBRANCH  59  64
BRANCH  60  66
HETATM   66  O   UNL     1     110.571 143.230 167.789  1.00  0.00    -0.358 OA
HETATM   67  H   UNL     1     110.858 144.135 167.547  1.00  0.00     0.217 HD
ENDBRANCH  60  66
ENDBRANCH  54  56
ENDBRANCH  53  54
ENDBRANCH   3  53
BRANCH   5  68
HETATM   68  O   UNL     1     109.812 144.762 162.491  1.00  0.00    -0.388 OA
HETATM   69  H   UNL     1     109.542 144.300 163.307  1.00  0.00     0.210 HD
ENDBRANCH   5  68
TORSDOF 26
ENDMDL
MODEL 7
REMARK VINA RESULT:   -10.343     19.265     23.675
REMARK INTER + INTRA:         -26.686
REMARK INTER:                 -23.362
REMARK INTRA:                  -3.324
REMARK UNBOUND:                -4.552
REMARK  26 active torsions:
REMARK  status: ('A' for Active; 'I' for Inactive)
REMARK    1  A    between atoms: O_2  and  C_29 
REMARK    2  A    between atoms: O_2  and  C_23 
REMARK    3  A    between atoms: O_3  and  C_24 
REMARK    4  A    between atoms: O_3  and  C_30 
REMARK    5  A    between atoms: O_4  and  C_26 
REMARK    6  A    between atoms: O_5  and  C_31 
REMARK    7  A    between atoms: O_5  and  C_27 
REMARK    8  A    between atoms: O_6  and  C_28 
REMARK    9  A    between atoms: O_6  and  C_34 
REMARK   10  A    between atoms: O_11  and  C_43 
REMARK   11  A    between atoms: O_12  and  C_44 
REMARK   12  A    between atoms: O_13  and  C_45 
REMARK   13  A    between atoms: O_14  and  C_46 
REMARK   14  A    between atoms: O_15  and  C_49 
REMARK   15  A    between atoms: O_16  and  C_50 
REMARK   16  A    between atoms: O_17  and  C_51 
REMARK   17  A    between atoms: O_18  and  C_52 
REMARK   18  A    between atoms: O_19  and  C_53 
REMARK   19  A    between atoms: O_20  and  C_54 
REMARK   20  A    between atoms: O_21  and  C_55 
REMARK   21  A    between atoms: O_22  and  C_56 
REMARK   22  A    between atoms: C_25  and  C_28 
REMARK   23  A    between atoms: C_29  and  C_32 
REMARK   24  A    between atoms: C_30  and  C_33 
REMARK   25  A    between atoms: C_31  and  C_35 
REMARK   26  A    between atoms: C_34  and  C_36 
ROOT
HETATM    1  O   UNL     1     121.893 150.007 145.270  1.00  0.00    -0.348 OA
HETATM    2  C   UNL     1     123.552 150.580 146.928  1.00  0.00     0.195 C 
HETATM    3  C   UNL     1     124.241 151.520 145.928  1.00  0.00     0.198 C 
HETATM    4  C   UNL     1     122.880 149.442 146.141  1.00  0.00     0.181 C 
HETATM    5  C   UNL     1     123.289 151.972 144.801  1.00  0.00     0.206 C 
HETATM    6  C   UNL     1     122.483 150.784 144.224  1.00  0.00     0.301 C 
ENDROOT
BRANCH   4   7
HETATM    7  C   UNL     1     122.240 148.414 147.087  1.00  0.00     0.213 C 
BRANCH   7   8
HETATM    8  O   UNL     1     120.809 148.428 146.971  1.00  0.00    -0.315 OA
BRANCH   8   9
HETATM    9  C   UNL     1     120.206 149.480 147.585  1.00  0.00     0.293 C 
HETATM   10  O   UNL     1     120.631 150.108 148.541  1.00  0.00    -0.259 OA
BRANCH   9  11
HETATM   11  C   UNL     1     118.922 149.777 146.915  1.00  0.00     0.045 A 
HETATM   12  C   UNL     1     118.396 148.917 145.934  1.00  0.00     0.057 A 
HETATM   13  C   UNL     1     117.158 149.211 145.374  1.00  0.00     0.102 A 
HETATM   14  C   UNL     1     116.460 150.347 145.774  1.00  0.00     0.132 A 
HETATM   15  C   UNL     1     116.989 151.193 146.739  1.00  0.00     0.102 A 
HETATM   16  C   UNL     1     118.215 150.916 147.324  1.00  0.00     0.057 A 
BRANCH  13  17
HETATM   17  O   UNL     1     116.577 148.408 144.433  1.00  0.00    -0.358 OA
HETATM   18  H   UNL     1     116.005 148.955 143.865  1.00  0.00     0.217 HD
ENDBRANCH  13  17
BRANCH  14  19
HETATM   19  O   UNL     1     115.239 150.640 145.230  1.00  0.00    -0.356 OA
HETATM   20  H   UNL     1     114.668 149.891 145.496  1.00  0.00     0.218 HD
ENDBRANCH  14  19
BRANCH  15  21
HETATM   21  O   UNL     1     116.300 152.305 147.128  1.00  0.00    -0.358 OA
HETATM   22  H   UNL     1     115.667 152.475 146.400  1.00  0.00     0.217 HD
ENDBRANCH  15  21
ENDBRANCH   9  11
ENDBRANCH   8   9
ENDBRANCH   7   8
ENDBRANCH   4   7
BRANCH   2  23
HETATM   23  O   UNL     1     124.532 149.988 147.816  1.00  0.00    -0.307 OA
BRANCH  23  24
HETATM   24  C   UNL     1     124.526 149.926 149.169  1.00  0.00     0.294 C 
HETATM   25  O   UNL     1     124.169 150.895 149.829  1.00  0.00    -0.259 OA
BRANCH  24  26
HETATM   26  C   UNL     1     124.903 148.681 149.876  1.00  0.00     0.045 A 
HETATM   27  C   UNL     1     125.090 147.462 149.207  1.00  0.00     0.057 A 
HETATM   28  C   UNL     1     125.406 146.322 149.940  1.00  0.00     0.102 A 
HETATM   29  C   UNL     1     125.619 146.409 151.310  1.00  0.00     0.132 A 
HETATM   30  C   UNL     1     125.513 147.632 151.958  1.00  0.00     0.102 A 
HETATM   31  C   UNL     1     125.159 148.773 151.253  1.00  0.00     0.057 A 
BRANCH  28  32
HETATM   32  O   UNL     1     125.514 145.093 149.356  1.00  0.00    -0.358 OA
HETATM   33  H   UNL     1     126.162 145.140 148.629  1.00  0.00     0.217 HD
ENDBRANCH  28  32
BRANCH  29  34
HETATM   34  O   UNL     1     125.939 145.295 152.036  1.00  0.00    -0.356 OA
HETATM   35  H   UNL     1     125.447 145.404 152.875  1.00  0.00     0.218 HD
ENDBRANCH  29  34
BRANCH  30  36
HETATM   36  O   UNL     1     125.753 147.719 153.297  1.00  0.00    -0.358 OA
HETATM   37  H   UNL     1     125.006 147.248 153.718  1.00  0.00     0.217 HD
ENDBRANCH  30  36
ENDBRANCH  24  26
ENDBRANCH  23  24
ENDBRANCH   2  23
BRANCH   6  38
HETATM   38  O   UNL     1     121.428 151.347 143.413  1.00  0.00    -0.283 OA
BRANCH  38  39
HETATM   39  C   UNL     1     120.297 150.715 143.030  1.00  0.00     0.295 C 
HETATM   40  O   UNL     1     120.299 149.544 142.667  1.00  0.00    -0.259 OA
BRANCH  39  41
HETATM   41  C   UNL     1     119.052 151.496 142.904  1.00  0.00     0.045 A 
HETATM   42  C   UNL     1     118.252 151.406 141.756  1.00  0.00     0.057 A 
HETATM   43  C   UNL     1     117.069 152.135 141.701  1.00  0.00     0.102 A 
HETATM   44  C   UNL     1     116.732 152.998 142.738  1.00  0.00     0.132 A 
HETATM   45  C   UNL     1     117.569 153.139 143.838  1.00  0.00     0.102 A 
HETATM   46  C   UNL     1     118.731 152.387 143.937  1.00  0.00     0.057 A 
BRANCH  43  47
HETATM   47  O   UNL     1     116.202 152.026 140.652  1.00  0.00    -0.358 OA
HETATM   48  H   UNL     1     115.994 151.084 140.515  1.00  0.00     0.217 HD
ENDBRANCH  43  47
BRANCH  44  49
HETATM   49  O   UNL     1     115.574 153.726 142.687  1.00  0.00    -0.356 OA
HETATM   50  H   UNL     1     115.550 154.083 141.775  1.00  0.00     0.218 HD
ENDBRANCH  44  49
BRANCH  45  51
HETATM   51  O   UNL     1     117.254 154.020 144.829  1.00  0.00    -0.358 OA
HETATM   52  H   UNL     1     117.319 153.502 145.657  1.00  0.00     0.217 HD
ENDBRANCH  45  51
ENDBRANCH  39  41
ENDBRANCH  38  39
ENDBRANCH   6  38
BRANCH   3  53
HETATM   53  O   UNL     1     124.904 152.641 146.582  1.00  0.00    -0.306 OA
BRANCH  53  54
HETATM   54  C   UNL     1     126.247 152.609 146.750  1.00  0.00     0.294 C 
HETATM   55  O   UNL     1     126.844 152.023 147.635  1.00  0.00    -0.259 OA
BRANCH  54  56
HETATM   56  C   UNL     1     126.913 153.454 145.737  1.00  0.00     0.045 A 
HETATM   57  C   UNL     1     126.760 154.847 145.831  1.00  0.00     0.057 A 
HETATM   58  C   UNL     1     127.416 155.664 144.917  1.00  0.00     0.102 A 
HETATM   59  C   UNL     1     128.235 155.103 143.942  1.00  0.00     0.132 A 
HETATM   60  C   UNL     1     128.386 153.725 143.859  1.00  0.00     0.102 A 
HETATM   61  C   UNL     1     127.718 152.886 144.741  1.00  0.00     0.057 A 
BRANCH  58  62
HETATM   62  O   UNL     1     127.291 157.024 144.937  1.00  0.00    -0.358 OA
HETATM   63  H   UNL     1     127.070 157.332 144.041  1.00  0.00     0.217 HD
ENDBRANCH  58  62
BRANCH  59  64
HETATM   64  O   UNL     1     128.905 155.900 143.054  1.00  0.00    -0.356 OA
HETATM   65  H   UNL     1     129.393 155.272 142.483  1.00  0.00     0.218 HD
ENDBRANCH  59  64
BRANCH  60  66
HETATM   66  O   UNL     1     129.207 153.181 142.916  1.00  0.00    -0.358 OA
HETATM   67  H   UNL     1     128.629 153.027 142.140  1.00  0.00     0.217 HD
ENDBRANCH  60  66
ENDBRANCH  54  56
ENDBRANCH  53  54
ENDBRANCH   3  53
BRANCH   5  68
HETATM   68  O   UNL     1     124.067 152.597 143.763  1.00  0.00    -0.388 OA
HETATM   69  H   UNL     1     124.084 153.551 143.966  1.00  0.00     0.210 HD
ENDBRANCH   5  68
TORSDOF 26
ENDMDL
MODEL 8
REMARK VINA RESULT:   -10.286      1.513     10.255
REMARK INTER + INTRA:         -26.564
REMARK INTER:                 -22.368
REMARK INTRA:                  -4.196
REMARK UNBOUND:                -4.552
REMARK  26 active torsions:
REMARK  status: ('A' for Active; 'I' for Inactive)
REMARK    1  A    between atoms: O_2  and  C_29 
REMARK    2  A    between atoms: O_2  and  C_23 
REMARK    3  A    between atoms: O_3  and  C_24 
REMARK    4  A    between atoms: O_3  and  C_30 
REMARK    5  A    between atoms: O_4  and  C_26 
REMARK    6  A    between atoms: O_5  and  C_31 
REMARK    7  A    between atoms: O_5  and  C_27 
REMARK    8  A    between atoms: O_6  and  C_28 
REMARK    9  A    between atoms: O_6  and  C_34 
REMARK   10  A    between atoms: O_11  and  C_43 
REMARK   11  A    between atoms: O_12  and  C_44 
REMARK   12  A    between atoms: O_13  and  C_45 
REMARK   13  A    between atoms: O_14  and  C_46 
REMARK   14  A    between atoms: O_15  and  C_49 
REMARK   15  A    between atoms: O_16  and  C_50 
REMARK   16  A    between atoms: O_17  and  C_51 
REMARK   17  A    between atoms: O_18  and  C_52 
REMARK   18  A    between atoms: O_19  and  C_53 
REMARK   19  A    between atoms: O_20  and  C_54 
REMARK   20  A    between atoms: O_21  and  C_55 
REMARK   21  A    between atoms: O_22  and  C_56 
REMARK   22  A    between atoms: C_25  and  C_28 
REMARK   23  A    between atoms: C_29  and  C_32 
REMARK   24  A    between atoms: C_30  and  C_33 
REMARK   25  A    between atoms: C_31  and  C_35 
REMARK   26  A    between atoms: C_34  and  C_36 
ROOT
HETATM    1  O   UNL     1     106.127 144.757 162.207  1.00  0.00    -0.348 OA
HETATM    2  C   UNL     1     106.383 146.435 160.489  1.00  0.00     0.195 C 
HETATM    3  C   UNL     1     107.722 146.872 161.102  1.00  0.00     0.198 C 
HETATM    4  C   UNL     1     105.487 145.893 161.616  1.00  0.00     0.181 C 
HETATM    5  C   UNL     1     108.354 145.767 161.974  1.00  0.00     0.206 C 
HETATM    6  C   UNL     1     107.313 145.121 162.919  1.00  0.00     0.301 C 
ENDROOT
BRANCH   4   7
HETATM    7  C   UNL     1     104.096 145.513 161.085  1.00  0.00     0.213 C 
BRANCH   7   8
HETATM    8  O   UNL     1     103.113 145.563 162.131  1.00  0.00    -0.315 OA
BRANCH   8   9
HETATM    9  C   UNL     1     102.618 144.351 162.494  1.00  0.00     0.293 C 
HETATM   10  O   UNL     1     102.037 143.556 161.775  1.00  0.00    -0.259 OA
BRANCH   9  11
HETATM   11  C   UNL     1     102.889 144.112 163.928  1.00  0.00     0.045 A 
HETATM   12  C   UNL     1     103.305 145.156 164.773  1.00  0.00     0.057 A 
HETATM   13  C   UNL     1     103.493 144.893 166.126  1.00  0.00     0.102 A 
HETATM   14  C   UNL     1     103.283 143.612 166.626  1.00  0.00     0.132 A 
HETATM   15  C   UNL     1     102.878 142.586 165.783  1.00  0.00     0.102 A 
HETATM   16  C   UNL     1     102.669 142.824 164.433  1.00  0.00     0.057 A 
BRANCH  13  17
HETATM   17  O   UNL     1     103.874 145.864 167.010  1.00  0.00    -0.358 OA
HETATM   18  H   UNL     1     104.820 146.052 166.879  1.00  0.00     0.217 HD
ENDBRANCH  13  17
BRANCH  14  19
HETATM   19  O   UNL     1     103.461 143.347 167.957  1.00  0.00    -0.356 OA
HETATM   20  H   UNL     1     102.634 143.654 168.380  1.00  0.00     0.218 HD
ENDBRANCH  14  19
BRANCH  15  21
HETATM   21  O   UNL     1     102.673 141.331 166.279  1.00  0.00    -0.358 OA
HETATM   22  H   UNL     1     103.395 141.197 166.926  1.00  0.00     0.217 HD
ENDBRANCH  15  21
ENDBRANCH   9  11
ENDBRANCH   8   9
ENDBRANCH   7   8
ENDBRANCH   4   7
BRANCH   2  23
HETATM   23  O   UNL     1     105.710 147.570 159.891  1.00  0.00    -0.307 OA
BRANCH  23  24
HETATM   24  C   UNL     1     105.346 147.760 158.601  1.00  0.00     0.294 C 
HETATM   25  O   UNL     1     104.174 147.630 158.266  1.00  0.00    -0.259 OA
BRANCH  24  26
HETATM   26  C   UNL     1     106.339 148.170 157.582  1.00  0.00     0.045 A 
HETATM   27  C   UNL     1     106.915 147.260 156.683  1.00  0.00     0.057 A 
HETATM   28  C   UNL     1     107.870 147.708 155.776  1.00  0.00     0.102 A 
HETATM   29  C   UNL     1     108.187 149.059 155.705  1.00  0.00     0.132 A 
HETATM   30  C   UNL     1     107.556 149.970 156.539  1.00  0.00     0.102 A 
HETATM   31  C   UNL     1     106.629 149.539 157.479  1.00  0.00     0.057 A 
BRANCH  28  32
HETATM   32  O   UNL     1     108.529 146.855 154.938  1.00  0.00    -0.358 OA
HETATM   33  H   UNL     1     107.938 146.611 154.201  1.00  0.00     0.217 HD
ENDBRANCH  28  32
BRANCH  29  34
HETATM   34  O   UNL     1     109.118 149.508 154.809  1.00  0.00    -0.356 OA
HETATM   35  H   UNL     1     108.857 150.436 154.635  1.00  0.00     0.218 HD
ENDBRANCH  29  34
BRANCH  30  36
HETATM   36  O   UNL     1     107.845 151.299 156.445  1.00  0.00    -0.358 OA
HETATM   37  H   UNL     1     106.992 151.754 156.593  1.00  0.00     0.217 HD
ENDBRANCH  30  36
ENDBRANCH  24  26
ENDBRANCH  23  24
ENDBRANCH   2  23
BRANCH   6  38
HETATM   38  O   UNL     1     107.920 143.923 163.454  1.00  0.00    -0.283 OA
BRANCH  38  39
HETATM   39  C   UNL     1     107.299 142.986 164.205  1.00  0.00     0.295 C 
HETATM   40  O   UNL     1     106.398 142.288 163.755  1.00  0.00    -0.259 OA
BRANCH  39  41
HETATM   41  C   UNL     1     107.614 142.904 165.643  1.00  0.00     0.045 A 
HETATM   42  C   UNL     1     106.613 142.647 166.591  1.00  0.00     0.057 A 
HETATM   43  C   UNL     1     106.967 142.542 167.932  1.00  0.00     0.102 A 
HETATM   44  C   UNL     1     108.281 142.770 168.328  1.00  0.00     0.132 A 
HETATM   45  C   UNL     1     109.251 143.100 167.390  1.00  0.00     0.102 A 
HETATM   46  C   UNL     1     108.932 143.163 166.041  1.00  0.00     0.057 A 
BRANCH  43  47
HETATM   47  O   UNL     1     106.058 142.207 168.895  1.00  0.00    -0.358 OA
HETATM   48  H   UNL     1     105.907 142.982 169.465  1.00  0.00     0.217 HD
ENDBRANCH  43  47
BRANCH  44  49
HETATM   49  O   UNL     1     108.635 142.677 169.646  1.00  0.00    -0.356 OA
HETATM   50  H   UNL     1     107.808 142.416 170.103  1.00  0.00     0.218 HD
ENDBRANCH  44  49
BRANCH  45  51
HETATM   51  O   UNL     1     110.528 143.365 167.791  1.00  0.00    -0.358 OA
HETATM   52  H   UNL     1     110.893 143.952 167.098  1.00  0.00     0.217 HD
ENDBRANCH  45  51
ENDBRANCH  39  41
ENDBRANCH  38  39
ENDBRANCH   6  38
BRANCH   3  53
HETATM   53  O   UNL     1     108.647 147.396 160.106  1.00  0.00    -0.306 OA
BRANCH  53  54
HETATM   54  C   UNL     1     109.514 148.374 160.457  1.00  0.00     0.294 C 
HETATM   55  O   UNL     1     109.411 149.110 161.421  1.00  0.00    -0.259 OA
BRANCH  54  56
HETATM   56  C   UNL     1     110.597 148.485 159.458  1.00  0.00     0.045 A 
HETATM   57  C   UNL     1     110.405 147.885 158.202  1.00  0.00     0.057 A 
HETATM   58  C   UNL     1     111.391 148.017 157.230  1.00  0.00     0.102 A 
HETATM   59  C   UNL     1     112.538 148.759 157.496  1.00  0.00     0.132 A 
HETATM   60  C   UNL     1     112.717 149.355 158.737  1.00  0.00     0.102 A 
HETATM   61  C   UNL     1     111.762 149.213 159.734  1.00  0.00     0.057 A 
BRANCH  58  62
HETATM   62  O   UNL     1     111.279 147.440 155.997  1.00  0.00    -0.358 OA
HETATM   63  H   UNL     1     110.432 147.710 155.601  1.00  0.00     0.217 HD
ENDBRANCH  58  62
BRANCH  59  64
HETATM   64  O   UNL     1     113.502 148.916 156.537  1.00  0.00    -0.356 OA
HETATM   65  H   UNL     1     113.174 148.397 155.774  1.00  0.00     0.218 HD
ENDBRANCH  59  64
BRANCH  60  66
HETATM   66  O   UNL     1     113.833 150.100 158.985  1.00  0.00    -0.358 OA
HETATM   67  H   UNL     1     113.504 150.893 159.455  1.00  0.00     0.217 HD
ENDBRANCH  60  66
ENDBRANCH  54  56
ENDBRANCH  53  54
ENDBRANCH   3  53
BRANCH   5  68
HETATM   68  O   UNL     1     109.431 146.341 162.736  1.00  0.00    -0.388 OA
HETATM   69  H   UNL     1     110.248 145.900 162.438  1.00  0.00     0.210 HD
ENDBRANCH   5  68
TORSDOF 26
ENDMDL
MODEL 9
REMARK VINA RESULT:   -10.272      1.193      2.021
REMARK INTER + INTRA:         -26.534
REMARK INTER:                 -23.143
REMARK INTRA:                  -3.392
REMARK UNBOUND:                -4.552
REMARK  26 active torsions:
REMARK  status: ('A' for Active; 'I' for Inactive)
REMARK    1  A    between atoms: O_2  and  C_29 
REMARK    2  A    between atoms: O_2  and  C_23 
REMARK    3  A    between atoms: O_3  and  C_24 
REMARK    4  A    between atoms: O_3  and  C_30 
REMARK    5  A    between atoms: O_4  and  C_26 
REMARK    6  A    between atoms: O_5  and  C_31 
REMARK    7  A    between atoms: O_5  and  C_27 
REMARK    8  A    between atoms: O_6  and  C_28 
REMARK    9  A    between atoms: O_6  and  C_34 
REMARK   10  A    between atoms: O_11  and  C_43 
REMARK   11  A    between atoms: O_12  and  C_44 
REMARK   12  A    between atoms: O_13  and  C_45 
REMARK   13  A    between atoms: O_14  and  C_46 
REMARK   14  A    between atoms: O_15  and  C_49 
REMARK   15  A    between atoms: O_16  and  C_50 
REMARK   16  A    between atoms: O_17  and  C_51 
REMARK   17  A    between atoms: O_18  and  C_52 
REMARK   18  A    between atoms: O_19  and  C_53 
REMARK   19  A    between atoms: O_20  and  C_54 
REMARK   20  A    between atoms: O_21  and  C_55 
REMARK   21  A    between atoms: O_22  and  C_56 
REMARK   22  A    between atoms: C_25  and  C_28 
REMARK   23  A    between atoms: C_29  and  C_32 
REMARK   24  A    between atoms: C_30  and  C_33 
REMARK   25  A    between atoms: C_31  and  C_35 
REMARK   26  A    between atoms: C_34  and  C_36 
ROOT
HETATM    1  O   UNL     1     107.452 147.123 160.567  1.00  0.00    -0.348 OA
HETATM    2  C   UNL     1     105.939 146.143 162.173  1.00  0.00     0.195 C 
HETATM    3  C   UNL     1     107.039 145.175 162.634  1.00  0.00     0.198 C 
HETATM    4  C   UNL     1     106.179 146.480 160.691  1.00  0.00     0.181 C 
HETATM    5  C   UNL     1     108.452 145.695 162.297  1.00  0.00     0.206 C 
HETATM    6  C   UNL     1     108.533 146.229 160.846  1.00  0.00     0.301 C 
ENDROOT
BRANCH   4   7
HETATM    7  C   UNL     1     105.063 147.382 160.139  1.00  0.00     0.213 C 
BRANCH   7   8
HETATM    8  O   UNL     1     105.171 147.522 158.715  1.00  0.00    -0.315 OA
BRANCH   8   9
HETATM    9  C   UNL     1     104.003 147.826 158.090  1.00  0.00     0.293 C 
HETATM   10  O   UNL     1     102.998 147.136 158.050  1.00  0.00    -0.259 OA
BRANCH   9  11
HETATM   11  C   UNL     1     104.114 149.151 157.445  1.00  0.00     0.045 A 
HETATM   12  C   UNL     1     102.979 149.950 157.222  1.00  0.00     0.057 A 
HETATM   13  C   UNL     1     103.143 151.212 156.663  1.00  0.00     0.102 A 
HETATM   14  C   UNL     1     104.412 151.668 156.321  1.00  0.00     0.132 A 
HETATM   15  C   UNL     1     105.528 150.870 156.539  1.00  0.00     0.102 A 
HETATM   16  C   UNL     1     105.394 149.613 157.108  1.00  0.00     0.057 A 
BRANCH  13  17
HETATM   17  O   UNL     1     102.087 152.051 156.439  1.00  0.00    -0.358 OA
HETATM   18  H   UNL     1     101.574 151.714 155.684  1.00  0.00     0.217 HD
ENDBRANCH  13  17
BRANCH  14  19
HETATM   19  O   UNL     1     104.581 152.911 155.774  1.00  0.00    -0.356 OA
HETATM   20  H   UNL     1     103.675 153.202 155.547  1.00  0.00     0.218 HD
ENDBRANCH  14  19
BRANCH  15  21
HETATM   21  O   UNL     1     106.770 151.322 156.202  1.00  0.00    -0.358 OA
HETATM   22  H   UNL     1     106.607 152.074 155.597  1.00  0.00     0.217 HD
ENDBRANCH  15  21
ENDBRANCH   9  11
ENDBRANCH   8   9
ENDBRANCH   7   8
ENDBRANCH   4   7
BRANCH   2  23
HETATM   23  O   UNL     1     104.639 145.513 162.281  1.00  0.00    -0.307 OA
BRANCH  23  24
HETATM   24  C   UNL     1     103.621 145.803 163.125  1.00  0.00     0.294 C 
HETATM   25  O   UNL     1     103.098 146.912 163.101  1.00  0.00    -0.259 OA
BRANCH  24  26
HETATM   26  C   UNL     1     103.089 144.783 164.057  1.00  0.00     0.045 A 
HETATM   27  C   UNL     1     102.515 145.119 165.293  1.00  0.00     0.057 A 
HETATM   28  C   UNL     1     102.071 144.107 166.137  1.00  0.00     0.102 A 
HETATM   29  C   UNL     1     102.116 142.781 165.723  1.00  0.00     0.132 A 
HETATM   30  C   UNL     1     102.609 142.457 164.466  1.00  0.00     0.102 A 
HETATM   31  C   UNL     1     103.095 143.448 163.625  1.00  0.00     0.057 A 
BRANCH  28  32
HETATM   32  O   UNL     1     101.585 144.366 167.386  1.00  0.00    -0.358 OA
HETATM   33  H   UNL     1     100.624 144.201 167.396  1.00  0.00     0.217 HD
ENDBRANCH  28  32
BRANCH  29  34
HETATM   34  O   UNL     1     101.672 141.781 166.544  1.00  0.00    -0.356 OA
HETATM   35  H   UNL     1     101.607 140.999 165.957  1.00  0.00     0.218 HD
ENDBRANCH  29  34
BRANCH  30  36
HETATM   36  O   UNL     1     102.623 141.159 164.051  1.00  0.00    -0.358 OA
HETATM   37  H   UNL     1     101.696 140.857 164.137  1.00  0.00     0.217 HD
ENDBRANCH  30  36
ENDBRANCH  24  26
ENDBRANCH  23  24
ENDBRANCH   2  23
BRANCH   6  38
HETATM   38  O   UNL     1     109.778 146.955 160.736  1.00  0.00    -0.283 OA
BRANCH  38  39
HETATM   39  C   UNL     1     110.740 146.745 159.811  1.00  0.00     0.295 C 
HETATM   40  O   UNL     1     111.489 145.776 159.863  1.00  0.00    -0.259 OA
BRANCH  39  41
HETATM   41  C   UNL     1     110.991 147.786 158.796  1.00  0.00     0.045 A 
HETATM   42  C   UNL     1     112.242 147.906 158.174  1.00  0.00     0.057 A 
HETATM   43  C   UNL     1     112.418 148.879 157.197  1.00  0.00     0.102 A 
HETATM   44  C   UNL     1     111.390 149.768 156.904  1.00  0.00     0.132 A 
HETATM   45  C   UNL     1     110.178 149.691 157.580  1.00  0.00     0.102 A 
HETATM   46  C   UNL     1     109.963 148.698 158.525  1.00  0.00     0.057 A 
BRANCH  43  47
HETATM   47  O   UNL     1     113.582 148.992 156.491  1.00  0.00    -0.358 OA
HETATM   48  H   UNL     1     113.960 149.876 156.652  1.00  0.00     0.217 HD
ENDBRANCH  43  47
BRANCH  44  49
HETATM   49  O   UNL     1     111.558 150.734 155.950  1.00  0.00    -0.356 OA
HETATM   50  H   UNL     1     111.279 151.564 156.391  1.00  0.00     0.218 HD
ENDBRANCH  44  49
BRANCH  45  51
HETATM   51  O   UNL     1     109.190 150.594 157.319  1.00  0.00    -0.358 OA
HETATM   52  H   UNL     1     109.658 151.429 157.116  1.00  0.00     0.217 HD
ENDBRANCH  45  51
ENDBRANCH  39  41
ENDBRANCH  38  39
ENDBRANCH   6  38
BRANCH   3  53
HETATM   53  O   UNL     1     106.901 144.801 164.035  1.00  0.00    -0.306 OA
BRANCH  53  54
HETATM   54  C   UNL     1     106.852 143.490 164.368  1.00  0.00     0.294 C 
HETATM   55  O   UNL     1     106.416 142.590 163.673  1.00  0.00    -0.259 OA
BRANCH  54  56
HETATM   56  C   UNL     1     107.343 143.290 165.747  1.00  0.00     0.045 A 
HETATM   57  C   UNL     1     106.424 142.877 166.726  1.00  0.00     0.057 A 
HETATM   58  C   UNL     1     106.874 142.638 168.020  1.00  0.00     0.102 A 
HETATM   59  C   UNL     1     108.224 142.779 168.327  1.00  0.00     0.132 A 
HETATM   60  C   UNL     1     109.128 143.181 167.352  1.00  0.00     0.102 A 
HETATM   61  C   UNL     1     108.699 143.456 166.060  1.00  0.00     0.057 A 
BRANCH  58  62
HETATM   62  O   UNL     1     106.030 142.257 169.024  1.00  0.00    -0.358 OA
HETATM   63  H   UNL     1     106.561 141.949 169.780  1.00  0.00     0.217 HD
ENDBRANCH  58  62
BRANCH  59  64
HETATM   64  O   UNL     1     108.681 142.520 169.591  1.00  0.00    -0.356 OA
HETATM   65  H   UNL     1     108.511 143.348 170.085  1.00  0.00     0.218 HD
ENDBRANCH  59  64
BRANCH  60  66
HETATM   66  O   UNL     1     110.453 143.296 167.652  1.00  0.00    -0.358 OA
HETATM   67  H   UNL     1     110.474 143.719 168.535  1.00  0.00     0.217 HD
ENDBRANCH  60  66
ENDBRANCH  54  56
ENDBRANCH  53  54
ENDBRANCH   3  53
BRANCH   5  68
HETATM   68  O   UNL     1     109.395 144.624 162.486  1.00  0.00    -0.388 OA
HETATM   69  H   UNL     1     108.889 143.793 162.407  1.00  0.00     0.210 HD
ENDBRANCH   5  68
TORSDOF 26
ENDMDL
MODEL 10
REMARK VINA RESULT:   -10.257      1.408      3.080
REMARK INTER + INTRA:         -26.503
REMARK INTER:                 -22.297
REMARK INTRA:                  -4.206
REMARK UNBOUND:                -4.552
REMARK  26 active torsions:
REMARK  status: ('A' for Active; 'I' for Inactive)
REMARK    1  A    between atoms: O_2  and  C_29 
REMARK    2  A    between atoms: O_2  and  C_23 
REMARK    3  A    between atoms: O_3  and  C_24 
REMARK    4  A    between atoms: O_3  and  C_30 
REMARK    5  A    between atoms: O_4  and  C_26 
REMARK    6  A    between atoms: O_5  and  C_31 
REMARK    7  A    between atoms: O_5  and  C_27 
REMARK    8  A    between atoms: O_6  and  C_28 
REMARK    9  A    between atoms: O_6  and  C_34 
REMARK   10  A    between atoms: O_11  and  C_43 
REMARK   11  A    between atoms: O_12  and  C_44 
REMARK   12  A    between atoms: O_13  and  C_45 
REMARK   13  A    between atoms: O_14  and  C_46 
REMARK   14  A    between atoms: O_15  and  C_49 
REMARK   15  A    between atoms: O_16  and  C_50 
REMARK   16  A    between atoms: O_17  and  C_51 
REMARK   17  A    between atoms: O_18  and  C_52 
REMARK   18  A    between atoms: O_19  and  C_53 
REMARK   19  A    between atoms: O_20  and  C_54 
REMARK   20  A    between atoms: O_21  and  C_55 
REMARK   21  A    between atoms: O_22  and  C_56 
REMARK   22  A    between atoms: C_25  and  C_28 
REMARK   23  A    between atoms: C_29  and  C_32 
REMARK   24  A    between atoms: C_30  and  C_33 
REMARK   25  A    between atoms: C_31  and  C_35 
REMARK   26  A    between atoms: C_34  and  C_36 
ROOT
HETATM    1  O   UNL     1     107.760 147.291 160.596  1.00  0.00    -0.348 OA
HETATM    2  C   UNL     1     106.235 146.244 162.149  1.00  0.00     0.195 C 
HETATM    3  C   UNL     1     107.351 145.303 162.625  1.00  0.00     0.198 C 
HETATM    4  C   UNL     1     106.503 146.610 160.678  1.00  0.00     0.181 C 
HETATM    5  C   UNL     1     108.756 145.868 162.332  1.00  0.00     0.206 C 
HETATM    6  C   UNL     1     108.859 146.426 160.892  1.00  0.00     0.301 C 
ENDROOT
BRANCH   4   7
HETATM    7  C   UNL     1     105.376 147.487 160.110  1.00  0.00     0.213 C 
BRANCH   7   8
HETATM    8  O   UNL     1     105.853 148.302 159.028  1.00  0.00    -0.315 OA
BRANCH   8   9
HETATM    9  C   UNL     1     105.936 147.658 157.834  1.00  0.00     0.293 C 
HETATM   10  O   UNL     1     105.211 146.760 157.439  1.00  0.00    -0.259 OA
BRANCH   9  11
HETATM   11  C   UNL     1     107.058 148.212 157.048  1.00  0.00     0.045 A 
HETATM   12  C   UNL     1     107.301 149.597 157.001  1.00  0.00     0.057 A 
HETATM   13  C   UNL     1     108.403 150.063 156.293  1.00  0.00     0.102 A 
HETATM   14  C   UNL     1     109.241 149.171 155.633  1.00  0.00     0.132 A 
HETATM   15  C   UNL     1     108.990 147.805 155.679  1.00  0.00     0.102 A 
HETATM   16  C   UNL     1     107.907 147.312 156.390  1.00  0.00     0.057 A 
BRANCH  13  17
HETATM   17  O   UNL     1     108.713 151.393 156.224  1.00  0.00    -0.358 OA
HETATM   18  H   UNL     1     109.520 151.499 155.691  1.00  0.00     0.217 HD
ENDBRANCH  13  17
BRANCH  14  19
HETATM   19  O   UNL     1     110.329 149.623 154.937  1.00  0.00    -0.356 OA
HETATM   20  H   UNL     1     110.082 149.511 153.997  1.00  0.00     0.218 HD
ENDBRANCH  14  19
BRANCH  15  21
HETATM   21  O   UNL     1     109.816 146.934 155.030  1.00  0.00    -0.358 OA
HETATM   22  H   UNL     1     110.646 147.434 154.889  1.00  0.00     0.217 HD
ENDBRANCH  15  21
ENDBRANCH   9  11
ENDBRANCH   8   9
ENDBRANCH   7   8
ENDBRANCH   4   7
BRANCH   2  23
HETATM   23  O   UNL     1     104.952 145.574 162.213  1.00  0.00    -0.307 OA
BRANCH  23  24
HETATM   24  C   UNL     1     103.955 145.732 163.115  1.00  0.00     0.294 C 
HETATM   25  O   UNL     1     103.318 146.779 163.153  1.00  0.00    -0.259 OA
BRANCH  24  26
HETATM   26  C   UNL     1     103.583 144.638 164.040  1.00  0.00     0.045 A 
HETATM   27  C   UNL     1     103.295 143.339 163.593  1.00  0.00     0.057 A 
HETATM   28  C   UNL     1     102.914 142.369 164.514  1.00  0.00     0.102 A 
HETATM   29  C   UNL     1     102.902 142.660 165.872  1.00  0.00     0.132 A 
HETATM   30  C   UNL     1     103.266 143.922 166.320  1.00  0.00     0.102 A 
HETATM   31  C   UNL     1     103.610 144.917 165.415  1.00  0.00     0.057 A 
BRANCH  28  32
HETATM   32  O   UNL     1     102.538 141.114 164.129  1.00  0.00    -0.358 OA
HETATM   33  H   UNL     1     103.068 140.843 163.357  1.00  0.00     0.217 HD
ENDBRANCH  28  32
BRANCH  29  34
HETATM   34  O   UNL     1     102.538 141.708 166.784  1.00  0.00    -0.356 OA
HETATM   35  H   UNL     1     101.839 141.194 166.329  1.00  0.00     0.218 HD
ENDBRANCH  29  34
BRANCH  30  36
HETATM   36  O   UNL     1     103.284 144.196 167.655  1.00  0.00    -0.358 OA
HETATM   37  H   UNL     1     102.565 143.651 168.033  1.00  0.00     0.217 HD
ENDBRANCH  30  36
ENDBRANCH  24  26
ENDBRANCH  23  24
ENDBRANCH   2  23
BRANCH   6  38
HETATM   38  O   UNL     1     110.084 147.190 160.825  1.00  0.00    -0.283 OA
BRANCH  38  39
HETATM   39  C   UNL     1     111.182 146.868 160.106  1.00  0.00     0.295 C 
HETATM   40  O   UNL     1     111.611 145.721 160.056  1.00  0.00    -0.259 OA
BRANCH  39  41
HETATM   41  C   UNL     1     111.969 147.950 159.486  1.00  0.00     0.045 A 
HETATM   42  C   UNL     1     112.601 148.928 160.268  1.00  0.00     0.057 A 
HETATM   43  C   UNL     1     113.362 149.905 159.638  1.00  0.00     0.102 A 
HETATM   44  C   UNL     1     113.426 149.954 158.250  1.00  0.00     0.132 A 
HETATM   45  C   UNL     1     112.734 149.027 157.480  1.00  0.00     0.102 A 
HETATM   46  C   UNL     1     112.007 148.014 158.086  1.00  0.00     0.057 A 
BRANCH  43  47
HETATM   47  O   UNL     1     114.074 150.833 160.344  1.00  0.00    -0.358 OA
HETATM   48  H   UNL     1     113.464 151.529 160.649  1.00  0.00     0.217 HD
ENDBRANCH  43  47
BRANCH  44  49
HETATM   49  O   UNL     1     114.166 150.919 157.622  1.00  0.00    -0.356 OA
HETATM   50  H   UNL     1     114.227 151.645 158.277  1.00  0.00     0.218 HD
ENDBRANCH  44  49
BRANCH  45  51
HETATM   51  O   UNL     1     112.766 149.108 156.119  1.00  0.00    -0.358 OA
HETATM   52  H   UNL     1     113.108 150.005 155.927  1.00  0.00     0.217 HD
ENDBRANCH  45  51
ENDBRANCH  39  41
ENDBRANCH  38  39
ENDBRANCH   6  38
BRANCH   3  53
HETATM   53  O   UNL     1     107.187 144.903 164.016  1.00  0.00    -0.306 OA
BRANCH  53  54
HETATM   54  C   UNL     1     107.106 143.588 164.323  1.00  0.00     0.294 C 
HETATM   55  O   UNL     1     106.682 142.708 163.596  1.00  0.00    -0.259 OA
BRANCH  54  56
HETATM   56  C   UNL     1     107.546 143.355 165.714  1.00  0.00     0.045 A 
HETATM   57  C   UNL     1     106.581 142.962 166.658  1.00  0.00     0.057 A 
HETATM   58  C   UNL     1     106.980 142.692 167.962  1.00  0.00     0.102 A 
HETATM   59  C   UNL     1     108.323 142.784 168.314  1.00  0.00     0.132 A 
HETATM   60  C   UNL     1     109.272 143.166 167.375  1.00  0.00     0.102 A 
HETATM   61  C   UNL     1     108.895 143.471 166.074  1.00  0.00     0.057 A 
BRANCH  58  62
HETATM   62  O   UNL     1     106.091 142.329 168.934  1.00  0.00    -0.358 OA
HETATM   63  H   UNL     1     105.897 143.105 169.487  1.00  0.00     0.217 HD
ENDBRANCH  58  62
BRANCH  59  64
HETATM   64  O   UNL     1     108.729 142.495 169.589  1.00  0.00    -0.356 OA
HETATM   65  H   UNL     1     108.092 142.970 170.161  1.00  0.00     0.218 HD
ENDBRANCH  59  64
BRANCH  60  66
HETATM   66  O   UNL     1     110.590 143.234 167.719  1.00  0.00    -0.358 OA
HETATM   67  H   UNL     1     110.743 144.176 167.938  1.00  0.00     0.217 HD
ENDBRANCH  60  66
ENDBRANCH  54  56
ENDBRANCH  53  54
ENDBRANCH   3  53
BRANCH   5  68
HETATM   68  O   UNL     1     109.725 144.823 162.532  1.00  0.00    -0.388 OA
HETATM   69  H   UNL     1     109.477 144.370 163.360  1.00  0.00     0.210 HD
ENDBRANCH   5  68
TORSDOF 26
ENDMDL
