REMARK VINA RESULT:      -7.6      3.988      6.474
REMARK  Name = 9823887
REMARK                            x       y       z     vdW  Elec       q    Type
REMARK                         _______ _______ _______ _____ _____    ______ ____
ROOT
ATOM      1  O   LIG    1      184.630 184.775 173.508  0.00  0.00    -0.341 OA
ATOM      2  C   LIG    1      184.574 183.743 174.490  0.00  0.00    +0.282 C 
ATOM      3  C   LIG    1      185.909 182.999 174.561  0.00  0.00    +0.201 C 
ATOM      4  C   LIG    1      187.073 183.964 174.781  0.00  0.00    +0.179 C 
ATOM      5  C   LIG    1      187.007 185.143 173.811  0.00  0.00    +0.177 C 
ATOM     22  C   LIG    1      185.610 185.769 173.811  0.00  0.00    +0.178 C 
ENDROOT
BRANCH   5   6
ATOM      6  O   LIG    1      187.964 186.126 174.196  0.00  0.00    -0.386 OA
ATOM      7  H   LIG    1      187.573 187.003 174.040  0.00  0.00    +0.210 HD
ENDBRANCH   5   6
BRANCH   4   8
ATOM      8  O   LIG    1      188.307 183.279 174.560  0.00  0.00    -0.386 OA
ATOM      9  H   LIG    1      188.787 183.761 173.865  0.00  0.00    +0.210 HD
ENDBRANCH   4   8
BRANCH   3  10
ATOM     10  O   LIG    1      185.847 182.074 175.647  0.00  0.00    -0.384 OA
ATOM     11  H   LIG    1      186.754 181.912 175.956  0.00  0.00    +0.210 HD
ENDBRANCH   3  10
BRANCH   2  12
ATOM     12  O   LIG    1      183.562 182.800 174.143  0.00  0.00    -0.345 OA
BRANCH  12  13
ATOM     13  C   LIG    1      182.312 183.149 174.715  0.00  0.00    +0.190 C 
BRANCH  13  14
ATOM     14  C   LIG    1      181.237 182.914 173.704  0.00  0.00    +0.001 C 
ATOM     15  C   LIG    1      181.121 181.776 173.002  0.00  0.00    +0.006 C 
BRANCH  15  16
ATOM     16  C   LIG    1      180.071 181.495 172.008  0.00  0.00    -0.025 A 
ATOM     17  C   LIG    1      179.896 182.362 170.941  0.00  0.00    +0.008 A 
ATOM     18  C   LIG    1      178.902 182.095 170.000  0.00  0.00    +0.001 A 
ATOM     19  C   LIG    1      178.096 180.966 170.137  0.00  0.00    +0.000 A 
ATOM     20  C   LIG    1      178.283 180.102 171.216  0.00  0.00    +0.001 A 
ATOM     21  C   LIG    1      179.278 180.369 172.158  0.00  0.00    +0.008 A 
ENDBRANCH  15  16
ENDBRANCH  13  14
ENDBRANCH  12  13
ENDBRANCH   2  12
BRANCH  22  23
ATOM     23  C   LIG    1      185.485 186.873 172.766  0.00  0.00    +0.197 C 
BRANCH  23  24
ATOM     24  O   LIG    1      186.193 186.477 171.605  0.00  0.00    -0.346 OA
BRANCH  24  25
ATOM     25  C   LIG    1      185.335 186.370 170.474  0.00  0.00    +0.281 C 
ATOM     26  C   LIG    1      184.801 187.759 170.090  0.00  0.00    +0.201 C 
ATOM     27  C   LIG    1      185.870 188.620 169.410  0.00  0.00    +0.178 C 
ATOM     28  C   LIG    1      186.551 187.829 168.292  0.00  0.00    +0.171 C 
ATOM     29  C   LIG    1      187.054 186.488 168.813  0.00  0.00    +0.197 C 
ATOM     36  O   LIG    1      185.982 185.731 169.368  0.00  0.00    -0.346 OA
BRANCH  28  30
ATOM     30  O   LIG    1      187.625 188.585 167.751  0.00  0.00    -0.387 OA
ATOM     31  H   LIG    1      188.449 188.105 167.943  0.00  0.00    +0.210 HD
ENDBRANCH  28  30
BRANCH  27  32
ATOM     32  O   LIG    1      186.849 189.014 170.371  0.00  0.00    -0.386 OA
ATOM     33  H   LIG    1      186.643 188.555 171.204  0.00  0.00    +0.210 HD
ENDBRANCH  27  32
BRANCH  26  34
ATOM     34  O   LIG    1      183.703 187.578 169.199  0.00  0.00    -0.384 OA
ATOM     35  H   LIG    1      183.034 187.031 169.643  0.00  0.00    +0.210 HD
ENDBRANCH  26  34
ENDBRANCH  24  25
ENDBRANCH  23  24
ENDBRANCH  22  23
TORSDOF 13
