REMARK VINA RESULT:      -8.0      1.253      1.688
REMARK  Name = 9823887
REMARK                            x       y       z     vdW  Elec       q    Type
REMARK                         _______ _______ _______ _____ _____    ______ ____
ROOT
ATOM      1  O   LIG    1      182.629 181.219 172.710  0.00  0.00    -0.341 OA
ATOM      2  C   LIG    1      181.513 181.267 171.824  0.00  0.00    +0.282 C 
ATOM      3  C   LIG    1      180.340 181.996 172.479  0.00  0.00    +0.201 C 
ATOM      4  C   LIG    1      180.754 183.377 172.983  0.00  0.00    +0.179 C 
ATOM      5  C   LIG    1      182.045 183.305 173.798  0.00  0.00    +0.177 C 
ATOM     22  C   LIG    1      183.120 182.518 173.044  0.00  0.00    +0.178 C 
ENDROOT
BRANCH   5   6
ATOM      6  O   LIG    1      182.518 184.626 174.051  0.00  0.00    -0.386 OA
ATOM      7  H   LIG    1      181.879 185.252 173.668  0.00  0.00    +0.210 HD
ENDBRANCH   5   6
BRANCH   4   8
ATOM      8  O   LIG    1      179.729 183.903 173.828  0.00  0.00    -0.386 OA
ATOM      9  H   LIG    1      179.570 183.253 174.533  0.00  0.00    +0.210 HD
ENDBRANCH   4   8
BRANCH   3  10
ATOM     10  O   LIG    1      179.303 182.137 171.509  0.00  0.00    -0.384 OA
ATOM     11  H   LIG    1      179.014 183.065 171.509  0.00  0.00    +0.210 HD
ENDBRANCH   3  10
BRANCH   2  12
ATOM     12  O   LIG    1      181.089 179.941 171.511  0.00  0.00    -0.345 OA
BRANCH  12  13
ATOM     13  C   LIG    1      181.511 179.016 172.500  0.00  0.00    +0.190 C 
BRANCH  13  14
ATOM     14  C   LIG    1      181.205 177.632 172.027  0.00  0.00    +0.001 C 
ATOM     15  C   LIG    1      182.099 176.632 172.046  0.00  0.00    +0.006 C 
BRANCH  15  16
ATOM     16  C   LIG    1      181.839 175.251 171.605  0.00  0.00    -0.025 A 
ATOM     17  C   LIG    1      182.679 174.667 170.669  0.00  0.00    +0.008 A 
ATOM     18  C   LIG    1      182.432 173.360 170.252  0.00  0.00    +0.001 A 
ATOM     19  C   LIG    1      181.349 172.653 170.773  0.00  0.00    +0.000 A 
ATOM     20  C   LIG    1      180.512 173.253 171.714  0.00  0.00    +0.001 A 
ATOM     21  C   LIG    1      180.759 174.561 172.132  0.00  0.00    +0.008 A 
ENDBRANCH  15  16
ENDBRANCH  13  14
ENDBRANCH  12  13
ENDBRANCH   2  12
BRANCH  22  23
ATOM     23  C   LIG    1      184.379 182.332 173.885  0.00  0.00    +0.197 C 
BRANCH  23  24
ATOM     24  O   LIG    1      185.306 183.345 173.538  0.00  0.00    -0.346 OA
BRANCH  24  25
ATOM     25  C   LIG    1      185.759 184.061 174.682  0.00  0.00    +0.281 C 
ATOM     26  C   LIG    1      187.294 184.129 174.683  0.00  0.00    +0.201 C 
ATOM     27  C   LIG    1      187.828 185.120 173.643  0.00  0.00    +0.178 C 
ATOM     28  C   LIG    1      187.095 186.457 173.764  0.00  0.00    +0.171 C 
ATOM     29  C   LIG    1      185.586 186.248 173.724  0.00  0.00    +0.197 C 
ATOM     36  O   LIG    1      185.174 185.365 174.765  0.00  0.00    -0.346 OA
BRANCH  28  30
ATOM     30  O   LIG    1      187.503 187.327 172.718  0.00  0.00    -0.387 OA
ATOM     31  H   LIG    1      187.102 188.197 172.887  0.00  0.00    +0.210 HD
ENDBRANCH  28  30
BRANCH  27  32
ATOM     32  O   LIG    1      187.628 184.590 172.333  0.00  0.00    -0.386 OA
ATOM     33  H   LIG    1      186.886 183.963 172.380  0.00  0.00    +0.210 HD
ENDBRANCH  27  32
BRANCH  26  34
ATOM     34  O   LIG    1      187.717 184.536 175.982  0.00  0.00    -0.384 OA
ATOM     35  H   LIG    1      187.718 185.507 176.016  0.00  0.00    +0.210 HD
ENDBRANCH  26  34
ENDBRANCH  24  25
ENDBRANCH  23  24
ENDBRANCH  22  23
TORSDOF 13
