REMARK VINA RESULT:      -7.6      3.013      6.008
REMARK  Name = 9823887
REMARK                            x       y       z     vdW  Elec       q    Type
REMARK                         _______ _______ _______ _____ _____    ______ ____
ROOT
ATOM      1  O   LIG    1      185.018 184.713 172.952  0.00  0.00    -0.341 OA
ATOM      2  C   LIG    1      184.786 183.799 174.021  0.00  0.00    +0.282 C 
ATOM      3  C   LIG    1      186.069 183.041 174.366  0.00  0.00    +0.201 C 
ATOM      4  C   LIG    1      187.223 184.002 174.648  0.00  0.00    +0.179 C 
ATOM      5  C   LIG    1      187.339 185.065 173.557  0.00  0.00    +0.177 C 
ATOM     22  C   LIG    1      185.980 185.715 173.286  0.00  0.00    +0.178 C 
ENDROOT
BRANCH   5   6
ATOM      6  O   LIG    1      188.266 186.066 173.969  0.00  0.00    -0.386 OA
ATOM      7  H   LIG    1      188.284 186.758 173.285  0.00  0.00    +0.210 HD
ENDBRANCH   5   6
BRANCH   4   8
ATOM      8  O   LIG    1      188.451 183.272 174.685  0.00  0.00    -0.386 OA
ATOM      9  H   LIG    1      188.533 182.797 173.840  0.00  0.00    +0.210 HD
ENDBRANCH   4   8
BRANCH   3  10
ATOM     10  O   LIG    1      185.820 182.245 175.524  0.00  0.00    -0.384 OA
ATOM     11  H   LIG    1      185.423 182.817 176.203  0.00  0.00    +0.210 HD
ENDBRANCH   3  10
BRANCH   2  12
ATOM     12  O   LIG    1      183.801 182.843 173.634  0.00  0.00    -0.345 OA
BRANCH  12  13
ATOM     13  C   LIG    1      182.546 183.462 173.395  0.00  0.00    +0.190 C 
BRANCH  13  14
ATOM     14  C   LIG    1      181.506 182.399 173.245  0.00  0.00    +0.001 C 
ATOM     15  C   LIG    1      181.723 181.240 172.604  0.00  0.00    +0.006 C 
BRANCH  15  16
ATOM     16  C   LIG    1      180.734 180.160 172.445  0.00  0.00    -0.025 A 
ATOM     17  C   LIG    1      179.395 180.482 172.294  0.00  0.00    +0.008 A 
ATOM     18  C   LIG    1      178.460 179.459 172.142  0.00  0.00    +0.001 A 
ATOM     19  C   LIG    1      178.875 178.127 172.145  0.00  0.00    +0.000 A 
ATOM     20  C   LIG    1      180.226 177.818 172.298  0.00  0.00    +0.001 A 
ATOM     21  C   LIG    1      181.162 178.842 172.449  0.00  0.00    +0.008 A 
ENDBRANCH  15  16
ENDBRANCH  13  14
ENDBRANCH  12  13
ENDBRANCH   2  12
BRANCH  22  23
ATOM     23  C   LIG    1      186.045 186.697 172.120  0.00  0.00    +0.197 C 
BRANCH  23  24
ATOM     24  O   LIG    1      187.145 186.349 171.299  0.00  0.00    -0.346 OA
BRANCH  24  25
ATOM     25  C   LIG    1      186.728 185.956 169.996  0.00  0.00    +0.281 C 
ATOM     26  C   LIG    1      187.807 186.329 168.967  0.00  0.00    +0.201 C 
ATOM     27  C   LIG    1      189.022 185.398 169.042  0.00  0.00    +0.178 C 
ATOM     28  C   LIG    1      188.567 183.938 169.041  0.00  0.00    +0.171 C 
ATOM     29  C   LIG    1      187.519 183.701 170.121  0.00  0.00    +0.197 C 
ATOM     36  O   LIG    1      186.400 184.564 169.934  0.00  0.00    -0.346 OA
BRANCH  28  30
ATOM     30  O   LIG    1      189.685 183.084 169.239  0.00  0.00    -0.387 OA
ATOM     31  H   LIG    1      189.855 183.039 170.196  0.00  0.00    +0.210 HD
ENDBRANCH  28  30
BRANCH  27  32
ATOM     32  O   LIG    1      189.753 185.663 170.239  0.00  0.00    -0.386 OA
ATOM     33  H   LIG    1      189.120 185.650 170.977  0.00  0.00    +0.210 HD
ENDBRANCH  27  32
BRANCH  26  34
ATOM     34  O   LIG    1      187.226 186.243 167.668  0.00  0.00    -0.384 OA
ATOM     35  H   LIG    1      187.878 186.553 167.018  0.00  0.00    +0.210 HD
ENDBRANCH  26  34
ENDBRANCH  24  25
ENDBRANCH  23  24
ENDBRANCH  22  23
TORSDOF 13
