MODEL 1
REMARK VINA RESULT:    -7.114      0.000      0.000
REMARK INTER + INTRA:         -13.282
REMARK INTER:                 -10.097
REMARK INTRA:                  -3.185
REMARK CONF_INDEPENDENT:        2.983
REMARK UNBOUND:                -3.185
REMARK SMILES COc1cc(/C=C/C(=O)CC(=O)/C=C/c2ccc(O)c(OC)c2)ccc1O
REMARK SMILES IDX 10 1 8 2 9 3 7 6 6 7 5 8 3 9 4 10 26 11 25 12 24 13 2 14
REMARK SMILES IDX 1 15 27 18 11 23 12 24 13 27 14 28 15 29 23 30 16 31 20 32
REMARK SMILES IDX 17 33 18 34 21 35 22 36 19 39
REMARK H PARENT 27 19 19 40
REMARK Flexibility Score: inf
ROOT
ATOM      1  C   UNL     1      -1.767  -7.111  -2.479  1.00  0.00     0.160 C 
ENDROOT
BRANCH   1   2
ATOM      2  C   UNL     1      -2.191  -5.687  -2.778  1.00  0.00     0.163 C 
ATOM      3  O   UNL     1      -2.818  -5.384  -3.789  1.00  0.00    -0.294 OA
ATOM      4 WAT  UNL     1      -3.602  -2.527  -4.267  1.00  0.00     0.000 W 
ATOM      5 WAT  UNL     1      -3.567  -7.498  -5.782  1.00  0.00     0.000 W 
BRANCH   2   6
ATOM      6  C   UNL     1      -1.839  -4.675  -1.739  1.00  0.00     0.048 C 
ATOM      7  C   UNL     1      -0.745  -3.915  -1.876  1.00  0.00     0.012 C 
BRANCH   7   8
ATOM      8  C   UNL     1      -0.304  -2.897  -0.904  1.00  0.00    -0.022 A 
ATOM      9  C   UNL     1      -0.754  -1.537   1.021  1.00  0.00     0.161 A 
ATOM     10  C   UNL     1      -1.171  -2.501   0.102  1.00  0.00     0.058 A 
ATOM     11  C   UNL     1       0.522  -0.984   0.920  1.00  0.00     0.157 A 
ATOM     12  C   UNL     1       1.382  -1.393  -0.098  1.00  0.00     0.051 A 
ATOM     13  C   UNL     1       0.966  -2.357  -1.017  1.00  0.00     0.012 A 
BRANCH   9  14
ATOM     14  O   UNL     1      -1.603  -1.145   2.011  1.00  0.00    -0.493 OA
ATOM     15  C   UNL     1      -2.306   0.080   1.816  1.00  0.00     0.278 C 
ATOM     16 WAT  UNL     1       0.146  -0.673   4.403  1.00  0.00     0.000 W 
ATOM     17 WAT  UNL     1      -3.728  -3.261   2.102  1.00  0.00     0.000 W 
ENDBRANCH   9  14
BRANCH  11  18
ATOM     18  O   UNL     1       0.940  -0.043   1.812  1.00  0.00    -0.504 OA
ATOM     19  H   UNL     1       0.194   0.177   2.397  1.00  0.00     0.293 HD
ATOM     20 WAT  UNL     1       1.585   2.431   0.242  1.00  0.00     0.000 W 
ATOM     21 WAT  UNL     1       3.047  -1.328   3.520  1.00  0.00     0.000 W 
ATOM     22 WAT  UNL     1      -1.338   0.630   3.599  1.00  0.00     0.000 W 
ENDBRANCH  11  18
ENDBRANCH   7   8
ENDBRANCH   2   6
ENDBRANCH   1   2
BRANCH   1  23
ATOM     23  C   UNL     1      -0.440  -7.256  -1.759  1.00  0.00     0.163 C 
ATOM     24  O   UNL     1       0.603  -7.534  -2.345  1.00  0.00    -0.294 OA
ATOM     25 WAT  UNL     1       3.166  -7.792  -0.807  1.00  0.00     0.000 W 
ATOM     26 WAT  UNL     1       0.588  -7.951  -5.316  1.00  0.00     0.000 W 
BRANCH  23  27
ATOM     27  C   UNL     1      -0.468  -6.994  -0.290  1.00  0.00     0.048 C 
ATOM     28  C   UNL     1       0.402  -6.138   0.264  1.00  0.00     0.012 C 
BRANCH  28  29
ATOM     29  C   UNL     1       0.464  -5.819   1.701  1.00  0.00    -0.022 A 
ATOM     30  C   UNL     1      -0.430  -4.904   2.232  1.00  0.00     0.058 A 
ATOM     31  C   UNL     1       1.418  -6.439   2.493  1.00  0.00     0.012 A 
ATOM     32  C   UNL     1      -0.371  -4.602   3.593  1.00  0.00     0.161 A 
ATOM     33  C   UNL     1       1.477  -6.137   3.853  1.00  0.00     0.051 A 
ATOM     34  C   UNL     1       0.583  -5.218   4.403  1.00  0.00     0.157 A 
BRANCH  32  35
ATOM     35  O   UNL     1      -1.250  -3.704   4.119  1.00  0.00    -0.493 OA
ATOM     36  C   UNL     1      -0.717  -2.458   4.563  1.00  0.00     0.278 C 
ATOM     37 WAT  UNL     1      -2.327  -5.021   6.590  1.00  0.00     0.000 W 
ATOM     38 WAT  UNL     1      -3.101  -3.006   1.863  1.00  0.00     0.000 W 
ENDBRANCH  32  35
BRANCH  34  39
ATOM     39  O   UNL     1       0.650  -4.933   5.733  1.00  0.00    -0.504 OA
ATOM     40  H   UNL     1       0.051  -4.193   5.929  1.00  0.00     0.293 HD
ATOM     41 WAT  UNL     1       3.438  -3.966   6.277  1.00  0.00     0.000 W 
ATOM     42 WAT  UNL     1      -0.417  -7.329   7.191  1.00  0.00     0.000 W 
ATOM     43 WAT  UNL     1      -1.181  -2.670   6.334  1.00  0.00     0.000 W 
ENDBRANCH  34  39
ENDBRANCH  28  29
ENDBRANCH  23  27
ENDBRANCH   1  23
TORSDOF 10
ENDMDL
MODEL 2
REMARK VINA RESULT:    -7.090      1.453      2.959
REMARK INTER + INTRA:         -13.254
REMARK INTER:                 -10.073
REMARK INTRA:                  -3.181
REMARK CONF_INDEPENDENT:        2.983
REMARK UNBOUND:                -3.181
REMARK SMILES COc1cc(/C=C/C(=O)CC(=O)/C=C/c2ccc(O)c(OC)c2)ccc1O
REMARK SMILES IDX 10 1 8 2 9 3 7 6 6 7 5 8 3 9 4 10 26 11 25 12 24 13 2 14
REMARK SMILES IDX 1 15 27 18 11 23 12 24 13 27 14 28 15 29 23 30 16 31 20 32
REMARK SMILES IDX 17 33 18 34 21 35 22 36 19 39
REMARK H PARENT 27 19 19 40
REMARK Flexibility Score: inf
ROOT
ATOM      1  C   UNL     1      -1.794  -7.159  -2.485  1.00  0.00     0.160 C 
ENDROOT
BRANCH   1   2
ATOM      2  C   UNL     1      -2.172  -5.773  -2.970  1.00  0.00     0.163 C 
ATOM      3  O   UNL     1      -2.993  -5.588  -3.864  1.00  0.00    -0.294 OA
ATOM      4 WAT  UNL     1      -3.658  -2.795  -4.736  1.00  0.00     0.000 W 
ATOM      5 WAT  UNL     1      -4.334  -7.928  -5.178  1.00  0.00     0.000 W 
BRANCH   2   6
ATOM      6  C   UNL     1      -1.517  -4.636  -2.258  1.00  0.00     0.048 C 
ATOM      7  C   UNL     1      -1.876  -4.324  -1.005  1.00  0.00     0.012 C 
BRANCH   7   8
ATOM      8  C   UNL     1      -1.300  -3.217  -0.221  1.00  0.00    -0.022 A 
ATOM      9  C   UNL     1       0.497  -1.680   0.187  1.00  0.00     0.161 A 
ATOM     10  C   UNL     1      -0.048  -2.727  -0.556  1.00  0.00     0.058 A 
ATOM     11  C   UNL     1      -0.217  -1.138   1.255  1.00  0.00     0.157 A 
ATOM     12  C   UNL     1      -1.476  -1.642   1.581  1.00  0.00     0.051 A 
ATOM     13  C   UNL     1      -2.022  -2.689   0.837  1.00  0.00     0.012 A 
BRANCH   9  14
ATOM     14  O   UNL     1       1.727  -1.196  -0.140  1.00  0.00    -0.493 OA
ATOM     15  C   UNL     1       2.857  -1.871   0.409  1.00  0.00     0.278 C 
ATOM     16 WAT  UNL     1       1.820   1.566   1.028  1.00  0.00     0.000 W 
ATOM     17 WAT  UNL     1       1.953  -1.577  -3.107  1.00  0.00     0.000 W 
ENDBRANCH   9  14
BRANCH  11  18
ATOM     18  O   UNL     1       0.304  -0.114   1.987  1.00  0.00    -0.504 OA
ATOM     19  H   UNL     1       1.182   0.102   1.630  1.00  0.00     0.293 HD
ATOM     20 WAT  UNL     1       0.722  -1.151   4.772  1.00  0.00     0.000 W 
ATOM     21 WAT  UNL     1      -1.447   2.278   1.524  1.00  0.00     0.000 W 
ATOM     22 WAT  UNL     1       2.988   0.546   0.893  1.00  0.00     0.000 W 
ENDBRANCH  11  18
ENDBRANCH   7   8
ENDBRANCH   2   6
ENDBRANCH   1   2
BRANCH   1  23
ATOM     23  C   UNL     1      -0.368  -7.308  -1.992  1.00  0.00     0.163 C 
ATOM     24  O   UNL     1       0.580  -7.481  -2.755  1.00  0.00    -0.294 OA
ATOM     25 WAT  UNL     1       3.357  -7.761  -1.657  1.00  0.00     0.000 W 
ATOM     26 WAT  UNL     1       0.115  -7.621  -5.715  1.00  0.00     0.000 W 
BRANCH  23  27
ATOM     27  C   UNL     1      -0.175  -7.184  -0.517  1.00  0.00     0.048 C 
ATOM     28  C   UNL     1       0.385  -6.084   0.005  1.00  0.00     0.012 C 
BRANCH  28  29
ATOM     29  C   UNL     1       0.629  -5.869   1.441  1.00  0.00    -0.022 A 
ATOM     30  C   UNL     1       0.148  -4.720   2.048  1.00  0.00     0.058 A 
ATOM     31  C   UNL     1       1.336  -6.821   2.159  1.00  0.00     0.012 A 
ATOM     32  C   UNL     1       0.379  -4.517   3.408  1.00  0.00     0.161 A 
ATOM     33  C   UNL     1       1.568  -6.618   3.519  1.00  0.00     0.051 A 
ATOM     34  C   UNL     1       1.089  -5.466   4.143  1.00  0.00     0.157 A 
BRANCH  32  35
ATOM     35  O   UNL     1      -0.094  -3.389   4.007  1.00  0.00    -0.493 OA
ATOM     36  C   UNL     1      -1.466  -3.388   4.397  1.00  0.00     0.278 C 
ATOM     37 WAT  UNL     1       0.130  -1.244   1.922  1.00  0.00     0.000 W 
ATOM     38 WAT  UNL     1       1.448  -3.156   6.571  1.00  0.00     0.000 W 
ENDBRANCH  32  35
BRANCH  34  39
ATOM     39  O   UNL     1       1.320  -5.280   5.473  1.00  0.00    -0.504 OA
ATOM     40  H   UNL     1       1.022  -4.390   5.726  1.00  0.00     0.293 HD
ATOM     41 WAT  UNL     1       4.296  -5.343   5.858  1.00  0.00     0.000 W 
ATOM     42 WAT  UNL     1      -0.423  -7.233   6.940  1.00  0.00     0.000 W 
ATOM     43 WAT  UNL     1       0.408  -2.559   6.246  1.00  0.00     0.000 W 
ENDBRANCH  34  39
ENDBRANCH  28  29
ENDBRANCH  23  27
ENDBRANCH   1  23
TORSDOF 10
ENDMDL
MODEL 3
REMARK VINA RESULT:    -6.862      2.916      7.447
REMARK INTER + INTRA:         -12.524
REMARK INTER:                  -9.845
REMARK INTRA:                  -2.678
REMARK CONF_INDEPENDENT:        2.983
REMARK UNBOUND:                -2.678
REMARK SMILES COc1cc(/C=C/C(=O)CC(=O)/C=C/c2ccc(O)c(OC)c2)ccc1O
REMARK SMILES IDX 10 1 8 2 9 3 7 6 6 7 5 8 3 9 4 10 26 11 25 12 24 13 2 14
REMARK SMILES IDX 1 15 27 18 11 23 12 24 13 27 14 28 15 29 23 30 16 31 20 32
REMARK SMILES IDX 17 33 18 34 21 35 22 36 19 39
REMARK H PARENT 27 19 19 40
REMARK Flexibility Score: inf
ROOT
ATOM      1  C   UNL     1       3.495  -6.201   3.549  1.00  0.00     0.160 C 
ENDROOT
BRANCH   1   2
ATOM      2  C   UNL     1       3.954  -4.773   3.327  1.00  0.00     0.163 C 
ATOM      3  O   UNL     1       4.649  -4.169   4.139  1.00  0.00    -0.294 OA
ATOM      4 WAT  UNL     1       5.493  -1.344   3.582  1.00  0.00     0.000 W 
ATOM      5 WAT  UNL     1       5.504  -5.517   6.679  1.00  0.00     0.000 W 
BRANCH   2   6
ATOM      6  C   UNL     1       3.545  -4.157   2.029  1.00  0.00     0.048 C 
ATOM      7  C   UNL     1       2.876  -2.996   2.012  1.00  0.00     0.012 C 
BRANCH   7   8
ATOM      8  C   UNL     1       2.419  -2.312   0.789  1.00  0.00    -0.022 A 
ATOM      9  C   UNL     1       2.921  -1.080  -1.208  1.00  0.00     0.161 A 
ATOM     10  C   UNL     1       3.354  -1.727  -0.051  1.00  0.00     0.058 A 
ATOM     11  C   UNL     1       1.560  -1.024  -1.508  1.00  0.00     0.157 A 
ATOM     12  C   UNL     1       0.632  -1.617  -0.653  1.00  0.00     0.051 A 
ATOM     13  C   UNL     1       1.065  -2.265   0.504  1.00  0.00     0.012 A 
BRANCH   9  14
ATOM     14  O   UNL     1       3.837  -0.504  -2.036  1.00  0.00    -0.493 OA
ATOM     15  C   UNL     1       4.867  -1.347  -2.549  1.00  0.00     0.278 C 
ATOM     16 WAT  UNL     1       5.255   1.528  -0.346  1.00  0.00     0.000 W 
ATOM     17 WAT  UNL     1       2.274   0.373  -4.442  1.00  0.00     0.000 W 
ENDBRANCH   9  14
BRANCH  11  18
ATOM     18  O   UNL     1       1.126  -0.395  -2.636  1.00  0.00    -0.504 OA
ATOM     19  H   UNL     1       1.707  -0.651  -3.373  1.00  0.00     0.293 HD
ATOM     20 WAT  UNL     1       1.508   2.549  -2.201  1.00  0.00     0.000 W 
ATOM     21 WAT  UNL     1      -1.604  -1.479  -3.250  1.00  0.00     0.000 W 
ATOM     22 WAT  UNL     1       2.900  -1.179  -4.887  1.00  0.00     0.000 W 
ENDBRANCH  11  18
ENDBRANCH   7   8
ENDBRANCH   2   6
ENDBRANCH   1   2
BRANCH   1  23
ATOM     23  C   UNL     1       2.020  -6.370   3.854  1.00  0.00     0.163 C 
ATOM     24  O   UNL     1       1.614  -6.834   4.917  1.00  0.00    -0.294 OA
ATOM     25 WAT  UNL     1      -1.333  -7.116   5.402  1.00  0.00     0.000 W 
ATOM     26 WAT  UNL     1       3.570  -7.680   7.028  1.00  0.00     0.000 W 
BRANCH  23  27
ATOM     27  C   UNL     1       1.080  -5.892   2.797  1.00  0.00     0.048 C 
ATOM     28  C   UNL     1       1.084  -6.455   1.580  1.00  0.00     0.012 C 
BRANCH  28  29
ATOM     29  C   UNL     1       0.207  -6.051   0.468  1.00  0.00    -0.022 A 
ATOM     30  C   UNL     1      -0.570  -4.911   0.596  1.00  0.00     0.058 A 
ATOM     31  C   UNL     1       0.177  -6.819  -0.685  1.00  0.00     0.012 A 
ATOM     32  C   UNL     1      -1.401  -4.529  -0.458  1.00  0.00     0.161 A 
ATOM     33  C   UNL     1      -0.654  -6.437  -1.738  1.00  0.00     0.051 A 
ATOM     34  C   UNL     1      -1.443  -5.292  -1.624  1.00  0.00     0.157 A 
BRANCH  32  35
ATOM     35  O   UNL     1      -2.166  -3.409  -0.335  1.00  0.00    -0.493 OA
ATOM     36  C   UNL     1      -2.626  -3.077   0.973  1.00  0.00     0.278 C 
ATOM     37 WAT  UNL     1      -4.650  -3.981  -1.917  1.00  0.00     0.000 W 
ATOM     38 WAT  UNL     1      -0.368  -1.142  -1.133  1.00  0.00     0.000 W 
ENDBRANCH  32  35
BRANCH  34  39
ATOM     39  O   UNL     1      -2.249  -4.929  -2.661  1.00  0.00    -0.504 OA
ATOM     40  H   UNL     1      -2.930  -4.318  -2.334  1.00  0.00     0.293 HD
ATOM     41 WAT  UNL     1      -3.668  -7.410  -3.573  1.00  0.00     0.000 W 
ATOM     42 WAT  UNL     1      -0.544  -3.383  -4.587  1.00  0.00     0.000 W 
ATOM     43 WAT  UNL     1      -4.333  -3.060  -1.661  1.00  0.00     0.000 W 
ENDBRANCH  34  39
ENDBRANCH  28  29
ENDBRANCH  23  27
ENDBRANCH   1  23
TORSDOF 10
ENDMDL
MODEL 4
REMARK VINA RESULT:    -6.667      2.125      5.541
REMARK INTER + INTRA:         -12.853
REMARK INTER:                  -9.650
REMARK INTRA:                  -3.203
REMARK CONF_INDEPENDENT:        2.983
REMARK UNBOUND:                -3.203
REMARK SMILES COc1cc(/C=C/C(=O)CC(=O)/C=C/c2ccc(O)c(OC)c2)ccc1O
REMARK SMILES IDX 10 1 8 2 9 3 7 6 6 7 5 8 3 9 4 10 26 11 25 12 24 13 2 14
REMARK SMILES IDX 1 15 27 18 11 23 12 24 13 27 14 28 15 29 23 30 16 31 20 32
REMARK SMILES IDX 17 33 18 34 21 35 22 36 19 39
REMARK H PARENT 27 19 19 40
REMARK Flexibility Score: inf
ROOT
ATOM      1  C   UNL     1      -1.194  -6.745  -2.180  1.00  0.00     0.160 C 
ENDROOT
BRANCH   1   2
ATOM      2  C   UNL     1      -1.309  -7.000  -0.690  1.00  0.00     0.163 C 
ATOM      3  O   UNL     1      -2.342  -7.412  -0.169  1.00  0.00    -0.294 OA
ATOM      4 WAT  UNL     1      -2.445  -7.879   2.794  1.00  0.00     0.000 W 
ATOM      5 WAT  UNL     1      -4.763  -7.951  -1.857  1.00  0.00     0.000 W 
BRANCH   2   6
ATOM      6  C   UNL     1      -0.068  -6.763   0.106  1.00  0.00     0.048 C 
ATOM      7  C   UNL     1      -0.052  -5.840   1.077  1.00  0.00     0.012 C 
BRANCH   7   8
ATOM      8  C   UNL     1       1.122  -5.523   1.911  1.00  0.00    -0.022 A 
ATOM      9  C   UNL     1       2.704  -3.922   2.740  1.00  0.00     0.161 A 
ATOM     10  C   UNL     1       1.593  -4.221   1.951  1.00  0.00     0.058 A 
ATOM     11  C   UNL     1       3.330  -4.928   3.475  1.00  0.00     0.157 A 
ATOM     12  C   UNL     1       2.844  -6.235   3.423  1.00  0.00     0.051 A 
ATOM     13  C   UNL     1       1.732  -6.534   2.635  1.00  0.00     0.012 A 
BRANCH   9  14
ATOM     14  O   UNL     1       3.170  -2.642   2.783  1.00  0.00    -0.493 OA
ATOM     15  C   UNL     1       3.792  -2.138   1.603  1.00  0.00     0.278 C 
ATOM     16 WAT  UNL     1       5.334  -2.664   4.861  1.00  0.00     0.000 W 
ATOM     17 WAT  UNL     1       0.733  -0.937   3.174  1.00  0.00     0.000 W 
ENDBRANCH   9  14
BRANCH  11  18
ATOM     18  O   UNL     1       4.415  -4.648   4.249  1.00  0.00    -0.504 OA
ATOM     19  H   UNL     1       4.666  -3.720   4.099  1.00  0.00     0.293 HD
ATOM     20 WAT  UNL     1       6.675  -6.343   3.239  1.00  0.00     0.000 W 
ATOM     21 WAT  UNL     1       3.535  -4.871   7.109  1.00  0.00     0.000 W 
ATOM     22 WAT  UNL     1       5.182  -1.813   3.792  1.00  0.00     0.000 W 
ENDBRANCH  11  18
ENDBRANCH   7   8
ENDBRANCH   2   6
ENDBRANCH   1   2
BRANCH   1  23
ATOM     23  C   UNL     1      -1.852  -5.471  -2.674  1.00  0.00     0.163 C 
ATOM     24  O   UNL     1      -2.556  -5.440  -3.681  1.00  0.00    -0.294 OA
ATOM     25 WAT  UNL     1      -3.804  -2.856  -4.556  1.00  0.00     0.000 W 
ATOM     26 WAT  UNL     1      -3.028  -7.946  -5.260  1.00  0.00     0.000 W 
BRANCH  23  27
ATOM     27  C   UNL     1      -1.631  -4.258  -1.833  1.00  0.00     0.048 C 
ATOM     28  C   UNL     1      -0.387  -3.844  -1.553  1.00  0.00     0.012 C 
BRANCH  28  29
ATOM     29  C   UNL     1      -0.062  -2.669  -0.726  1.00  0.00    -0.022 A 
ATOM     30  C   UNL     1      -0.942  -2.274   0.268  1.00  0.00     0.058 A 
ATOM     31  C   UNL     1       1.118  -1.981  -0.960  1.00  0.00     0.012 A 
ATOM     32  C   UNL     1      -0.635  -1.160   1.050  1.00  0.00     0.161 A 
ATOM     33  C   UNL     1       1.426  -0.867  -0.178  1.00  0.00     0.051 A 
ATOM     34  C   UNL     1       0.549  -0.458   0.827  1.00  0.00     0.157 A 
BRANCH  32  35
ATOM     35  O   UNL     1      -1.498  -0.770   2.029  1.00  0.00    -0.493 OA
ATOM     36  C   UNL     1      -2.256   0.414   1.792  1.00  0.00     0.278 C 
ATOM     37 WAT  UNL     1       0.237  -0.131   4.391  1.00  0.00     0.000 W 
ATOM     38 WAT  UNL     1      -3.526  -2.974   2.211  1.00  0.00     0.000 W 
ENDBRANCH  32  35
BRANCH  34  39
ATOM     39  O   UNL     1       0.862   0.630   1.586  1.00  0.00    -0.504 OA
ATOM     40  H   UNL     1       0.095   0.865   2.134  1.00  0.00     0.293 HD
ATOM     41 WAT  UNL     1       1.313   2.913  -0.309  1.00  0.00     0.000 W 
ATOM     42 WAT  UNL     1       3.047  -0.217   3.460  1.00  0.00     0.000 W 
ATOM     43 WAT  UNL     1      -1.484   1.350   3.263  1.00  0.00     0.000 W 
ENDBRANCH  34  39
ENDBRANCH  28  29
ENDBRANCH  23  27
ENDBRANCH   1  23
TORSDOF 10
ENDMDL
MODEL 5
REMARK VINA RESULT:    -6.577      2.373      3.168
REMARK INTER + INTRA:         -12.915
REMARK INTER:                  -9.560
REMARK INTRA:                  -3.355
REMARK CONF_INDEPENDENT:        2.983
REMARK UNBOUND:                -3.355
REMARK SMILES COc1cc(/C=C/C(=O)CC(=O)/C=C/c2ccc(O)c(OC)c2)ccc1O
REMARK SMILES IDX 10 1 8 2 9 3 7 6 6 7 5 8 3 9 4 10 26 11 25 12 24 13 2 14
REMARK SMILES IDX 1 15 27 18 11 23 12 24 13 27 14 28 15 29 23 30 16 31 20 32
REMARK SMILES IDX 17 33 18 34 21 35 22 36 19 39
REMARK H PARENT 27 19 19 40
REMARK Flexibility Score: inf
ROOT
ATOM      1  C   UNL     1      -1.135  -6.706  -2.126  1.00  0.00     0.160 C 
ENDROOT
BRANCH   1   2
ATOM      2  C   UNL     1      -1.797  -5.434  -2.617  1.00  0.00     0.163 C 
ATOM      3  O   UNL     1      -2.554  -5.415  -3.584  1.00  0.00    -0.294 OA
ATOM      4 WAT  UNL     1      -3.804  -2.831  -4.458  1.00  0.00     0.000 W 
ATOM      5 WAT  UNL     1      -3.153  -7.950  -5.073  1.00  0.00     0.000 W 
BRANCH   2   6
ATOM      6  C   UNL     1      -1.509  -4.205  -1.820  1.00  0.00     0.048 C 
ATOM      7  C   UNL     1      -0.246  -3.871  -1.523  1.00  0.00     0.012 C 
BRANCH   7   8
ATOM      8  C   UNL     1       0.143  -2.687  -0.735  1.00  0.00    -0.022 A 
ATOM      9  C   UNL     1      -0.338  -1.103   1.002  1.00  0.00     0.161 A 
ATOM     10  C   UNL     1      -0.707  -2.223   0.257  1.00  0.00     0.058 A 
ATOM     11  C   UNL     1       0.873  -0.462   0.744  1.00  0.00     0.157 A 
ATOM     12  C   UNL     1       1.717  -0.941  -0.257  1.00  0.00     0.051 A 
ATOM     13  C   UNL     1       1.349  -2.062  -1.002  1.00  0.00     0.012 A 
BRANCH   9  14
ATOM     14  O   UNL     1      -1.171  -0.644   1.977  1.00  0.00    -0.493 OA
ATOM     15  C   UNL     1      -1.781  -1.619   2.821  1.00  0.00     0.278 C 
ATOM     16 WAT  UNL     1      -3.444   0.662   0.518  1.00  0.00     0.000 W 
ATOM     17 WAT  UNL     1       0.575   0.982   3.795  1.00  0.00     0.000 W 
ENDBRANCH   9  14
BRANCH  11  18
ATOM     18  O   UNL     1       1.244   0.632   1.466  1.00  0.00    -0.504 OA
ATOM     19  H   UNL     1       0.521   0.856   2.077  1.00  0.00     0.293 HD
ATOM     20 WAT  UNL     1       1.497   2.914  -0.466  1.00  0.00     0.000 W 
ATOM     21 WAT  UNL     1       3.594  -0.179   3.146  1.00  0.00     0.000 W 
ATOM     22 WAT  UNL     1      -0.966   1.314   3.333  1.00  0.00     0.000 W 
ENDBRANCH  11  18
ENDBRANCH   7   8
ENDBRANCH   2   6
ENDBRANCH   1   2
BRANCH   1  23
ATOM     23  C   UNL     1      -1.300  -6.994  -0.646  1.00  0.00     0.163 C 
ATOM     24  O   UNL     1      -2.348  -7.420  -0.168  1.00  0.00    -0.294 OA
ATOM     25 WAT  UNL     1      -2.548  -7.951   2.777  1.00  0.00     0.000 W 
ATOM     26 WAT  UNL     1      -4.709  -7.930  -1.949  1.00  0.00     0.000 W 
BRANCH  23  27
ATOM     27  C   UNL     1      -0.087  -6.772   0.196  1.00  0.00     0.048 C 
ATOM     28  C   UNL     1      -0.009  -5.708   1.007  1.00  0.00     0.012 C 
BRANCH  28  29
ATOM     29  C   UNL     1       1.144  -5.394   1.868  1.00  0.00    -0.022 A 
ATOM     30  C   UNL     1       1.420  -4.072   2.178  1.00  0.00     0.058 A 
ATOM     31  C   UNL     1       1.931  -6.428   2.351  1.00  0.00     0.012 A 
ATOM     32  C   UNL     1       2.513  -3.775   2.992  1.00  0.00     0.161 A 
ATOM     33  C   UNL     1       3.024  -6.131   3.165  1.00  0.00     0.051 A 
ATOM     34  C   UNL     1       3.314  -4.804   3.486  1.00  0.00     0.157 A 
BRANCH  32  35
ATOM     35  O   UNL     1       2.786  -2.477   3.300  1.00  0.00    -0.493 OA
ATOM     36  C   UNL     1       3.934  -1.892   2.686  1.00  0.00     0.278 C 
ATOM     37 WAT  UNL     1       3.384  -2.478   6.239  1.00  0.00     0.000 W 
ATOM     38 WAT  UNL     1       0.453  -0.913   2.244  1.00  0.00     0.000 W 
ENDBRANCH  32  35
BRANCH  34  39
ATOM     39  O   UNL     1       4.383  -4.528   4.284  1.00  0.00    -0.504 OA
ATOM     40  H   UNL     1       4.489  -3.564   4.349  1.00  0.00     0.293 HD
ATOM     41 WAT  UNL     1       6.816  -5.580   2.878  1.00  0.00     0.000 W 
ATOM     42 WAT  UNL     1       3.695  -5.516   7.033  1.00  0.00     0.000 W 
ATOM     43 WAT  UNL     1       4.708  -1.580   4.483  1.00  0.00     0.000 W 
ENDBRANCH  34  39
ENDBRANCH  28  29
ENDBRANCH  23  27
ENDBRANCH   1  23
TORSDOF 10
ENDMDL
MODEL 6
REMARK VINA RESULT:    -6.571      2.063      6.084
REMARK INTER + INTRA:         -12.673
REMARK INTER:                  -9.554
REMARK INTRA:                  -3.118
REMARK CONF_INDEPENDENT:        2.983
REMARK UNBOUND:                -3.118
REMARK SMILES COc1cc(/C=C/C(=O)CC(=O)/C=C/c2ccc(O)c(OC)c2)ccc1O
REMARK SMILES IDX 10 1 8 2 9 3 7 6 6 7 5 8 3 9 4 10 26 11 25 12 24 13 2 14
REMARK SMILES IDX 1 15 27 18 11 23 12 24 13 27 14 28 15 29 23 30 16 31 20 32
REMARK SMILES IDX 17 33 18 34 21 35 22 36 19 39
REMARK H PARENT 27 19 19 40
REMARK Flexibility Score: inf
ROOT
ATOM      1  C   UNL     1      -1.296  -6.755  -2.201  1.00  0.00     0.160 C 
ENDROOT
BRANCH   1   2
ATOM      2  C   UNL     1      -1.545  -7.028  -0.731  1.00  0.00     0.163 C 
ATOM      3  O   UNL     1      -2.621  -7.442  -0.310  1.00  0.00    -0.294 OA
ATOM      4 WAT  UNL     1      -2.989  -7.946   2.626  1.00  0.00     0.000 W 
ATOM      5 WAT  UNL     1      -4.884  -7.950  -2.213  1.00  0.00     0.000 W 
BRANCH   2   6
ATOM      6  C   UNL     1      -0.379  -6.807   0.175  1.00  0.00     0.048 C 
ATOM      7  C   UNL     1      -0.456  -5.917   1.174  1.00  0.00     0.012 C 
BRANCH   7   8
ATOM      8  C   UNL     1       0.638  -5.617   2.114  1.00  0.00    -0.022 A 
ATOM      9  C   UNL     1       2.918  -5.911   2.804  1.00  0.00     0.161 A 
ATOM     10  C   UNL     1       1.882  -6.195   1.914  1.00  0.00     0.058 A 
ATOM     11  C   UNL     1       2.695  -5.056   3.883  1.00  0.00     0.157 A 
ATOM     12  C   UNL     1       1.438  -4.483   4.071  1.00  0.00     0.051 A 
ATOM     13  C   UNL     1       0.402  -4.766   3.180  1.00  0.00     0.012 A 
BRANCH   9  14
ATOM     14  O   UNL     1       4.142  -6.477   2.610  1.00  0.00    -0.493 OA
ATOM     15  C   UNL     1       4.511  -7.541   3.484  1.00  0.00     0.278 C 
ATOM     16 WAT  UNL     1       6.115  -4.286   3.165  1.00  0.00     0.000 W 
ATOM     17 WAT  UNL     1       4.006  -7.716  -0.118  1.00  0.00     0.000 W 
ENDBRANCH   9  14
BRANCH  11  18
ATOM     18  O   UNL     1       3.699  -4.771   4.758  1.00  0.00    -0.504 OA
ATOM     19  H   UNL     1       4.478  -5.299   4.514  1.00  0.00     0.293 HD
ATOM     20 WAT  UNL     1       2.805  -5.724   7.459  1.00  0.00     0.000 W 
ATOM     21 WAT  UNL     1       4.428  -1.889   4.351  1.00  0.00     0.000 W 
ATOM     22 WAT  UNL     1       6.080  -6.385   4.010  1.00  0.00     0.000 W 
ENDBRANCH  11  18
ENDBRANCH   7   8
ENDBRANCH   2   6
ENDBRANCH   1   2
BRANCH   1  23
ATOM     23  C   UNL     1      -1.846  -5.440  -2.720  1.00  0.00     0.163 C 
ATOM     24  O   UNL     1      -2.559  -5.370  -3.718  1.00  0.00    -0.294 OA
ATOM     25 WAT  UNL     1      -3.586  -2.708  -4.644  1.00  0.00     0.000 W 
ATOM     26 WAT  UNL     1      -3.275  -7.862  -5.227  1.00  0.00     0.000 W 
BRANCH  23  27
ATOM     27  C   UNL     1      -1.506  -4.232  -1.913  1.00  0.00     0.048 C 
ATOM     28  C   UNL     1      -0.232  -3.967  -1.591  1.00  0.00     0.012 C 
BRANCH  28  29
ATOM     29  C   UNL     1       0.207  -2.810  -0.792  1.00  0.00    -0.022 A 
ATOM     30  C   UNL     1      -0.453  -2.510   0.388  1.00  0.00     0.058 A 
ATOM     31  C   UNL     1       1.272  -2.043  -1.238  1.00  0.00     0.012 A 
ATOM     32  C   UNL     1      -0.038  -1.414   1.144  1.00  0.00     0.161 A 
ATOM     33  C   UNL     1       1.687  -0.946  -0.482  1.00  0.00     0.051 A 
ATOM     34  C   UNL     1       1.032  -0.632   0.709  1.00  0.00     0.157 A 
BRANCH  32  35
ATOM     35  O   UNL     1      -0.685  -1.117   2.306  1.00  0.00    -0.493 OA
ATOM     36  C   UNL     1      -2.111  -1.128   2.276  1.00  0.00     0.278 C 
ATOM     37 WAT  UNL     1       0.066   1.723   2.916  1.00  0.00     0.000 W 
ATOM     38 WAT  UNL     1       0.074  -3.311   4.208  1.00  0.00     0.000 W 
ENDBRANCH  32  35
BRANCH  34  39
ATOM     39  O   UNL     1       1.449   0.440   1.439  1.00  0.00    -0.504 OA
ATOM     40  H   UNL     1       0.790   0.628   2.129  1.00  0.00     0.293 HD
ATOM     41 WAT  UNL     1       1.471   2.800  -0.414  1.00  0.00     0.000 W 
ATOM     42 WAT  UNL     1       3.968  -0.389   2.842  1.00  0.00     0.000 W 
ATOM     43 WAT  UNL     1      -0.564   1.018   3.548  1.00  0.00     0.000 W 
ENDBRANCH  34  39
ENDBRANCH  28  29
ENDBRANCH  23  27
ENDBRANCH   1  23
TORSDOF 10
ENDMDL
MODEL 7
REMARK VINA RESULT:    -6.516      2.311      5.727
REMARK INTER + INTRA:         -12.834
REMARK INTER:                  -9.499
REMARK INTRA:                  -3.335
REMARK CONF_INDEPENDENT:        2.983
REMARK UNBOUND:                -3.335
REMARK SMILES COc1cc(/C=C/C(=O)CC(=O)/C=C/c2ccc(O)c(OC)c2)ccc1O
REMARK SMILES IDX 10 1 8 2 9 3 7 6 6 7 5 8 3 9 4 10 26 11 25 12 24 13 2 14
REMARK SMILES IDX 1 15 27 18 11 23 12 24 13 27 14 28 15 29 23 30 16 31 20 32
REMARK SMILES IDX 17 33 18 34 21 35 22 36 19 39
REMARK H PARENT 27 19 19 40
REMARK Flexibility Score: inf
ROOT
ATOM      1  C   UNL     1      -1.181  -6.713  -2.093  1.00  0.00     0.160 C 
ENDROOT
BRANCH   1   2
ATOM      2  C   UNL     1      -1.244  -6.908  -0.591  1.00  0.00     0.163 C 
ATOM      3  O   UNL     1      -2.253  -7.310  -0.019  1.00  0.00    -0.294 OA
ATOM      4 WAT  UNL     1      -2.251  -7.656   2.961  1.00  0.00     0.000 W 
ATOM      5 WAT  UNL     1      -4.720  -7.949  -1.602  1.00  0.00     0.000 W 
BRANCH   2   6
ATOM      6  C   UNL     1       0.020  -6.624   0.152  1.00  0.00     0.048 C 
ATOM      7  C   UNL     1       0.003  -5.850   1.246  1.00  0.00     0.012 C 
BRANCH   7   8
ATOM      8  C   UNL     1       1.193  -5.501   2.042  1.00  0.00    -0.022 A 
ATOM      9  C   UNL     1       2.813  -3.877   2.747  1.00  0.00     0.161 A 
ATOM     10  C   UNL     1       1.686  -4.206   1.993  1.00  0.00     0.058 A 
ATOM     11  C   UNL     1       3.431  -4.845   3.537  1.00  0.00     0.157 A 
ATOM     12  C   UNL     1       2.923  -6.143   3.576  1.00  0.00     0.051 A 
ATOM     13  C   UNL     1       1.796  -6.473   2.823  1.00  0.00     0.012 A 
BRANCH   9  14
ATOM     14  O   UNL     1       3.300  -2.605   2.701  1.00  0.00    -0.493 OA
ATOM     15  C   UNL     1       3.890  -2.180   1.475  1.00  0.00     0.278 C 
ATOM     16 WAT  UNL     1       5.532  -2.548   4.706  1.00  0.00     0.000 W 
ATOM     17 WAT  UNL     1       0.906  -0.837   3.073  1.00  0.00     0.000 W 
ENDBRANCH   9  14
BRANCH  11  18
ATOM     18  O   UNL     1       4.531  -4.534   4.278  1.00  0.00    -0.504 OA
ATOM     19  H   UNL     1       4.763  -3.605   4.108  1.00  0.00     0.293 HD
ATOM     20 WAT  UNL     1       6.794  -6.206   3.234  1.00  0.00     0.000 W 
ATOM     21 WAT  UNL     1       3.731  -4.728   7.164  1.00  0.00     0.000 W 
ATOM     22 WAT  UNL     1       5.237  -1.694   3.759  1.00  0.00     0.000 W 
ENDBRANCH  11  18
ENDBRANCH   7   8
ENDBRANCH   2   6
ENDBRANCH   1   2
BRANCH   1  23
ATOM     23  C   UNL     1      -1.807  -5.432  -2.609  1.00  0.00     0.163 C 
ATOM     24  O   UNL     1      -2.526  -5.403  -3.605  1.00  0.00    -0.294 OA
ATOM     25 WAT  UNL     1      -3.709  -2.804  -4.526  1.00  0.00     0.000 W 
ATOM     26 WAT  UNL     1      -3.101  -7.932  -5.114  1.00  0.00     0.000 W 
BRANCH  23  27
ATOM     27  C   UNL     1      -1.535  -4.206  -1.802  1.00  0.00     0.048 C 
ATOM     28  C   UNL     1      -0.275  -3.842  -1.525  1.00  0.00     0.012 C 
BRANCH  28  29
ATOM     29  C   UNL     1       0.099  -2.660  -0.730  1.00  0.00    -0.022 A 
ATOM     30  C   UNL     1      -0.658  -2.320   0.379  1.00  0.00     0.058 A 
ATOM     31  C   UNL     1       1.201  -1.909  -1.109  1.00  0.00     0.012 A 
ATOM     32  C   UNL     1      -0.304  -1.199   1.131  1.00  0.00     0.161 A 
ATOM     33  C   UNL     1       1.555  -0.789  -0.357  1.00  0.00     0.051 A 
ATOM     34  C   UNL     1       0.802  -0.434   0.762  1.00  0.00     0.157 A 
BRANCH  32  35
ATOM     35  O   UNL     1      -1.045  -0.863   2.223  1.00  0.00    -0.493 OA
ATOM     36  C   UNL     1      -1.544  -1.934   3.022  1.00  0.00     0.278 C 
ATOM     37 WAT  UNL     1      -3.483   0.497   1.125  1.00  0.00     0.000 W 
ATOM     38 WAT  UNL     1       0.834   0.642   4.014  1.00  0.00     0.000 W 
ENDBRANCH  32  35
BRANCH  34  39
ATOM     39  O   UNL     1       1.160   0.661   1.489  1.00  0.00    -0.504 OA
ATOM     40  H   UNL     1       0.724   0.622   2.357  1.00  0.00     0.293 HD
ATOM     41 WAT  UNL     1       0.048   3.055   0.062  1.00  0.00     0.000 W 
ATOM     42 WAT  UNL     1       4.112   0.449   1.987  1.00  0.00     0.000 W 
ATOM     43 WAT  UNL     1      -0.173   0.542   4.143  1.00  0.00     0.000 W 
ENDBRANCH  34  39
ENDBRANCH  28  29
ENDBRANCH  23  27
ENDBRANCH   1  23
TORSDOF 10
ENDMDL
MODEL 8
REMARK VINA RESULT:    -6.408      2.696      6.281
REMARK INTER + INTRA:         -12.690
REMARK INTER:                  -9.391
REMARK INTRA:                  -3.299
REMARK CONF_INDEPENDENT:        2.983
REMARK UNBOUND:                -3.299
REMARK SMILES COc1cc(/C=C/C(=O)CC(=O)/C=C/c2ccc(O)c(OC)c2)ccc1O
REMARK SMILES IDX 10 1 8 2 9 3 7 6 6 7 5 8 3 9 4 10 26 11 25 12 24 13 2 14
REMARK SMILES IDX 1 15 27 18 11 23 12 24 13 27 14 28 15 29 23 30 16 31 20 32
REMARK SMILES IDX 17 33 18 34 21 35 22 36 19 39
REMARK H PARENT 27 19 19 40
REMARK Flexibility Score: inf
ROOT
ATOM      1  C   UNL     1      -1.167  -6.707  -2.064  1.00  0.00     0.160 C 
ENDROOT
BRANCH   1   2
ATOM      2  C   UNL     1      -1.256  -6.992  -0.578  1.00  0.00     0.163 C 
ATOM      3  O   UNL     1      -2.276  -7.422  -0.048  1.00  0.00    -0.294 OA
ATOM      4 WAT  UNL     1      -2.326  -7.949   2.906  1.00  0.00     0.000 W 
ATOM      5 WAT  UNL     1      -4.720  -7.949  -1.707  1.00  0.00     0.000 W 
BRANCH   2   6
ATOM      6  C   UNL     1      -0.004  -6.761   0.203  1.00  0.00     0.048 C 
ATOM      7  C   UNL     1      -0.015  -5.968   1.282  1.00  0.00     0.012 C 
BRANCH   7   8
ATOM      8  C   UNL     1       1.166  -5.667   2.112  1.00  0.00    -0.022 A 
ATOM      9  C   UNL     1       2.827  -4.108   2.867  1.00  0.00     0.161 A 
ATOM     10  C   UNL     1       1.709  -4.392   2.082  1.00  0.00     0.058 A 
ATOM     11  C   UNL     1       3.386  -5.102   3.669  1.00  0.00     0.157 A 
ATOM     12  C   UNL     1       2.829  -6.381   3.688  1.00  0.00     0.051 A 
ATOM     13  C   UNL     1       1.710  -6.665   2.903  1.00  0.00     0.012 A 
BRANCH   9  14
ATOM     14  O   UNL     1       3.363  -2.856   2.841  1.00  0.00    -0.493 OA
ATOM     15  C   UNL     1       2.539  -1.787   3.302  1.00  0.00     0.278 C 
ATOM     16 WAT  UNL     1       3.851  -2.273  -0.061  1.00  0.00     0.000 W 
ATOM     17 WAT  UNL     1       5.667  -2.952   4.759  1.00  0.00     0.000 W 
ENDBRANCH   9  14
BRANCH  11  18
ATOM     18  O   UNL     1       4.477  -4.837   4.440  1.00  0.00    -0.504 OA
ATOM     19  H   UNL     1       4.730  -3.908   4.303  1.00  0.00     0.293 HD
ATOM     20 WAT  UNL     1       6.727  -6.522   3.390  1.00  0.00     0.000 W 
ATOM     21 WAT  UNL     1       3.615  -5.101   7.302  1.00  0.00     0.000 W 
ATOM     22 WAT  UNL     1       5.249  -1.997   4.022  1.00  0.00     0.000 W 
ENDBRANCH  11  18
ENDBRANCH   7   8
ENDBRANCH   2   6
ENDBRANCH   1   2
BRANCH   1  23
ATOM     23  C   UNL     1      -1.801  -5.405  -2.514  1.00  0.00     0.163 C 
ATOM     24  O   UNL     1      -2.586  -5.344  -3.458  1.00  0.00    -0.294 OA
ATOM     25 WAT  UNL     1      -3.775  -2.707  -4.253  1.00  0.00     0.000 W 
ATOM     26 WAT  UNL     1      -3.315  -7.834  -4.963  1.00  0.00     0.000 W 
BRANCH  23  27
ATOM     27  C   UNL     1      -1.448  -4.199  -1.709  1.00  0.00     0.048 C 
ATOM     28  C   UNL     1      -0.165  -3.869  -1.507  1.00  0.00     0.012 C 
BRANCH  28  29
ATOM     29  C   UNL     1       0.288  -2.708  -0.720  1.00  0.00    -0.022 A 
ATOM     30  C   UNL     1       1.481  -2.087  -1.051  1.00  0.00     0.058 A 
ATOM     31  C   UNL     1      -0.490  -2.260   0.336  1.00  0.00     0.012 A 
ATOM     32  C   UNL     1       1.909  -0.989  -0.306  1.00  0.00     0.161 A 
ATOM     33  C   UNL     1      -0.062  -1.162   1.081  1.00  0.00     0.051 A 
ATOM     34  C   UNL     1       1.138  -0.526   0.760  1.00  0.00     0.157 A 
BRANCH  32  35
ATOM     35  O   UNL     1       3.081  -0.375  -0.629  1.00  0.00    -0.493 OA
ATOM     36  C   UNL     1       3.959  -1.076  -1.510  1.00  0.00     0.278 C 
ATOM     37 WAT  UNL     1       4.584  -0.146   1.957  1.00  0.00     0.000 W 
ATOM     38 WAT  UNL     1       2.284   2.101  -2.125  1.00  0.00     0.000 W 
ENDBRANCH  32  35
BRANCH  34  39
ATOM     39  O   UNL     1       1.544   0.547   1.495  1.00  0.00    -0.504 OA
ATOM     40  H   UNL     1       2.341   0.926   1.087  1.00  0.00     0.293 HD
ATOM     41 WAT  UNL     1       2.352  -0.497   4.189  1.00  0.00     0.000 W 
ATOM     42 WAT  UNL     1      -0.616   2.619   1.275  1.00  0.00     0.000 W 
ATOM     43 WAT  UNL     1       3.982   1.707   0.251  1.00  0.00     0.000 W 
ENDBRANCH  34  39
ENDBRANCH  28  29
ENDBRANCH  23  27
ENDBRANCH   1  23
TORSDOF 10
ENDMDL
MODEL 9
REMARK VINA RESULT:    -6.316      2.611      4.027
REMARK INTER + INTRA:         -12.639
REMARK INTER:                  -9.299
REMARK INTRA:                  -3.340
REMARK CONF_INDEPENDENT:        2.983
REMARK UNBOUND:                -3.340
REMARK SMILES COc1cc(/C=C/C(=O)CC(=O)/C=C/c2ccc(O)c(OC)c2)ccc1O
REMARK SMILES IDX 10 1 8 2 9 3 7 6 6 7 5 8 3 9 4 10 26 11 25 12 24 13 2 14
REMARK SMILES IDX 1 15 27 18 11 23 12 24 13 27 14 28 15 29 23 30 16 31 20 32
REMARK SMILES IDX 17 33 18 34 21 35 22 36 19 39
REMARK H PARENT 27 19 19 40
REMARK Flexibility Score: inf
ROOT
ATOM      1  C   UNL     1      -1.305  -6.582  -2.051  1.00  0.00     0.160 C 
ENDROOT
BRANCH   1   2
ATOM      2  C   UNL     1      -1.865  -5.234  -2.458  1.00  0.00     0.163 C 
ATOM      3  O   UNL     1      -2.606  -5.092  -3.427  1.00  0.00    -0.294 OA
ATOM      4 WAT  UNL     1      -3.653  -2.369  -4.130  1.00  0.00     0.000 W 
ATOM      5 WAT  UNL     1      -3.368  -7.468  -5.092  1.00  0.00     0.000 W 
BRANCH   2   6
ATOM      6  C   UNL     1      -1.499  -4.086  -1.575  1.00  0.00     0.048 C 
ATOM      7  C   UNL     1      -0.233  -3.651  -1.520  1.00  0.00     0.012 C 
BRANCH   7   8
ATOM      8  C   UNL     1       0.233  -2.537  -0.675  1.00  0.00    -0.022 A 
ATOM      9  C   UNL     1       1.949  -0.974  -0.065  1.00  0.00     0.161 A 
ATOM     10  C   UNL     1       1.508  -2.028  -0.866  1.00  0.00     0.058 A 
ATOM     11  C   UNL     1       1.110  -0.445   0.915  1.00  0.00     0.157 A 
ATOM     12  C   UNL     1      -0.170  -0.968   1.095  1.00  0.00     0.051 A 
ATOM     13  C   UNL     1      -0.612  -2.022   0.294  1.00  0.00     0.012 A 
BRANCH   9  14
ATOM     14  O   UNL     1       3.201  -0.471  -0.251  1.00  0.00    -0.493 OA
ATOM     15  C   UNL     1       4.151  -1.316  -0.896  1.00  0.00     0.278 C 
ATOM     16 WAT  UNL     1       4.289  -0.038   2.512  1.00  0.00     0.000 W 
ATOM     17 WAT  UNL     1       2.842   1.861  -2.103  1.00  0.00     0.000 W 
ENDBRANCH   9  14
BRANCH  11  18
ATOM     18  O   UNL     1       1.529   0.585   1.701  1.00  0.00    -0.504 OA
ATOM     19  H   UNL     1       2.439   0.815   1.446  1.00  0.00     0.293 HD
ATOM     20 WAT  UNL     1       1.641  -0.449   4.516  1.00  0.00     0.000 W 
ATOM     21 WAT  UNL     1      -0.193   2.953   1.041  1.00  0.00     0.000 W 
ATOM     22 WAT  UNL     1       4.310   1.287   0.921  1.00  0.00     0.000 W 
ENDBRANCH  11  18
ENDBRANCH   7   8
ENDBRANCH   2   6
ENDBRANCH   1   2
BRANCH   1  23
ATOM     23  C   UNL     1      -1.402  -6.906  -0.572  1.00  0.00     0.163 C 
ATOM     24  O   UNL     1      -2.428  -7.346  -0.059  1.00  0.00    -0.294 OA
ATOM     25 WAT  UNL     1      -2.494  -7.950   2.879  1.00  0.00     0.000 W 
ATOM     26 WAT  UNL     1      -4.864  -7.819  -1.744  1.00  0.00     0.000 W 
BRANCH  23  27
ATOM     27  C   UNL     1      -0.153  -6.702   0.220  1.00  0.00     0.048 C 
ATOM     28  C   UNL     1      -0.041  -5.657   1.052  1.00  0.00     0.012 C 
BRANCH  28  29
ATOM     29  C   UNL     1       1.149  -5.361   1.868  1.00  0.00    -0.022 A 
ATOM     30  C   UNL     1       1.438  -4.046   2.196  1.00  0.00     0.058 A 
ATOM     31  C   UNL     1       1.958  -6.404   2.291  1.00  0.00     0.012 A 
ATOM     32  C   UNL     1       2.566  -3.766   2.968  1.00  0.00     0.161 A 
ATOM     33  C   UNL     1       3.086  -6.124   3.063  1.00  0.00     0.051 A 
ATOM     34  C   UNL     1       3.389  -4.805   3.401  1.00  0.00     0.157 A 
BRANCH  32  35
ATOM     35  O   UNL     1       2.851  -2.475   3.293  1.00  0.00    -0.493 OA
ATOM     36  C   UNL     1       4.055  -1.923   2.763  1.00  0.00     0.278 C 
ATOM     37 WAT  UNL     1       3.238  -2.485   6.268  1.00  0.00     0.000 W 
ATOM     38 WAT  UNL     1       0.642  -0.852   2.073  1.00  0.00     0.000 W 
ENDBRANCH  32  35
BRANCH  34  39
ATOM     39  O   UNL     1       4.492  -4.545   4.157  1.00  0.00    -0.504 OA
ATOM     40  H   UNL     1       4.651  -3.586   4.166  1.00  0.00     0.293 HD
ATOM     41 WAT  UNL     1       6.827  -5.803   2.754  1.00  0.00     0.000 W 
ATOM     42 WAT  UNL     1       3.826  -5.345   6.972  1.00  0.00     0.000 W 
ATOM     43 WAT  UNL     1       4.980  -1.613   4.185  1.00  0.00     0.000 W 
ENDBRANCH  34  39
ENDBRANCH  28  29
ENDBRANCH  23  27
ENDBRANCH   1  23
TORSDOF 10
ENDMDL
