MODEL 1
REMARK VINA RESULT:      -9.2      0.000      0.000
REMARK  Name = 5280637
REMARK                            x       y       z     vdW  Elec       q    Type
REMARK                         _______ _______ _______ _____ _____    ______ ____
ROOT
ATOM     13  C   LIG    1      180.434 182.062 129.313  0.00  0.00    +0.131 A 
ATOM     14  C   LIG    1      181.233 183.034 129.914  0.00  0.00    +0.092 A 
ATOM     15  C   LIG    1      180.653 184.182 130.455  0.00  0.00    +0.135 A 
ATOM     16  C   LIG    1      179.268 184.350 130.390  0.00  0.00    +0.105 A 
ATOM     17  C   LIG    1      178.628 185.550 130.950  0.00  0.00    +0.197 A 
ATOM     18  C   LIG    1      177.157 185.623 130.827  0.00  0.00    +0.098 A 
ATOM     19  C   LIG    1      176.497 184.618 130.231  0.00  0.00    +0.139 A 
ATOM     30  O   LIG    1      177.104 183.491 129.697  0.00  0.00    -0.454 OA
ATOM     31  O   LIG    1      179.269 186.442 131.487  0.00  0.00    -0.287 OA
ATOM     32  C   LIG    1      178.468 183.378 129.790  0.00  0.00    +0.146 A 
ATOM     35  C   LIG    1      179.050 182.232 129.249  0.00  0.00    +0.093 A 
ENDROOT
BRANCH  19  20
ATOM     20  C   LIG    1      175.028 184.640 130.072  0.00  0.00    +0.021 A 
ATOM     21  C   LIG    1      174.445 185.383 129.044  0.00  0.00    +0.015 A 
ATOM     22  C   LIG    1      173.058 185.405 128.895  0.00  0.00    +0.050 A 
ATOM     23  C   LIG    1      172.251 184.682 129.774  0.00  0.00    +0.158 A 
ATOM     24  C   LIG    1      172.831 183.939 130.803  0.00  0.00    +0.159 A 
ATOM     29  C   LIG    1      174.217 183.918 130.951  0.00  0.00    +0.060 A 
BRANCH  24  25
ATOM     25  O   LIG    1      172.051 183.229 131.665  0.00  0.00    -0.503 OA
ATOM     26  H   LIG    1      171.820 182.384 131.244  0.00  0.00    +0.292 HD
ENDBRANCH  24  25
BRANCH  23  27
ATOM     27  O   LIG    1      170.898 184.712 129.618  0.00  0.00    -0.503 OA
ATOM     28  H   LIG    1      170.629 183.981 129.035  0.00  0.00    +0.292 HD
ENDBRANCH  23  27
ENDBRANCH  19  20
BRANCH  15  33
ATOM     33  O   LIG    1      181.476 185.102 131.030  0.00  0.00    -0.506 OA
ATOM     34  H   LIG    1      181.641 185.839 130.423  0.00  0.00    +0.292 HD
ENDBRANCH  15  33
BRANCH  13  12
ATOM     12  O   LIG    1      181.006 180.941 128.785  0.00  0.00    -0.461 OA
BRANCH  12   2
ATOM      1  O   LIG    1      181.015 181.378 126.493  0.00  0.00    -0.331 OA
ATOM      2  C   LIG    1      181.830 181.127 127.635  0.00  0.00    +0.339 C 
ATOM      3  C   LIG    1      182.653 179.853 127.437  0.00  0.00    +0.214 C 
ATOM      4  C   LIG    1      183.457 179.908 126.137  0.00  0.00    +0.180 C 
ATOM      5  C   LIG    1      182.579 180.338 124.961  0.00  0.00    +0.177 C 
ATOM     36  C   LIG    1      181.784 181.598 125.309  0.00  0.00    +0.179 C 
BRANCH   5   6
ATOM      6  O   LIG    1      183.403 180.598 123.828  0.00  0.00    -0.386 OA
ATOM      7  H   LIG    1      183.158 179.968 123.128  0.00  0.00    +0.210 HD
ENDBRANCH   5   6
BRANCH   4   8
ATOM      8  O   LIG    1      183.980 178.610 125.847  0.00  0.00    -0.386 OA
ATOM      9  H   LIG    1      184.041 178.127 126.689  0.00  0.00    +0.210 HD
ENDBRANCH   4   8
BRANCH   3  10
ATOM     10  O   LIG    1      183.548 179.721 128.541  0.00  0.00    -0.383 OA
ATOM     11  H   LIG    1      184.450 179.896 128.221  0.00  0.00    +0.210 HD
ENDBRANCH   3  10
BRANCH  36  37
ATOM     37  C   LIG    1      180.814 181.979 124.195  0.00  0.00    +0.190 C 
BRANCH  37  38
ATOM     38  O   LIG    1      180.482 180.811 123.468  0.00  0.00    -0.392 OA
ATOM     39  H   LIG    1      180.724 180.963 122.538  0.00  0.00    +0.210 HD
ENDBRANCH  37  38
ENDBRANCH  36  37
ENDBRANCH  12   2
ENDBRANCH  13  12
TORSDOF 11
ENDMDL
MODEL 2
REMARK VINA RESULT:      -9.0      2.041      3.006
REMARK  Name = 5280637
REMARK                            x       y       z     vdW  Elec       q    Type
REMARK                         _______ _______ _______ _____ _____    ______ ____
ROOT
ATOM     13  C   LIG    1      180.443 182.383 128.487  0.00  0.00    +0.131 A 
ATOM     14  C   LIG    1      181.251 183.259 129.212  0.00  0.00    +0.092 A 
ATOM     15  C   LIG    1      180.676 184.284 129.964  0.00  0.00    +0.135 A 
ATOM     16  C   LIG    1      179.287 184.426 129.986  0.00  0.00    +0.105 A 
ATOM     17  C   LIG    1      178.651 185.498 130.768  0.00  0.00    +0.197 A 
ATOM     18  C   LIG    1      177.176 185.553 130.720  0.00  0.00    +0.098 A 
ATOM     19  C   LIG    1      176.507 184.647 129.989  0.00  0.00    +0.139 A 
ATOM     30  O   LIG    1      177.109 183.644 129.247  0.00  0.00    -0.454 OA
ATOM     31  O   LIG    1      179.300 186.302 131.422  0.00  0.00    -0.287 OA
ATOM     32  C   LIG    1      178.478 183.551 129.262  0.00  0.00    +0.146 A 
ATOM     35  C   LIG    1      179.055 182.528 128.511  0.00  0.00    +0.093 A 
ENDROOT
BRANCH  19  20
ATOM     20  C   LIG    1      175.032 184.659 129.897  0.00  0.00    +0.021 A 
ATOM     21  C   LIG    1      174.400 185.360 128.868  0.00  0.00    +0.015 A 
ATOM     22  C   LIG    1      173.008 185.372 128.782  0.00  0.00    +0.050 A 
ATOM     23  C   LIG    1      172.244 184.683 129.724  0.00  0.00    +0.158 A 
ATOM     24  C   LIG    1      172.874 183.983 130.754  0.00  0.00    +0.159 A 
ATOM     29  C   LIG    1      174.266 183.971 130.840  0.00  0.00    +0.060 A 
BRANCH  24  25
ATOM     25  O   LIG    1      172.137 183.306 131.679  0.00  0.00    -0.503 OA
ATOM     26  H   LIG    1      171.472 183.913 132.045  0.00  0.00    +0.292 HD
ENDBRANCH  24  25
BRANCH  23  27
ATOM     27  O   LIG    1      170.886 184.703 129.630  0.00  0.00    -0.503 OA
ATOM     28  H   LIG    1      170.612 185.518 129.174  0.00  0.00    +0.292 HD
ENDBRANCH  23  27
ENDBRANCH  19  20
BRANCH  15  33
ATOM     33  O   LIG    1      181.508 185.114 130.654  0.00  0.00    -0.506 OA
ATOM     34  H   LIG    1      182.003 185.682 130.045  0.00  0.00    +0.292 HD
ENDBRANCH  15  33
BRANCH  13  12
ATOM     12  O   LIG    1      181.011 181.383 127.753  0.00  0.00    -0.461 OA
BRANCH  12   2
ATOM      1  O   LIG    1      180.384 179.429 128.862  0.00  0.00    -0.331 OA
ATOM      2  C   LIG    1      180.270 180.168 127.649  0.00  0.00    +0.339 C 
ATOM      3  C   LIG    1      180.841 179.368 126.478  0.00  0.00    +0.214 C 
ATOM      4  C   LIG    1      180.202 177.982 126.388  0.00  0.00    +0.180 C 
ATOM      5  C   LIG    1      180.200 177.284 127.748  0.00  0.00    +0.177 C 
ATOM     36  C   LIG    1      179.641 178.208 128.832  0.00  0.00    +0.179 C 
BRANCH   5   6
ATOM      6  O   LIG    1      179.399 176.107 127.673  0.00  0.00    -0.386 OA
ATOM      7  H   LIG    1      178.474 176.381 127.547  0.00  0.00    +0.210 HD
ENDBRANCH   5   6
BRANCH   4   8
ATOM      8  O   LIG    1      180.948 177.173 125.477  0.00  0.00    -0.386 OA
ATOM      9  H   LIG    1      181.528 176.599 126.006  0.00  0.00    +0.210 HD
ENDBRANCH   4   8
BRANCH   3  10
ATOM     10  O   LIG    1      180.580 180.088 125.274  0.00  0.00    -0.383 OA
ATOM     11  H   LIG    1      179.916 180.772 125.469  0.00  0.00    +0.210 HD
ENDBRANCH   3  10
BRANCH  36  37
ATOM     37  C   LIG    1      179.737 177.577 130.217  0.00  0.00    +0.190 C 
BRANCH  37  38
ATOM     38  O   LIG    1      180.966 176.879 130.310  0.00  0.00    -0.392 OA
ATOM     39  H   LIG    1      181.563 177.241 129.632  0.00  0.00    +0.210 HD
ENDBRANCH  37  38
ENDBRANCH  36  37
ENDBRANCH  12   2
ENDBRANCH  13  12
TORSDOF 11
ENDMDL
MODEL 3
REMARK VINA RESULT:      -8.9     13.103     17.171
REMARK  Name = 5280637
REMARK                            x       y       z     vdW  Elec       q    Type
REMARK                         _______ _______ _______ _____ _____    ______ ____
ROOT
ATOM     13  C   LIG    1      170.812 177.829 137.806  0.00  0.00    +0.131 A 
ATOM     14  C   LIG    1      171.277 177.059 136.740  0.00  0.00    +0.092 A 
ATOM     15  C   LIG    1      172.223 176.056 136.958  0.00  0.00    +0.135 A 
ATOM     16  C   LIG    1      172.699 175.829 138.251  0.00  0.00    +0.105 A 
ATOM     17  C   LIG    1      173.697 174.780 138.513  0.00  0.00    +0.197 A 
ATOM     18  C   LIG    1      174.128 174.626 139.917  0.00  0.00    +0.098 A 
ATOM     19  C   LIG    1      173.602 175.424 140.859  0.00  0.00    +0.139 A 
ATOM     30  O   LIG    1      172.667 176.417 140.608  0.00  0.00    -0.454 OA
ATOM     31  O   LIG    1      174.149 174.072 137.624  0.00  0.00    -0.287 OA
ATOM     32  C   LIG    1      172.234 176.597 139.318  0.00  0.00    +0.146 A 
ATOM     35  C   LIG    1      171.290 177.599 139.097  0.00  0.00    +0.093 A 
ENDROOT
BRANCH  19  20
ATOM     20  C   LIG    1      174.002 175.322 142.277  0.00  0.00    +0.021 A 
ATOM     21  C   LIG    1      173.122 175.724 143.284  0.00  0.00    +0.015 A 
ATOM     22  C   LIG    1      173.500 175.628 144.624  0.00  0.00    +0.050 A 
ATOM     23  C   LIG    1      174.759 175.128 144.959  0.00  0.00    +0.158 A 
ATOM     24  C   LIG    1      175.639 174.726 143.955  0.00  0.00    +0.159 A 
ATOM     29  C   LIG    1      175.261 174.822 142.616  0.00  0.00    +0.060 A 
BRANCH  24  25
ATOM     25  O   LIG    1      176.871 174.235 144.272  0.00  0.00    -0.503 OA
ATOM     26  H   LIG    1      177.130 174.596 145.136  0.00  0.00    +0.292 HD
ENDBRANCH  24  25
BRANCH  23  27
ATOM     27  O   LIG    1      175.117 175.040 146.270  0.00  0.00    -0.503 OA
ATOM     28  H   LIG    1      174.908 174.148 146.597  0.00  0.00    +0.292 HD
ENDBRANCH  23  27
ENDBRANCH  19  20
BRANCH  15  33
ATOM     33  O   LIG    1      172.646 175.333 135.884  0.00  0.00    -0.506 OA
ATOM     34  H   LIG    1      172.103 174.539 135.773  0.00  0.00    +0.292 HD
ENDBRANCH  15  33
BRANCH  13  12
ATOM     12  O   LIG    1      169.888 178.808 137.587  0.00  0.00    -0.461 OA
BRANCH  12   2
ATOM      1  O   LIG    1      168.380 177.291 138.518  0.00  0.00    -0.331 OA
ATOM      2  C   LIG    1      168.639 178.669 138.262  0.00  0.00    +0.339 C 
ATOM      3  C   LIG    1      167.552 179.262 137.364  0.00  0.00    +0.214 C 
ATOM      4  C   LIG    1      166.158 179.020 137.945  0.00  0.00    +0.180 C 
ATOM      5  C   LIG    1      165.976 177.559 138.356  0.00  0.00    +0.177 C 
ATOM     36  C   LIG    1      167.150 177.086 139.216  0.00  0.00    +0.179 C 
BRANCH   5   6
ATOM      6  O   LIG    1      164.765 177.425 139.096  0.00  0.00    -0.386 OA
ATOM      7  H   LIG    1      164.250 176.702 138.699  0.00  0.00    +0.210 HD
ENDBRANCH   5   6
BRANCH   4   8
ATOM      8  O   LIG    1      165.172 179.328 136.958  0.00  0.00    -0.386 OA
ATOM      9  H   LIG    1      164.740 180.157 137.229  0.00  0.00    +0.210 HD
ENDBRANCH   4   8
BRANCH   3  10
ATOM     10  O   LIG    1      167.780 180.666 137.250  0.00  0.00    -0.383 OA
ATOM     11  H   LIG    1      167.050 181.127 137.698  0.00  0.00    +0.210 HD
ENDBRANCH   3  10
BRANCH  36  37
ATOM     37  C   LIG    1      167.049 175.599 139.541  0.00  0.00    +0.190 C 
BRANCH  37  38
ATOM     38  O   LIG    1      168.235 175.200 140.203  0.00  0.00    -0.392 OA
ATOM     39  H   LIG    1      168.377 175.810 140.948  0.00  0.00    +0.210 HD
ENDBRANCH  37  38
ENDBRANCH  36  37
ENDBRANCH  12   2
ENDBRANCH  13  12
TORSDOF 11
ENDMDL
MODEL 4
REMARK VINA RESULT:      -8.7      2.150      3.161
REMARK  Name = 5280637
REMARK                            x       y       z     vdW  Elec       q    Type
REMARK                         _______ _______ _______ _____ _____    ______ ____
ROOT
ATOM     13  C   LIG    1      180.987 182.722 127.857  0.00  0.00    +0.131 A 
ATOM     14  C   LIG    1      181.028 183.769 126.936  0.00  0.00    +0.092 A 
ATOM     15  C   LIG    1      180.015 184.728 126.919  0.00  0.00    +0.135 A 
ATOM     16  C   LIG    1      178.959 184.632 127.828  0.00  0.00    +0.105 A 
ATOM     17  C   LIG    1      177.876 185.626 127.833  0.00  0.00    +0.197 A 
ATOM     18  C   LIG    1      176.812 185.428 128.839  0.00  0.00    +0.098 A 
ATOM     19  C   LIG    1      176.887 184.382 129.677  0.00  0.00    +0.139 A 
ATOM     30  O   LIG    1      177.905 183.442 129.665  0.00  0.00    -0.454 OA
ATOM     31  O   LIG    1      177.848 186.567 127.052  0.00  0.00    -0.287 OA
ATOM     32  C   LIG    1      178.917 183.586 128.750  0.00  0.00    +0.146 A 
ATOM     35  C   LIG    1      179.931 182.629 128.765  0.00  0.00    +0.093 A 
ENDROOT
BRANCH  19  20
ATOM     20  C   LIG    1      175.848 184.128 130.697  0.00  0.00    +0.021 A 
ATOM     21  C   LIG    1      176.212 183.898 132.025  0.00  0.00    +0.015 A 
ATOM     22  C   LIG    1      175.231 183.658 132.988  0.00  0.00    +0.050 A 
ATOM     23  C   LIG    1      173.884 183.647 132.625  0.00  0.00    +0.158 A 
ATOM     24  C   LIG    1      173.519 183.876 131.298  0.00  0.00    +0.159 A 
ATOM     29  C   LIG    1      174.499 184.116 130.335  0.00  0.00    +0.060 A 
BRANCH  24  25
ATOM     25  O   LIG    1      172.206 183.869 130.932  0.00  0.00    -0.503 OA
ATOM     26  H   LIG    1      172.155 184.003 129.971  0.00  0.00    +0.292 HD
ENDBRANCH  24  25
BRANCH  23  27
ATOM     27  O   LIG    1      172.937 183.410 133.574  0.00  0.00    -0.503 OA
ATOM     28  H   LIG    1      172.135 183.916 133.355  0.00  0.00    +0.292 HD
ENDBRANCH  23  27
ENDBRANCH  19  20
BRANCH  15  33
ATOM     33  O   LIG    1      180.101 185.730 126.000  0.00  0.00    -0.506 OA
ATOM     34  H   LIG    1      181.024 185.991 125.866  0.00  0.00    +0.292 HD
ENDBRANCH  15  33
BRANCH  13  12
ATOM     12  O   LIG    1      181.980 181.787 127.870  0.00  0.00    -0.461 OA
BRANCH  12   2
ATOM      1  O   LIG    1      181.537 179.499 127.766  0.00  0.00    -0.331 OA
ATOM      2  C   LIG    1      181.815 180.668 127.000  0.00  0.00    +0.339 C 
ATOM      3  C   LIG    1      183.110 180.495 126.207  0.00  0.00    +0.214 C 
ATOM      4  C   LIG    1      183.075 179.224 125.356  0.00  0.00    +0.180 C 
ATOM      5  C   LIG    1      182.617 178.020 126.178  0.00  0.00    +0.177 C 
ATOM     36  C   LIG    1      181.335 178.344 126.949  0.00  0.00    +0.179 C 
BRANCH   5   6
ATOM      6  O   LIG    1      182.377 176.918 125.307  0.00  0.00    -0.386 OA
ATOM      7  H   LIG    1      183.204 176.723 124.835  0.00  0.00    +0.210 HD
ENDBRANCH   5   6
BRANCH   4   8
ATOM      8  O   LIG    1      184.385 178.949 124.858  0.00  0.00    -0.386 OA
ATOM      9  H   LIG    1      184.360 179.065 123.893  0.00  0.00    +0.210 HD
ENDBRANCH   4   8
BRANCH   3  10
ATOM     10  O   LIG    1      183.270 181.630 125.356  0.00  0.00    -0.383 OA
ATOM     11  H   LIG    1      182.736 182.357 125.720  0.00  0.00    +0.210 HD
ENDBRANCH   3  10
BRANCH  36  37
ATOM     37  C   LIG    1      180.924 177.197 127.868  0.00  0.00    +0.190 C 
BRANCH  37  38
ATOM     38  O   LIG    1      181.253 177.547 129.200  0.00  0.00    -0.392 OA
ATOM     39  H   LIG    1      181.758 176.809 129.583  0.00  0.00    +0.210 HD
ENDBRANCH  37  38
ENDBRANCH  36  37
ENDBRANCH  12   2
ENDBRANCH  13  12
TORSDOF 11
ENDMDL
MODEL 5
REMARK VINA RESULT:      -8.6     42.298     45.854
REMARK  Name = 5280637
REMARK                            x       y       z     vdW  Elec       q    Type
REMARK                         _______ _______ _______ _____ _____    ______ ____
ROOT
ATOM     13  C   LIG    1      168.216 179.143 170.873  0.00  0.00    +0.131 A 
ATOM     14  C   LIG    1      167.897 179.402 169.540  0.00  0.00    +0.092 A 
ATOM     15  C   LIG    1      166.565 179.575 169.159  0.00  0.00    +0.135 A 
ATOM     16  C   LIG    1      165.556 179.488 170.121  0.00  0.00    +0.105 A 
ATOM     17  C   LIG    1      164.144 179.665 169.749  0.00  0.00    +0.197 A 
ATOM     18  C   LIG    1      163.162 179.554 170.847  0.00  0.00    +0.098 A 
ATOM     19  C   LIG    1      163.594 179.308 172.094  0.00  0.00    +0.139 A 
ATOM     30  O   LIG    1      164.925 179.134 172.440  0.00  0.00    -0.454 OA
ATOM     31  O   LIG    1      163.794 179.890 168.599  0.00  0.00    -0.287 OA
ATOM     32  C   LIG    1      165.874 179.230 171.454  0.00  0.00    +0.146 A 
ATOM     35  C   LIG    1      167.205 179.057 171.832  0.00  0.00    +0.093 A 
ENDROOT
BRANCH  19  20
ATOM     20  C   LIG    1      162.657 179.178 173.229  0.00  0.00    +0.021 A 
ATOM     21  C   LIG    1      161.590 180.069 173.363  0.00  0.00    +0.015 A 
ATOM     22  C   LIG    1      160.707 179.947 174.435  0.00  0.00    +0.050 A 
ATOM     23  C   LIG    1      160.887 178.933 175.376  0.00  0.00    +0.158 A 
ATOM     24  C   LIG    1      161.953 178.042 175.245  0.00  0.00    +0.159 A 
ATOM     29  C   LIG    1      162.837 178.164 174.173  0.00  0.00    +0.060 A 
BRANCH  24  25
ATOM     25  O   LIG    1      162.138 177.047 176.158  0.00  0.00    -0.503 OA
ATOM     26  H   LIG    1      162.543 177.433 176.953  0.00  0.00    +0.292 HD
ENDBRANCH  24  25
BRANCH  23  27
ATOM     27  O   LIG    1      160.019 178.825 176.420  0.00  0.00    -0.503 OA
ATOM     28  H   LIG    1      159.583 177.956 176.381  0.00  0.00    +0.292 HD
ENDBRANCH  23  27
ENDBRANCH  19  20
BRANCH  15  33
ATOM     33  O   LIG    1      166.306 179.825 167.845  0.00  0.00    -0.506 OA
ATOM     34  H   LIG    1      166.673 179.124 167.286  0.00  0.00    +0.292 HD
ENDBRANCH  15  33
BRANCH  13  12
ATOM     12  O   LIG    1      169.519 178.974 171.241  0.00  0.00    -0.461 OA
BRANCH  12   2
ATOM      1  O   LIG    1      170.442 181.029 171.848  0.00  0.00    -0.331 OA
ATOM      2  C   LIG    1      169.983 179.769 172.331  0.00  0.00    +0.339 C 
ATOM      3  C   LIG    1      171.120 179.010 173.015  0.00  0.00    +0.214 C 
ATOM      4  C   LIG    1      171.777 179.858 174.105  0.00  0.00    +0.180 C 
ATOM      5  C   LIG    1      172.110 181.259 173.592  0.00  0.00    +0.177 C 
ATOM     36  C   LIG    1      170.898 181.885 172.897  0.00  0.00    +0.179 C 
BRANCH   5   6
ATOM      6  O   LIG    1      172.503 182.081 174.687  0.00  0.00    -0.386 OA
ATOM      7  H   LIG    1      172.652 182.981 174.348  0.00  0.00    +0.210 HD
ENDBRANCH   5   6
BRANCH   4   8
ATOM      8  O   LIG    1      172.996 179.237 174.520  0.00  0.00    -0.386 OA
ATOM      9  H   LIG    1      172.945 179.113 175.484  0.00  0.00    +0.210 HD
ENDBRANCH   4   8
BRANCH   3  10
ATOM     10  O   LIG    1      170.580 177.825 173.599  0.00  0.00    -0.383 OA
ATOM     11  H   LIG    1      170.151 177.310 172.894  0.00  0.00    +0.210 HD
ENDBRANCH   3  10
BRANCH  36  37
ATOM     37  C   LIG    1      171.241 183.234 172.274  0.00  0.00    +0.190 C 
BRANCH  37  38
ATOM     38  O   LIG    1      170.924 184.253 173.205  0.00  0.00    -0.392 OA
ATOM     39  H   LIG    1      170.008 184.111 173.499  0.00  0.00    +0.210 HD
ENDBRANCH  37  38
ENDBRANCH  36  37
ENDBRANCH  12   2
ENDBRANCH  13  12
TORSDOF 11
ENDMDL
MODEL 6
REMARK VINA RESULT:      -8.6     43.628     44.883
REMARK  Name = 5280637
REMARK                            x       y       z     vdW  Elec       q    Type
REMARK                         _______ _______ _______ _____ _____    ______ ____
ROOT
ATOM     13  C   LIG    1      168.012 179.419 171.035  0.00  0.00    +0.131 A 
ATOM     14  C   LIG    1      167.472 178.226 171.515  0.00  0.00    +0.092 A 
ATOM     15  C   LIG    1      166.121 178.154 171.855  0.00  0.00    +0.135 A 
ATOM     16  C   LIG    1      165.314 179.285 171.712  0.00  0.00    +0.105 A 
ATOM     17  C   LIG    1      163.886 179.241 172.063  0.00  0.00    +0.197 A 
ATOM     18  C   LIG    1      163.128 180.495 171.871  0.00  0.00    +0.098 A 
ATOM     19  C   LIG    1      163.760 181.579 171.395  0.00  0.00    +0.139 A 
ATOM     30  O   LIG    1      165.107 181.620 171.072  0.00  0.00    -0.454 OA
ATOM     31  O   LIG    1      163.350 178.230 172.492  0.00  0.00    -0.287 OA
ATOM     32  C   LIG    1      165.852 180.479 171.232  0.00  0.00    +0.146 A 
ATOM     35  C   LIG    1      167.203 180.548 170.894  0.00  0.00    +0.093 A 
ENDROOT
BRANCH  19  20
ATOM     20  C   LIG    1      163.055 182.862 171.191  0.00  0.00    +0.021 A 
ATOM     21  C   LIG    1      162.452 183.510 172.270  0.00  0.00    +0.015 A 
ATOM     22  C   LIG    1      161.786 184.720 172.077  0.00  0.00    +0.050 A 
ATOM     23  C   LIG    1      161.721 185.285 170.803  0.00  0.00    +0.158 A 
ATOM     24  C   LIG    1      162.321 184.638 169.722  0.00  0.00    +0.159 A 
ATOM     29  C   LIG    1      162.988 183.428 169.916  0.00  0.00    +0.060 A 
BRANCH  24  25
ATOM     25  O   LIG    1      162.266 185.182 168.474  0.00  0.00    -0.503 OA
ATOM     26  H   LIG    1      162.210 186.149 168.564  0.00  0.00    +0.292 HD
ENDBRANCH  24  25
BRANCH  23  27
ATOM     27  O   LIG    1      161.066 186.466 170.627  0.00  0.00    -0.503 OA
ATOM     28  H   LIG    1      161.698 187.135 170.310  0.00  0.00    +0.292 HD
ENDBRANCH  23  27
ENDBRANCH  19  20
BRANCH  15  33
ATOM     33  O   LIG    1      165.642 176.966 172.319  0.00  0.00    -0.506 OA
ATOM     34  H   LIG    1      166.232 176.240 172.068  0.00  0.00    +0.292 HD
ENDBRANCH  15  33
BRANCH  13  12
ATOM     12  O   LIG    1      169.334 179.484 170.705  0.00  0.00    -0.461 OA
BRANCH  12   2
ATOM      1  O   LIG    1      171.012 180.610 171.872  0.00  0.00    -0.331 OA
ATOM      2  C   LIG    1      170.266 179.398 171.782  0.00  0.00    +0.339 C 
ATOM      3  C   LIG    1      171.196 178.216 171.506  0.00  0.00    +0.214 C 
ATOM      4  C   LIG    1      172.323 178.142 172.537  0.00  0.00    +0.180 C 
ATOM      5  C   LIG    1      172.994 179.503 172.722  0.00  0.00    +0.177 C 
ATOM     36  C   LIG    1      171.949 180.598 172.951  0.00  0.00    +0.179 C 
BRANCH   5   6
ATOM      6  O   LIG    1      173.871 179.448 173.844  0.00  0.00    -0.386 OA
ATOM      7  H   LIG    1      174.766 179.671 173.535  0.00  0.00    +0.210 HD
ENDBRANCH   5   6
BRANCH   4   8
ATOM      8  O   LIG    1      173.315 177.216 172.091  0.00  0.00    -0.386 OA
ATOM      9  H   LIG    1      172.993 176.322 172.300  0.00  0.00    +0.210 HD
ENDBRANCH   4   8
BRANCH   3  10
ATOM     10  O   LIG    1      170.424 177.017 171.561  0.00  0.00    -0.383 OA
ATOM     11  H   LIG    1      170.776 176.401 170.895  0.00  0.00    +0.210 HD
ENDBRANCH   3  10
BRANCH  36  37
ATOM     37  C   LIG    1      172.587 181.981 173.021  0.00  0.00    +0.190 C 
BRANCH  37  38
ATOM     38  O   LIG    1      172.992 182.223 174.356  0.00  0.00    -0.392 OA
ATOM     39  H   LIG    1      172.850 181.404 174.861  0.00  0.00    +0.210 HD
ENDBRANCH  37  38
ENDBRANCH  36  37
ENDBRANCH  12   2
ENDBRANCH  13  12
TORSDOF 11
ENDMDL
MODEL 7
REMARK VINA RESULT:      -8.5     41.763     44.585
REMARK  Name = 5280637
REMARK                            x       y       z     vdW  Elec       q    Type
REMARK                         _______ _______ _______ _____ _____    ______ ____
ROOT
ATOM     13  C   LIG    1      193.381 155.403 156.913  0.00  0.00    +0.131 A 
ATOM     14  C   LIG    1      193.415 156.771 157.186  0.00  0.00    +0.092 A 
ATOM     15  C   LIG    1      193.713 157.222 158.472  0.00  0.00    +0.135 A 
ATOM     16  C   LIG    1      193.976 156.296 159.484  0.00  0.00    +0.105 A 
ATOM     17  C   LIG    1      194.291 156.741 160.850  0.00  0.00    +0.197 A 
ATOM     18  C   LIG    1      194.554 155.676 161.839  0.00  0.00    +0.098 A 
ATOM     19  C   LIG    1      194.497 154.391 161.453  0.00  0.00    +0.139 A 
ATOM     30  O   LIG    1      194.192 153.974 160.167  0.00  0.00    -0.454 OA
ATOM     31  O   LIG    1      194.335 157.924 161.158  0.00  0.00    -0.287 OA
ATOM     32  C   LIG    1      193.943 154.928 159.212  0.00  0.00    +0.146 A 
ATOM     35  C   LIG    1      193.644 154.480 157.926  0.00  0.00    +0.093 A 
ENDROOT
BRANCH  19  20
ATOM     20  C   LIG    1      194.742 153.284 162.400  0.00  0.00    +0.021 A 
ATOM     21  C   LIG    1      194.837 153.541 163.769  0.00  0.00    +0.015 A 
ATOM     22  C   LIG    1      195.070 152.496 164.663  0.00  0.00    +0.050 A 
ATOM     23  C   LIG    1      195.207 151.190 164.190  0.00  0.00    +0.158 A 
ATOM     24  C   LIG    1      195.114 150.931 162.822  0.00  0.00    +0.159 A 
ATOM     29  C   LIG    1      194.881 151.977 161.929  0.00  0.00    +0.060 A 
BRANCH  24  25
ATOM     25  O   LIG    1      195.245 149.660 162.350  0.00  0.00    -0.503 OA
ATOM     26  H   LIG    1      194.580 149.101 162.786  0.00  0.00    +0.292 HD
ENDBRANCH  24  25
BRANCH  23  27
ATOM     27  O   LIG    1      195.435 150.179 165.073  0.00  0.00    -0.503 OA
ATOM     28  H   LIG    1      196.263 149.727 164.831  0.00  0.00    +0.292 HD
ENDBRANCH  23  27
ENDBRANCH  19  20
BRANCH  15  33
ATOM     33  O   LIG    1      193.733 158.567 158.687  0.00  0.00    -0.506 OA
ATOM     34  H   LIG    1      193.073 158.816 159.352  0.00  0.00    +0.292 HD
ENDBRANCH  15  33
BRANCH  13  12
ATOM     12  O   LIG    1      193.089 154.967 155.654  0.00  0.00    -0.461 OA
BRANCH  12   2
ATOM      1  O   LIG    1      195.405 154.701 155.582  0.00  0.00    -0.331 OA
ATOM      2  C   LIG    1      194.196 154.593 154.836  0.00  0.00    +0.339 C 
ATOM      3  C   LIG    1      194.225 155.531 153.628  0.00  0.00    +0.214 C 
ATOM      4  C   LIG    1      195.471 155.297 152.773  0.00  0.00    +0.180 C 
ATOM      5  C   LIG    1      196.734 155.259 153.633  0.00  0.00    +0.177 C 
ATOM     36  C   LIG    1      196.553 154.315 154.824  0.00  0.00    +0.179 C 
BRANCH   5   6
ATOM      6  O   LIG    1      197.832 154.814 152.841  0.00  0.00    -0.386 OA
ATOM      7  H   LIG    1      197.766 155.242 151.970  0.00  0.00    +0.210 HD
ENDBRANCH   5   6
BRANCH   4   8
ATOM      8  O   LIG    1      195.608 156.362 151.831  0.00  0.00    -0.386 OA
ATOM      9  H   LIG    1      196.086 156.009 151.061  0.00  0.00    +0.210 HD
ENDBRANCH   4   8
BRANCH   3  10
ATOM     10  O   LIG    1      193.059 155.287 152.842  0.00  0.00    -0.383 OA
ATOM     11  H   LIG    1      192.281 155.514 153.380  0.00  0.00    +0.210 HD
ENDBRANCH   3  10
BRANCH  36  37
ATOM     37  C   LIG    1      197.757 154.350 155.760  0.00  0.00    +0.190 C 
BRANCH  37  38
ATOM     38  O   LIG    1      198.097 153.021 156.107  0.00  0.00    -0.392 OA
ATOM     39  H   LIG    1      198.600 152.641 155.366  0.00  0.00    +0.210 HD
ENDBRANCH  37  38
ENDBRANCH  36  37
ENDBRANCH  12   2
ENDBRANCH  13  12
TORSDOF 11
ENDMDL
MODEL 8
REMARK VINA RESULT:      -8.5      3.479      8.508
REMARK  Name = 5280637
REMARK                            x       y       z     vdW  Elec       q    Type
REMARK                         _______ _______ _______ _____ _____    ______ ____
ROOT
ATOM     13  C   LIG    1      180.265 184.576 129.989  0.00  0.00    +0.131 A 
ATOM     14  C   LIG    1      178.942 184.768 130.389  0.00  0.00    +0.092 A 
ATOM     15  C   LIG    1      178.029 183.716 130.318  0.00  0.00    +0.135 A 
ATOM     16  C   LIG    1      178.447 182.470 129.844  0.00  0.00    +0.105 A 
ATOM     17  C   LIG    1      177.507 181.343 129.756  0.00  0.00    +0.197 A 
ATOM     18  C   LIG    1      178.058 180.072 129.242  0.00  0.00    +0.098 A 
ATOM     19  C   LIG    1      179.353 180.010 128.894  0.00  0.00    +0.139 A 
ATOM     30  O   LIG    1      180.235 181.077 128.970  0.00  0.00    -0.454 OA
ATOM     31  O   LIG    1      176.334 181.443 130.087  0.00  0.00    -0.287 OA
ATOM     32  C   LIG    1      179.769 182.277 129.444  0.00  0.00    +0.146 A 
ATOM     35  C   LIG    1      180.680 183.330 129.516  0.00  0.00    +0.093 A 
ENDROOT
BRANCH  19  20
ATOM     20  C   LIG    1      179.956 178.769 128.366  0.00  0.00    +0.021 A 
ATOM     21  C   LIG    1      181.258 178.783 127.860  0.00  0.00    +0.015 A 
ATOM     22  C   LIG    1      181.827 177.612 127.361  0.00  0.00    +0.050 A 
ATOM     23  C   LIG    1      181.097 176.423 127.367  0.00  0.00    +0.158 A 
ATOM     24  C   LIG    1      179.796 176.407 127.870  0.00  0.00    +0.159 A 
ATOM     29  C   LIG    1      179.227 177.578 128.370  0.00  0.00    +0.060 A 
BRANCH  24  25
ATOM     25  O   LIG    1      179.074 175.251 127.882  0.00  0.00    -0.503 OA
ATOM     26  H   LIG    1      179.133 174.863 128.772  0.00  0.00    +0.292 HD
ENDBRANCH  24  25
BRANCH  23  27
ATOM     27  O   LIG    1      181.663 175.286 126.875  0.00  0.00    -0.503 OA
ATOM     28  H   LIG    1      182.576 175.219 127.204  0.00  0.00    +0.292 HD
ENDBRANCH  23  27
ENDBRANCH  19  20
BRANCH  15  33
ATOM     33  O   LIG    1      176.749 183.954 130.720  0.00  0.00    -0.506 OA
ATOM     34  H   LIG    1      176.246 183.127 130.765  0.00  0.00    +0.292 HD
ENDBRANCH  15  33
BRANCH  13  12
ATOM     12  O   LIG    1      181.154 185.608 130.060  0.00  0.00    -0.461 OA
BRANCH  12   2
ATOM      1  O   LIG    1      181.153 187.796 130.870  0.00  0.00    -0.331 OA
ATOM      2  C   LIG    1      181.099 186.418 131.233  0.00  0.00    +0.339 C 
ATOM      3  C   LIG    1      182.292 186.049 132.115  0.00  0.00    +0.214 C 
ATOM      4  C   LIG    1      182.396 186.976 133.327  0.00  0.00    +0.180 C 
ATOM      5  C   LIG    1      182.288 188.444 132.912  0.00  0.00    +0.177 C 
ATOM     36  C   LIG    1      181.077 188.664 132.003  0.00  0.00    +0.179 C 
BRANCH   5   6
ATOM      6  O   LIG    1      182.157 189.255 134.076  0.00  0.00    -0.386 OA
ATOM      7  H   LIG    1      181.211 189.324 134.289  0.00  0.00    +0.210 HD
ENDBRANCH   5   6
BRANCH   4   8
ATOM      8  O   LIG    1      183.661 186.788 133.963  0.00  0.00    -0.386 OA
ATOM      9  H   LIG    1      183.486 186.526 134.884  0.00  0.00    +0.210 HD
ENDBRANCH   4   8
BRANCH   3  10
ATOM     10  O   LIG    1      182.120 184.704 132.561  0.00  0.00    -0.383 OA
ATOM     11  H   LIG    1      181.195 184.450 132.402  0.00  0.00    +0.210 HD
ENDBRANCH   3  10
BRANCH  36  37
ATOM     37  C   LIG    1      181.016 190.096 131.481  0.00  0.00    +0.190 C 
BRANCH  37  38
ATOM     38  O   LIG    1      182.337 190.594 131.377  0.00  0.00    -0.392 OA
ATOM     39  H   LIG    1      182.330 191.517 131.686  0.00  0.00    +0.210 HD
ENDBRANCH  37  38
ENDBRANCH  36  37
ENDBRANCH  12   2
ENDBRANCH  13  12
TORSDOF 11
ENDMDL
MODEL 9
REMARK VINA RESULT:      -8.4     41.075     44.424
REMARK  Name = 5280637
REMARK                            x       y       z     vdW  Elec       q    Type
REMARK                         _______ _______ _______ _____ _____    ______ ____
ROOT
ATOM     13  C   LIG    1      193.055 155.428 158.771  0.00  0.00    +0.131 A 
ATOM     14  C   LIG    1      191.920 155.456 157.961  0.00  0.00    +0.092 A 
ATOM     15  C   LIG    1      192.047 155.594 156.579  0.00  0.00    +0.135 A 
ATOM     16  C   LIG    1      193.319 155.704 156.012  0.00  0.00    +0.105 A 
ATOM     17  C   LIG    1      193.486 155.853 154.558  0.00  0.00    +0.197 A 
ATOM     18  C   LIG    1      194.875 155.959 154.068  0.00  0.00    +0.098 A 
ATOM     19  C   LIG    1      195.888 155.913 154.947  0.00  0.00    +0.139 A 
ATOM     30  O   LIG    1      195.728 155.781 156.318  0.00  0.00    -0.454 OA
ATOM     31  O   LIG    1      192.533 155.888 153.791  0.00  0.00    -0.287 OA
ATOM     32  C   LIG    1      194.455 155.676 156.820  0.00  0.00    +0.146 A 
ATOM     35  C   LIG    1      194.325 155.539 158.201  0.00  0.00    +0.093 A 
ENDROOT
BRANCH  19  20
ATOM     20  C   LIG    1      197.297 156.023 154.516  0.00  0.00    +0.021 A 
ATOM     21  C   LIG    1      198.127 156.996 155.076  0.00  0.00    +0.015 A 
ATOM     22  C   LIG    1      199.457 157.101 154.667  0.00  0.00    +0.050 A 
ATOM     23  C   LIG    1      199.960 156.232 153.699  0.00  0.00    +0.158 A 
ATOM     24  C   LIG    1      199.132 155.259 153.138  0.00  0.00    +0.159 A 
ATOM     29  C   LIG    1      197.802 155.155 153.546  0.00  0.00    +0.060 A 
BRANCH  24  25
ATOM     25  O   LIG    1      199.614 154.404 152.193  0.00  0.00    -0.503 OA
ATOM     26  H   LIG    1      198.884 153.835 151.894  0.00  0.00    +0.292 HD
ENDBRANCH  24  25
BRANCH  23  27
ATOM     27  O   LIG    1      201.260 156.345 153.308  0.00  0.00    -0.503 OA
ATOM     28  H   LIG    1      201.827 155.895 153.958  0.00  0.00    +0.292 HD
ENDBRANCH  23  27
ENDBRANCH  19  20
BRANCH  15  33
ATOM     33  O   LIG    1      190.908 155.616 155.832  0.00  0.00    -0.506 OA
ATOM     34  H   LIG    1      190.467 156.476 155.909  0.00  0.00    +0.292 HD
ENDBRANCH  15  33
BRANCH  13  12
ATOM     12  O   LIG    1      192.925 155.293 160.122  0.00  0.00    -0.461 OA
BRANCH  12   2
ATOM      1  O   LIG    1      193.946 153.376 160.975  0.00  0.00    -0.331 OA
ATOM      2  C   LIG    1      194.059 154.789 160.825  0.00  0.00    +0.339 C 
ATOM      3  C   LIG    1      194.105 155.471 162.193  0.00  0.00    +0.214 C 
ATOM      4  C   LIG    1      195.206 154.878 163.073  0.00  0.00    +0.180 C 
ATOM      5  C   LIG    1      195.149 153.350 163.079  0.00  0.00    +0.177 C 
ATOM     36  C   LIG    1      195.067 152.805 161.651  0.00  0.00    +0.179 C 
BRANCH   5   6
ATOM      6  O   LIG    1      196.316 152.837 163.714  0.00  0.00    -0.386 OA
ATOM      7  H   LIG    1      197.067 153.401 163.463  0.00  0.00    +0.210 HD
ENDBRANCH   5   6
BRANCH   4   8
ATOM      8  O   LIG    1      195.037 155.333 164.417  0.00  0.00    -0.386 OA
ATOM      9  H   LIG    1      194.624 156.212 164.376  0.00  0.00    +0.210 HD
ENDBRANCH   4   8
BRANCH   3  10
ATOM     10  O   LIG    1      194.356 156.861 161.993  0.00  0.00    -0.383 OA
ATOM     11  H   LIG    1      195.320 156.995 161.981  0.00  0.00    +0.210 HD
ENDBRANCH   3  10
BRANCH  36  37
ATOM     37  C   LIG    1      194.890 151.289 161.636  0.00  0.00    +0.190 C 
BRANCH  37  38
ATOM     38  O   LIG    1      194.529 150.865 162.938  0.00  0.00    -0.392 OA
ATOM     39  H   LIG    1      194.784 151.568 163.559  0.00  0.00    +0.210 HD
ENDBRANCH  37  38
ENDBRANCH  36  37
ENDBRANCH  12   2
ENDBRANCH  13  12
TORSDOF 11
ENDMDL
