MODEL 1
REMARK VINA RESULT:    -9.154      0.000      0.000
REMARK INTER + INTRA:         -14.122
REMARK INTER:                 -12.837
REMARK INTRA:                  -1.285
REMARK UNBOUND:                -0.954
REMARK  Name = 5320623
REMARK  11 active torsions:
REMARK  status: ('A' for Active; 'I' for Inactive)
REMARK    1  A    between atoms: O_2  and  C_16
REMARK    2  A    between atoms: O_2  and  C_18
REMARK    3  A    between atoms: O_3  and  C_12
REMARK    4  A    between atoms: O_4  and  C_13
REMARK    5  A    between atoms: O_5  and  C_14
REMARK    6  A    between atoms: O_6  and  C_17
REMARK    7  A    between atoms: O_8  and  C_20
REMARK    8  A    between atoms: O_9  and  C_23
REMARK    9  A    between atoms: O_11  and  C_32
REMARK   10  A    between atoms: C_15  and  C_17
REMARK   11  A    between atoms: C_25  and  C_27
REMARK                            x       y       z     vdW  Elec       q    Type
REMARK                         _______ _______ _______ _____ _____    ______ ____
ROOT
ATOM      7  O   UNL     1       3.675  42.781  25.020  0.00  0.00    +0.000 OA
ATOM     10  O   UNL     1       1.380  39.865  23.339  0.00  0.00    +0.000 OA
ATOM     18  C   UNL     1       3.860  43.853  21.542  0.00  0.00    +0.000 A 
ATOM     19  C   UNL     1       4.047  43.802  22.924  0.00  0.00    +0.000 A 
ATOM     20  C   UNL     1       3.084  42.885  20.904  0.00  0.00    +0.000 A 
ATOM     21  C   UNL     1       3.456  42.780  23.666  0.00  0.00    +0.000 A 
ATOM     22  C   UNL     1       2.680  41.813  23.027  0.00  0.00    +0.000 A 
ATOM     23  C   UNL     1       2.491  41.861  21.644  0.00  0.00    +0.000 A 
ATOM     24  C   UNL     1       2.070  40.746  23.834  0.00  0.00    +0.000 A 
ATOM     25  C   UNL     1       3.093  41.782  25.785  0.00  0.00    +0.000 A 
ATOM     26  C   UNL     1       2.333  40.794  25.286  0.00  0.00    +0.000 A 
ENDROOT
BRANCH  25  27
ATOM     27  C   UNL     1       3.399  41.875  27.227  0.00  0.00    +0.000 A 
ATOM     28  C   UNL     1       2.793  40.999  28.131  0.00  0.00    +0.000 A 
ATOM     29  C   UNL     1       4.293  42.842  27.693  0.00  0.00    +0.000 A 
ATOM     30  C   UNL     1       3.082  41.088  29.492  0.00  0.00    +0.000 A 
ATOM     31  C   UNL     1       4.581  42.931  29.055  0.00  0.00    +0.000 A 
ATOM     32  C   UNL     1       3.975  42.054  29.955  0.00  0.00    +0.000 A 
BRANCH  32  11
ATOM     11  O   UNL     1       4.257  42.141  31.284  0.00  0.00    +0.000 OA
ATOM     39  H   UNL     1       3.929  42.992  31.621  0.00  0.00    +0.000 HD
ENDBRANCH  32  11
ENDBRANCH  25  27
BRANCH  20   8
ATOM      8  O   UNL     1       2.907  42.942  19.552  0.00  0.00    +0.000 OA
ATOM     37  H   UNL     1       2.747  42.040  19.225  0.00  0.00    +0.000 HD
ENDBRANCH  20   8
BRANCH  23   9
ATOM      9  O   UNL     1       1.740  40.935  20.985  0.00  0.00    +0.000 OA
ATOM     38  H   UNL     1       1.033  41.364  20.478  0.00  0.00    +0.000 HD
ENDBRANCH  23   9
BRANCH  18   2
ATOM      2  O   UNL     1       4.443  44.858  20.825  0.00  0.00    +0.000 OA
BRANCH   2  16
ATOM      1  O   UNL     1       6.693  45.373  21.171  0.00  0.00    +0.000 OA
ATOM     12  C   UNL     1       7.293  44.996  18.386  0.00  0.00    +0.000 C 
ATOM     13  C   UNL     1       8.269  45.669  19.352  0.00  0.00    +0.000 C 
ATOM     14  C   UNL     1       5.858  45.068  18.910  0.00  0.00    +0.000 C 
ATOM     15  C   UNL     1       8.052  45.168  20.782  0.00  0.00    +0.000 C 
ATOM     16  C   UNL     1       5.777  44.628  20.372  0.00  0.00    +0.000 C 
BRANCH  12   3
ATOM      3  O   UNL     1       7.376  45.672  17.131  0.00  0.00    +0.000 OA
ATOM     33  H   UNL     1       6.555  45.486  16.646  0.00  0.00    +0.000 HD
ENDBRANCH  12   3
BRANCH  13   4
ATOM      4  O   UNL     1       9.605  45.382  18.949  0.00  0.00    +0.000 OA
ATOM     34  H   UNL     1       9.840  45.994  18.231  0.00  0.00    +0.000 HD
ENDBRANCH  13   4
BRANCH  14   5
ATOM      5  O   UNL     1       5.028  44.203  18.136  0.00  0.00    +0.000 OA
ATOM     35  H   UNL     1       4.526  44.748  17.507  0.00  0.00    +0.000 HD
ENDBRANCH  14   5
BRANCH  15  17
ATOM     17  C   UNL     1       8.933  45.910  21.781  0.00  0.00    +0.000 C 
BRANCH  17   6
ATOM      6  O   UNL     1       9.584  46.971  21.109  0.00  0.00    +0.000 OA
ATOM     36  H   UNL     1       9.650  46.728  20.169  0.00  0.00    +0.000 HD
ENDBRANCH  17   6
ENDBRANCH  15  17
ENDBRANCH   2  16
ENDBRANCH  18   2
TORSDOF 11
ENDMDL
MODEL 2
REMARK VINA RESULT:    -9.040      1.825      2.904
REMARK INTER + INTRA:         -13.957
REMARK INTER:                 -12.732
REMARK INTRA:                  -1.225
REMARK UNBOUND:                -0.954
REMARK  Name = 5320623
REMARK  11 active torsions:
REMARK  status: ('A' for Active; 'I' for Inactive)
REMARK    1  A    between atoms: O_2  and  C_16
REMARK    2  A    between atoms: O_2  and  C_18
REMARK    3  A    between atoms: O_3  and  C_12
REMARK    4  A    between atoms: O_4  and  C_13
REMARK    5  A    between atoms: O_5  and  C_14
REMARK    6  A    between atoms: O_6  and  C_17
REMARK    7  A    between atoms: O_8  and  C_20
REMARK    8  A    between atoms: O_9  and  C_23
REMARK    9  A    between atoms: O_11  and  C_32
REMARK   10  A    between atoms: C_15  and  C_17
REMARK   11  A    between atoms: C_25  and  C_27
REMARK                            x       y       z     vdW  Elec       q    Type
REMARK                         _______ _______ _______ _____ _____    ______ ____
ROOT
ATOM      7  O   UNL     1       4.298  42.705  23.391  0.00  0.00    +0.000 OA
ATOM     10  O   UNL     1       1.623  41.569  20.535  0.00  0.00    +0.000 OA
ATOM     18  C   UNL     1       5.880  44.244  20.491  0.00  0.00    +0.000 A 
ATOM     19  C   UNL     1       5.627  43.838  21.801  0.00  0.00    +0.000 A 
ATOM     20  C   UNL     1       5.001  43.890  19.466  0.00  0.00    +0.000 A 
ATOM     21  C   UNL     1       4.494  43.075  22.084  0.00  0.00    +0.000 A 
ATOM     22  C   UNL     1       3.617  42.722  21.059  0.00  0.00    +0.000 A 
ATOM     23  C   UNL     1       3.867  43.127  19.746  0.00  0.00    +0.000 A 
ATOM     24  C   UNL     1       2.431  41.916  21.385  0.00  0.00    +0.000 A 
ATOM     25  C   UNL     1       3.176  41.953  23.703  0.00  0.00    +0.000 A 
ATOM     26  C   UNL     1       2.265  41.546  22.805  0.00  0.00    +0.000 A 
ENDROOT
BRANCH  25  27
ATOM     27  C   UNL     1       3.067  41.605  25.134  0.00  0.00    +0.000 A 
ATOM     28  C   UNL     1       3.716  42.380  26.097  0.00  0.00    +0.000 A 
ATOM     29  C   UNL     1       2.315  40.495  25.530  0.00  0.00    +0.000 A 
ATOM     30  C   UNL     1       3.612  42.051  27.448  0.00  0.00    +0.000 A 
ATOM     31  C   UNL     1       2.212  40.165  26.882  0.00  0.00    +0.000 A 
ATOM     32  C   UNL     1       2.861  40.942  27.841  0.00  0.00    +0.000 A 
BRANCH  32  11
ATOM     11  O   UNL     1       2.761  40.620  29.160  0.00  0.00    +0.000 OA
ATOM     39  H   UNL     1       3.630  40.322  29.478  0.00  0.00    +0.000 HD
ENDBRANCH  32  11
ENDBRANCH  25  27
BRANCH  20   8
ATOM      8  O   UNL     1       5.257  44.292  18.186  0.00  0.00    +0.000 OA
ATOM     37  H   UNL     1       4.633  45.002  17.958  0.00  0.00    +0.000 HD
ENDBRANCH  20   8
BRANCH  23   9
ATOM      9  O   UNL     1       3.033  42.802  18.718  0.00  0.00    +0.000 OA
ATOM     38  H   UNL     1       2.462  42.057  18.961  0.00  0.00    +0.000 HD
ENDBRANCH  23   9
BRANCH  18   2
ATOM      2  O   UNL     1       6.991  44.991  20.225  0.00  0.00    +0.000 OA
BRANCH   2  16
ATOM      1  O   UNL     1       8.993  43.896  20.717  0.00  0.00    +0.000 OA
ATOM     12  C   UNL     1      10.116  44.631  18.177  0.00  0.00    +0.000 C 
ATOM     13  C   UNL     1      10.965  44.069  19.318  0.00  0.00    +0.000 C 
ATOM     14  C   UNL     1       8.818  45.243  18.704  0.00  0.00    +0.000 C 
ATOM     15  C   UNL     1      10.124  43.173  20.231  0.00  0.00    +0.000 C 
ATOM     16  C   UNL     1       8.109  44.296  19.672  0.00  0.00    +0.000 C 
BRANCH  12   3
ATOM      3  O   UNL     1      10.882  45.637  17.512  0.00  0.00    +0.000 OA
ATOM     33  H   UNL     1      11.155  46.285  18.183  0.00  0.00    +0.000 HD
ENDBRANCH  12   3
BRANCH  13   4
ATOM      4  O   UNL     1      12.042  43.310  18.775  0.00  0.00    +0.000 OA
ATOM     34  H   UNL     1      12.635  43.066  19.506  0.00  0.00    +0.000 HD
ENDBRANCH  13   4
BRANCH  14   5
ATOM      5  O   UNL     1       7.940  45.503  17.609  0.00  0.00    +0.000 OA
ATOM     35  H   UNL     1       7.059  45.702  17.968  0.00  0.00    +0.000 HD
ENDBRANCH  14   5
BRANCH  15  17
ATOM     17  C   UNL     1      10.918  42.694  21.441  0.00  0.00    +0.000 C 
BRANCH  17   6
ATOM      6  O   UNL     1      11.972  43.609  21.682  0.00  0.00    +0.000 OA
ATOM     36  H   UNL     1      12.204  43.549  22.624  0.00  0.00    +0.000 HD
ENDBRANCH  17   6
ENDBRANCH  15  17
ENDBRANCH   2  16
ENDBRANCH  18   2
TORSDOF 11
ENDMDL
MODEL 3
REMARK VINA RESULT:    -8.688      2.382      4.772
REMARK INTER + INTRA:         -13.451
REMARK INTER:                 -12.205
REMARK INTRA:                  -1.247
REMARK UNBOUND:                -0.954
REMARK  Name = 5320623
REMARK  11 active torsions:
REMARK  status: ('A' for Active; 'I' for Inactive)
REMARK    1  A    between atoms: O_2  and  C_16
REMARK    2  A    between atoms: O_2  and  C_18
REMARK    3  A    between atoms: O_3  and  C_12
REMARK    4  A    between atoms: O_4  and  C_13
REMARK    5  A    between atoms: O_5  and  C_14
REMARK    6  A    between atoms: O_6  and  C_17
REMARK    7  A    between atoms: O_8  and  C_20
REMARK    8  A    between atoms: O_9  and  C_23
REMARK    9  A    between atoms: O_11  and  C_32
REMARK   10  A    between atoms: C_15  and  C_17
REMARK   11  A    between atoms: C_25  and  C_27
REMARK                            x       y       z     vdW  Elec       q    Type
REMARK                         _______ _______ _______ _____ _____    ______ ____
ROOT
ATOM      7  O   UNL     1       1.857  40.423  22.831  0.00  0.00    +0.000 OA
ATOM     10  O   UNL     1       3.014  41.257  26.648  0.00  0.00    +0.000 OA
ATOM     18  C   UNL     1       3.673  43.520  22.207  0.00  0.00    +0.000 A 
ATOM     19  C   UNL     1       2.921  42.363  22.005  0.00  0.00    +0.000 A 
ATOM     20  C   UNL     1       4.102  43.863  23.490  0.00  0.00    +0.000 A 
ATOM     21  C   UNL     1       2.599  41.548  23.091  0.00  0.00    +0.000 A 
ATOM     22  C   UNL     1       3.028  41.892  24.372  0.00  0.00    +0.000 A 
ATOM     23  C   UNL     1       3.781  43.050  24.577  0.00  0.00    +0.000 A 
ATOM     24  C   UNL     1       2.673  41.015  25.498  0.00  0.00    +0.000 A 
ATOM     25  C   UNL     1       1.528  39.590  23.890  0.00  0.00    +0.000 A 
ATOM     26  C   UNL     1       1.877  39.817  25.166  0.00  0.00    +0.000 A 
ENDROOT
BRANCH  25  27
ATOM     27  C   UNL     1       0.725  38.414  23.500  0.00  0.00    +0.000 A 
ATOM     28  C   UNL     1      -0.405  38.059  24.240  0.00  0.00    +0.000 A 
ATOM     29  C   UNL     1       1.093  37.649  22.390  0.00  0.00    +0.000 A 
ATOM     30  C   UNL     1      -1.164  36.948  23.872  0.00  0.00    +0.000 A 
ATOM     31  C   UNL     1       0.335  36.538  22.022  0.00  0.00    +0.000 A 
ATOM     32  C   UNL     1      -0.793  36.187  22.764  0.00  0.00    +0.000 A 
BRANCH  32  11
ATOM     11  O   UNL     1      -1.533  35.102  22.404  0.00  0.00    +0.000 OA
ATOM     39  H   UNL     1      -2.284  35.017  23.016  0.00  0.00    +0.000 HD
ENDBRANCH  32  11
ENDBRANCH  25  27
BRANCH  20   8
ATOM      8  O   UNL     1       4.837  44.998  23.677  0.00  0.00    +0.000 OA
ATOM     37  H   UNL     1       5.726  44.741  23.978  0.00  0.00    +0.000 HD
ENDBRANCH  20   8
BRANCH  23   9
ATOM      9  O   UNL     1       4.219  43.417  25.814  0.00  0.00    +0.000 OA
ATOM     38  H   UNL     1       3.621  44.070  26.211  0.00  0.00    +0.000 HD
ENDBRANCH  23   9
BRANCH  18   2
ATOM      2  O   UNL     1       3.984  44.310  21.138  0.00  0.00    +0.000 OA
BRANCH   2  16
ATOM      1  O   UNL     1       6.204  45.010  20.972  0.00  0.00    +0.000 OA
ATOM     12  C   UNL     1       6.375  44.103  18.252  0.00  0.00    +0.000 C 
ATOM     13  C   UNL     1       7.430  45.014  18.880  0.00  0.00    +0.000 C 
ATOM     14  C   UNL     1       5.043  44.201  18.998  0.00  0.00    +0.000 C 
ATOM     15  C   UNL     1       7.495  44.805  20.396  0.00  0.00    +0.000 C 
ATOM     16  C   UNL     1       5.241  44.067  20.508  0.00  0.00    +0.000 C 
BRANCH  12   3
ATOM      3  O   UNL     1       6.191  44.511  16.895  0.00  0.00    +0.000 OA
ATOM     33  H   UNL     1       6.459  45.444  16.833  0.00  0.00    +0.000 HD
ENDBRANCH  12   3
BRANCH  13   4
ATOM      4  O   UNL     1       8.703  44.724  18.310  0.00  0.00    +0.000 OA
ATOM     34  H   UNL     1       9.381  45.165  18.850  0.00  0.00    +0.000 HD
ENDBRANCH  13   4
BRANCH  14   5
ATOM      5  O   UNL     1       4.180  43.151  18.564  0.00  0.00    +0.000 OA
ATOM     35  H   UNL     1       3.322  43.263  19.005  0.00  0.00    +0.000 HD
ENDBRANCH  14   5
BRANCH  15  17
ATOM     17  C   UNL     1       8.456  45.784  21.061  0.00  0.00    +0.000 C 
BRANCH  17   6
ATOM      6  O   UNL     1       8.637  46.894  20.201  0.00  0.00    +0.000 OA
ATOM     36  H   UNL     1       9.170  46.596  19.445  0.00  0.00    +0.000 HD
ENDBRANCH  17   6
ENDBRANCH  15  17
ENDBRANCH   2  16
ENDBRANCH  18   2
TORSDOF 11
ENDMDL
MODEL 4
REMARK VINA RESULT:    -8.546      2.371      8.173
REMARK INTER + INTRA:         -13.247
REMARK INTER:                 -12.228
REMARK INTRA:                  -1.019
REMARK UNBOUND:                -0.954
REMARK  Name = 5320623
REMARK  11 active torsions:
REMARK  status: ('A' for Active; 'I' for Inactive)
REMARK    1  A    between atoms: O_2  and  C_16
REMARK    2  A    between atoms: O_2  and  C_18
REMARK    3  A    between atoms: O_3  and  C_12
REMARK    4  A    between atoms: O_4  and  C_13
REMARK    5  A    between atoms: O_5  and  C_14
REMARK    6  A    between atoms: O_6  and  C_17
REMARK    7  A    between atoms: O_8  and  C_20
REMARK    8  A    between atoms: O_9  and  C_23
REMARK    9  A    between atoms: O_11  and  C_32
REMARK   10  A    between atoms: C_15  and  C_17
REMARK   11  A    between atoms: C_25  and  C_27
REMARK                            x       y       z     vdW  Elec       q    Type
REMARK                         _______ _______ _______ _____ _____    ______ ____
ROOT
ATOM      7  O   UNL     1       4.480  43.910  23.024  0.00  0.00    +0.000 OA
ATOM     10  O   UNL     1       1.965  41.325  21.129  0.00  0.00    +0.000 OA
ATOM     18  C   UNL     1       3.360  41.992  25.913  0.00  0.00    +0.000 A 
ATOM     19  C   UNL     1       4.020  42.935  25.125  0.00  0.00    +0.000 A 
ATOM     20  C   UNL     1       2.486  41.076  25.325  0.00  0.00    +0.000 A 
ATOM     21  C   UNL     1       3.803  42.961  23.747  0.00  0.00    +0.000 A 
ATOM     22  C   UNL     1       2.930  42.045  23.162  0.00  0.00    +0.000 A 
ATOM     23  C   UNL     1       2.267  41.100  23.948  0.00  0.00    +0.000 A 
ATOM     24  C   UNL     1       2.719  42.095  21.707  0.00  0.00    +0.000 A 
ATOM     25  C   UNL     1       4.291  43.954  21.651  0.00  0.00    +0.000 A 
ATOM     26  C   UNL     1       3.472  43.133  20.974  0.00  0.00    +0.000 A 
ENDROOT
BRANCH  25  27
ATOM     27  C   UNL     1       5.061  45.016  20.973  0.00  0.00    +0.000 A 
ATOM     28  C   UNL     1       6.256  44.708  20.320  0.00  0.00    +0.000 A 
ATOM     29  C   UNL     1       4.598  46.334  20.985  0.00  0.00    +0.000 A 
ATOM     30  C   UNL     1       6.983  45.712  19.680  0.00  0.00    +0.000 A 
ATOM     31  C   UNL     1       5.325  47.338  20.345  0.00  0.00    +0.000 A 
ATOM     32  C   UNL     1       6.518  47.027  19.693  0.00  0.00    +0.000 A 
BRANCH  32  11
ATOM     11  O   UNL     1       7.228  48.007  19.069  0.00  0.00    +0.000 OA
ATOM     39  H   UNL     1       7.948  47.598  18.559  0.00  0.00    +0.000 HD
ENDBRANCH  32  11
ENDBRANCH  25  27
BRANCH  20   8
ATOM      8  O   UNL     1       1.844  40.158  26.105  0.00  0.00    +0.000 OA
ATOM     37  H   UNL     1       1.790  39.321  25.611  0.00  0.00    +0.000 HD
ENDBRANCH  20   8
BRANCH  23   9
ATOM      9  O   UNL     1       1.407  40.189  23.412  0.00  0.00    +0.000 OA
ATOM     38  H   UNL     1       0.630  40.072  23.981  0.00  0.00    +0.000 HD
ENDBRANCH  23   9
BRANCH  18   2
ATOM      2  O   UNL     1       3.580  41.975  27.260  0.00  0.00    +0.000 OA
BRANCH   2  16
ATOM      1  O   UNL     1       5.772  41.175  27.301  0.00  0.00    +0.000 OA
ATOM     12  C   UNL     1       6.307  42.525  29.779  0.00  0.00    +0.000 C 
ATOM     13  C   UNL     1       7.239  41.455  29.210  0.00  0.00    +0.000 C 
ATOM     14  C   UNL     1       4.893  42.385  29.215  0.00  0.00    +0.000 C 
ATOM     15  C   UNL     1       7.130  41.395  27.685  0.00  0.00    +0.000 C 
ATOM     16  C   UNL     1       4.913  42.244  27.693  0.00  0.00    +0.000 C 
BRANCH  12   3
ATOM      3  O   UNL     1       6.271  42.371  31.199  0.00  0.00    +0.000 OA
ATOM     33  H   UNL     1       6.081  41.435  31.384  0.00  0.00    +0.000 HD
ENDBRANCH  12   3
BRANCH  13   4
ATOM      4  O   UNL     1       8.583  41.757  29.575  0.00  0.00    +0.000 OA
ATOM     34  H   UNL     1       9.172  41.340  28.923  0.00  0.00    +0.000 HD
ENDBRANCH  13   4
BRANCH  14   5
ATOM      5  O   UNL     1       4.134  43.547  29.547  0.00  0.00    +0.000 OA
ATOM     35  H   UNL     1       3.863  43.476  30.477  0.00  0.00    +0.000 HD
ENDBRANCH  14   5
BRANCH  15  17
ATOM     17  C   UNL     1       7.961  40.256  27.103  0.00  0.00    +0.000 C 
BRANCH  17   6
ATOM      6  O   UNL     1       9.286  40.716  26.911  0.00  0.00    +0.000 OA
ATOM     36  H   UNL     1       9.887  39.986  27.139  0.00  0.00    +0.000 HD
ENDBRANCH  17   6
ENDBRANCH  15  17
ENDBRANCH   2  16
ENDBRANCH  18   2
TORSDOF 11
ENDMDL
MODEL 5
REMARK VINA RESULT:    -8.390      3.160      6.542
REMARK INTER + INTRA:         -13.022
REMARK INTER:                 -12.028
REMARK INTRA:                  -0.995
REMARK UNBOUND:                -0.954
REMARK  Name = 5320623
REMARK  11 active torsions:
REMARK  status: ('A' for Active; 'I' for Inactive)
REMARK    1  A    between atoms: O_2  and  C_16
REMARK    2  A    between atoms: O_2  and  C_18
REMARK    3  A    between atoms: O_3  and  C_12
REMARK    4  A    between atoms: O_4  and  C_13
REMARK    5  A    between atoms: O_5  and  C_14
REMARK    6  A    between atoms: O_6  and  C_17
REMARK    7  A    between atoms: O_8  and  C_20
REMARK    8  A    between atoms: O_9  and  C_23
REMARK    9  A    between atoms: O_11  and  C_32
REMARK   10  A    between atoms: C_15  and  C_17
REMARK   11  A    between atoms: C_25  and  C_27
REMARK                            x       y       z     vdW  Elec       q    Type
REMARK                         _______ _______ _______ _____ _____    ______ ____
ROOT
ATOM      7  O   UNL     1       6.089  43.020  21.189  0.00  0.00    +0.000 OA
ATOM     10  O   UNL     1       5.366  46.957  20.429  0.00  0.00    +0.000 OA
ATOM     18  C   UNL     1       9.337  43.935  19.812  0.00  0.00    +0.000 A 
ATOM     19  C   UNL     1       8.297  43.190  20.369  0.00  0.00    +0.000 A 
ATOM     20  C   UNL     1       9.155  45.289  19.529  0.00  0.00    +0.000 A 
ATOM     21  C   UNL     1       7.074  43.803  20.642  0.00  0.00    +0.000 A 
ATOM     22  C   UNL     1       6.894  45.156  20.358  0.00  0.00    +0.000 A 
ATOM     23  C   UNL     1       7.932  45.904  19.800  0.00  0.00    +0.000 A 
ATOM     24  C   UNL     1       5.594  45.776  20.655  0.00  0.00    +0.000 A 
ATOM     25  C   UNL     1       4.865  43.604  21.478  0.00  0.00    +0.000 A 
ATOM     26  C   UNL     1       4.569  44.892  21.245  0.00  0.00    +0.000 A 
ENDROOT
BRANCH  25  27
ATOM     27  C   UNL     1       3.878  42.671  22.058  0.00  0.00    +0.000 A 
ATOM     28  C   UNL     1       3.206  41.762  21.237  0.00  0.00    +0.000 A 
ATOM     29  C   UNL     1       3.609  42.696  23.429  0.00  0.00    +0.000 A 
ATOM     30  C   UNL     1       2.273  40.881  21.785  0.00  0.00    +0.000 A 
ATOM     31  C   UNL     1       2.676  41.816  23.976  0.00  0.00    +0.000 A 
ATOM     32  C   UNL     1       2.007  40.909  23.154  0.00  0.00    +0.000 A 
BRANCH  32  11
ATOM     11  O   UNL     1       1.096  40.050  23.688  0.00  0.00    +0.000 OA
ATOM     39  H   UNL     1       1.036  40.209  24.645  0.00  0.00    +0.000 HD
ENDBRANCH  32  11
ENDBRANCH  25  27
BRANCH  20   8
ATOM      8  O   UNL     1      10.178  46.010  18.983  0.00  0.00    +0.000 OA
ATOM     37  H   UNL     1       9.836  46.886  18.735  0.00  0.00    +0.000 HD
ENDBRANCH  20   8
BRANCH  23   9
ATOM      9  O   UNL     1       7.794  47.229  19.511  0.00  0.00    +0.000 OA
ATOM     38  H   UNL     1       6.877  47.516  19.640  0.00  0.00    +0.000 HD
ENDBRANCH  23   9
BRANCH  18   2
ATOM      2  O   UNL     1      10.530  43.325  19.550  0.00  0.00    +0.000 OA
BRANCH   2  16
ATOM      1  O   UNL     1      11.403  44.350  21.456  0.00  0.00    +0.000 OA
ATOM     12  C   UNL     1      13.876  42.912  21.198  0.00  0.00    +0.000 C 
ATOM     13  C   UNL     1      13.717  44.109  22.136  0.00  0.00    +0.000 C 
ATOM     14  C   UNL     1      12.826  42.936  20.087  0.00  0.00    +0.000 C 
ATOM     15  C   UNL     1      12.263  44.254  22.592  0.00  0.00    +0.000 C 
ATOM     16  C   UNL     1      11.425  43.174  20.651  0.00  0.00    +0.000 C 
BRANCH  12   3
ATOM      3  O   UNL     1      15.182  42.972  20.622  0.00  0.00    +0.000 OA
ATOM     33  H   UNL     1      15.812  42.665  21.296  0.00  0.00    +0.000 HD
ENDBRANCH  12   3
BRANCH  13   4
ATOM      4  O   UNL     1      14.553  43.930  23.276  0.00  0.00    +0.000 OA
ATOM     34  H   UNL     1      14.532  42.988  23.519  0.00  0.00    +0.000 HD
ENDBRANCH  13   4
BRANCH  14   5
ATOM      5  O   UNL     1      12.828  41.681  19.408  0.00  0.00    +0.000 OA
ATOM     35  H   UNL     1      13.751  41.419  19.258  0.00  0.00    +0.000 HD
ENDBRANCH  14   5
BRANCH  15  17
ATOM     17  C   UNL     1      12.056  45.508  23.433  0.00  0.00    +0.000 C 
BRANCH  17   6
ATOM      6  O   UNL     1      12.664  45.312  24.696  0.00  0.00    +0.000 OA
ATOM     36  H   UNL     1      13.253  46.068  24.860  0.00  0.00    +0.000 HD
ENDBRANCH  17   6
ENDBRANCH  15  17
ENDBRANCH   2  16
ENDBRANCH  18   2
TORSDOF 11
ENDMDL
MODEL 6
REMARK VINA RESULT:    -8.074      3.636      8.998
REMARK INTER + INTRA:         -12.569
REMARK INTER:                 -11.326
REMARK INTRA:                  -1.243
REMARK UNBOUND:                -0.954
REMARK  Name = 5320623
REMARK  11 active torsions:
REMARK  status: ('A' for Active; 'I' for Inactive)
REMARK    1  A    between atoms: O_2  and  C_16
REMARK    2  A    between atoms: O_2  and  C_18
REMARK    3  A    between atoms: O_3  and  C_12
REMARK    4  A    between atoms: O_4  and  C_13
REMARK    5  A    between atoms: O_5  and  C_14
REMARK    6  A    between atoms: O_6  and  C_17
REMARK    7  A    between atoms: O_8  and  C_20
REMARK    8  A    between atoms: O_9  and  C_23
REMARK    9  A    between atoms: O_11  and  C_32
REMARK   10  A    between atoms: C_15  and  C_17
REMARK   11  A    between atoms: C_25  and  C_27
REMARK                            x       y       z     vdW  Elec       q    Type
REMARK                         _______ _______ _______ _____ _____    ______ ____
ROOT
ATOM      7  O   UNL     1      10.399  43.152  21.108  0.00  0.00    +0.000 OA
ATOM     10  O   UNL     1      10.142  44.923  17.448  0.00  0.00    +0.000 OA
ATOM     18  C   UNL     1       7.007  44.461  21.352  0.00  0.00    +0.000 A 
ATOM     19  C   UNL     1       8.204  43.817  21.667  0.00  0.00    +0.000 A 
ATOM     20  C   UNL     1       6.853  45.086  20.113  0.00  0.00    +0.000 A 
ATOM     21  C   UNL     1       9.247  43.800  20.741  0.00  0.00    +0.000 A 
ATOM     22  C   UNL     1       9.092  44.426  19.505  0.00  0.00    +0.000 A 
ATOM     23  C   UNL     1       7.895  45.071  19.186  0.00  0.00    +0.000 A 
ATOM     24  C   UNL     1      10.208  44.393  18.549  0.00  0.00    +0.000 A 
ATOM     25  C   UNL     1      11.450  43.112  20.205  0.00  0.00    +0.000 A 
ATOM     26  C   UNL     1      11.425  43.681  18.989  0.00  0.00    +0.000 A 
ENDROOT
BRANCH  25  27
ATOM     27  C   UNL     1      12.642  42.396  20.702  0.00  0.00    +0.000 A 
ATOM     28  C   UNL     1      13.891  42.620  20.118  0.00  0.00    +0.000 A 
ATOM     29  C   UNL     1      12.525  41.489  21.759  0.00  0.00    +0.000 A 
ATOM     30  C   UNL     1      15.016  41.943  20.588  0.00  0.00    +0.000 A 
ATOM     31  C   UNL     1      13.650  40.812  22.229  0.00  0.00    +0.000 A 
ATOM     32  C   UNL     1      14.895  41.038  21.644  0.00  0.00    +0.000 A 
BRANCH  32  11
ATOM     11  O   UNL     1      15.994  40.378  22.102  0.00  0.00    +0.000 OA
ATOM     39  H   UNL     1      16.316  40.822  22.905  0.00  0.00    +0.000 HD
ENDBRANCH  32  11
ENDBRANCH  25  27
BRANCH  20   8
ATOM      8  O   UNL     1       5.679  45.714  19.814  0.00  0.00    +0.000 OA
ATOM     37  H   UNL     1       5.878  46.484  19.253  0.00  0.00    +0.000 HD
ENDBRANCH  20   8
BRANCH  23   9
ATOM      9  O   UNL     1       7.706  45.692  17.987  0.00  0.00    +0.000 OA
ATOM     38  H   UNL     1       8.548  46.015  17.630  0.00  0.00    +0.000 HD
ENDBRANCH  23   9
BRANCH  18   2
ATOM      2  O   UNL     1       5.992  44.471  22.265  0.00  0.00    +0.000 OA
BRANCH   2  16
ATOM      1  O   UNL     1       4.104  43.381  21.432  0.00  0.00    +0.000 OA
ATOM     12  C   UNL     1       3.696  42.008  23.922  0.00  0.00    +0.000 C 
ATOM     13  C   UNL     1       2.632  42.051  22.825  0.00  0.00    +0.000 C 
ATOM     14  C   UNL     1       4.683  43.167  23.781  0.00  0.00    +0.000 C 
ATOM     15  C   UNL     1       3.278  42.216  21.447  0.00  0.00    +0.000 C 
ATOM     16  C   UNL     1       5.195  43.290  22.346  0.00  0.00    +0.000 C 
BRANCH  12   3
ATOM      3  O   UNL     1       3.033  42.098  25.184  0.00  0.00    +0.000 OA
ATOM     33  H   UNL     1       3.072  43.027  25.467  0.00  0.00    +0.000 HD
ENDBRANCH  12   3
BRANCH  13   4
ATOM      4  O   UNL     1       1.879  40.842  22.850  0.00  0.00    +0.000 OA
ATOM     34  H   UNL     1       2.501  40.098  22.773  0.00  0.00    +0.000 HD
ENDBRANCH  13   4
BRANCH  14   5
ATOM      5  O   UNL     1       5.803  42.941  24.637  0.00  0.00    +0.000 OA
ATOM     35  H   UNL     1       6.578  43.372  24.241  0.00  0.00    +0.000 HD
ENDBRANCH  14   5
BRANCH  15  17
ATOM     17  C   UNL     1       2.233  42.380  20.348  0.00  0.00    +0.000 C 
BRANCH  17   6
ATOM      6  O   UNL     1       1.009  42.770  20.943  0.00  0.00    +0.000 OA
ATOM     36  H   UNL     1       1.176  42.918  21.889  0.00  0.00    +0.000 HD
ENDBRANCH  17   6
ENDBRANCH  15  17
ENDBRANCH   2  16
ENDBRANCH  18   2
TORSDOF 11
ENDMDL
MODEL 7
REMARK VINA RESULT:    -8.062      3.230      9.804
REMARK INTER + INTRA:         -12.551
REMARK INTER:                 -11.316
REMARK INTRA:                  -1.235
REMARK UNBOUND:                -0.954
REMARK  Name = 5320623
REMARK  11 active torsions:
REMARK  status: ('A' for Active; 'I' for Inactive)
REMARK    1  A    between atoms: O_2  and  C_16
REMARK    2  A    between atoms: O_2  and  C_18
REMARK    3  A    between atoms: O_3  and  C_12
REMARK    4  A    between atoms: O_4  and  C_13
REMARK    5  A    between atoms: O_5  and  C_14
REMARK    6  A    between atoms: O_6  and  C_17
REMARK    7  A    between atoms: O_8  and  C_20
REMARK    8  A    between atoms: O_9  and  C_23
REMARK    9  A    between atoms: O_11  and  C_32
REMARK   10  A    between atoms: C_15  and  C_17
REMARK   11  A    between atoms: C_25  and  C_27
REMARK                            x       y       z     vdW  Elec       q    Type
REMARK                         _______ _______ _______ _____ _____    ______ ____
ROOT
ATOM      7  O   UNL     1       3.732  41.893  22.385  0.00  0.00    +0.000 OA
ATOM     10  O   UNL     1       4.163  43.971  25.863  0.00  0.00    +0.000 OA
ATOM     18  C   UNL     1       2.238  39.481  24.672  0.00  0.00    +0.000 A 
ATOM     19  C   UNL     1       2.706  40.084  23.505  0.00  0.00    +0.000 A 
ATOM     20  C   UNL     1       2.354  40.140  25.897  0.00  0.00    +0.000 A 
ATOM     21  C   UNL     1       3.291  41.350  23.565  0.00  0.00    +0.000 A 
ATOM     22  C   UNL     1       3.406  42.007  24.789  0.00  0.00    +0.000 A 
ATOM     23  C   UNL     1       2.939  41.405  25.960  0.00  0.00    +0.000 A 
ATOM     24  C   UNL     1       4.027  43.339  24.824  0.00  0.00    +0.000 A 
ATOM     25  C   UNL     1       4.310  43.152  22.413  0.00  0.00    +0.000 A 
ATOM     26  C   UNL     1       4.483  43.880  23.528  0.00  0.00    +0.000 A 
ENDROOT
BRANCH  25  27
ATOM     27  C   UNL     1       4.755  43.638  21.091  0.00  0.00    +0.000 A 
ATOM     28  C   UNL     1       4.808  45.008  20.828  0.00  0.00    +0.000 A 
ATOM     29  C   UNL     1       5.122  42.727  20.096  0.00  0.00    +0.000 A 
ATOM     30  C   UNL     1       5.228  45.466  19.579  0.00  0.00    +0.000 A 
ATOM     31  C   UNL     1       5.541  43.185  18.847  0.00  0.00    +0.000 A 
ATOM     32  C   UNL     1       5.593  44.554  18.588  0.00  0.00    +0.000 A 
BRANCH  32  11
ATOM     11  O   UNL     1       6.003  45.002  17.369  0.00  0.00    +0.000 OA
ATOM     39  H   UNL     1       6.277  45.931  17.450  0.00  0.00    +0.000 HD
ENDBRANCH  32  11
ENDBRANCH  25  27
BRANCH  20   8
ATOM      8  O   UNL     1       1.894  39.541  27.034  0.00  0.00    +0.000 OA
ATOM     37  H   UNL     1       0.974  39.263  26.883  0.00  0.00    +0.000 HD
ENDBRANCH  20   8
BRANCH  23   9
ATOM      9  O   UNL     1       3.033  42.017  27.174  0.00  0.00    +0.000 OA
ATOM     38  H   UNL     1       3.865  42.509  27.248  0.00  0.00    +0.000 HD
ENDBRANCH  23   9
BRANCH  18   2
ATOM      2  O   UNL     1       1.667  38.243  24.602  0.00  0.00    +0.000 OA
BRANCH   2  16
ATOM      1  O   UNL     1      -0.387  37.812  25.622  0.00  0.00    +0.000 OA
ATOM     12  C   UNL     1      -1.544  36.975  23.129  0.00  0.00    +0.000 C 
ATOM     13  C   UNL     1      -2.221  36.716  24.475  0.00  0.00    +0.000 C 
ATOM     14  C   UNL     1      -0.040  37.193  23.299  0.00  0.00    +0.000 C 
ATOM     15  C   UNL     1      -1.810  37.774  25.503  0.00  0.00    +0.000 C 
ATOM     16  C   UNL     1       0.253  38.202  24.410  0.00  0.00    +0.000 C 
BRANCH  12   3
ATOM      3  O   UNL     1      -1.769  35.837  22.296  0.00  0.00    +0.000 OA
ATOM     33  H   UNL     1      -2.245  35.176  22.828  0.00  0.00    +0.000 HD
ENDBRANCH  12   3
BRANCH  13   4
ATOM      4  O   UNL     1      -3.636  36.748  24.306  0.00  0.00    +0.000 OA
ATOM     34  H   UNL     1      -3.851  36.273  23.486  0.00  0.00    +0.000 HD
ENDBRANCH  13   4
BRANCH  14   5
ATOM      5  O   UNL     1       0.504  37.698  22.080  0.00  0.00    +0.000 OA
ATOM     35  H   UNL     1       0.567  38.665  22.155  0.00  0.00    +0.000 HD
ENDBRANCH  14   5
BRANCH  15  17
ATOM     17  C   UNL     1      -2.379  37.471  26.885  0.00  0.00    +0.000 C 
BRANCH  17   6
ATOM      6  O   UNL     1      -3.707  37.959  26.944  0.00  0.00    +0.000 OA
ATOM     36  H   UNL     1      -3.677  38.845  27.345  0.00  0.00    +0.000 HD
ENDBRANCH  17   6
ENDBRANCH  15  17
ENDBRANCH   2  16
ENDBRANCH  18   2
TORSDOF 11
ENDMDL
MODEL 8
REMARK VINA RESULT:    -8.053      2.795      5.290
REMARK INTER + INTRA:         -12.537
REMARK INTER:                 -11.458
REMARK INTRA:                  -1.080
REMARK UNBOUND:                -0.954
REMARK  Name = 5320623
REMARK  11 active torsions:
REMARK  status: ('A' for Active; 'I' for Inactive)
REMARK    1  A    between atoms: O_2  and  C_16
REMARK    2  A    between atoms: O_2  and  C_18
REMARK    3  A    between atoms: O_3  and  C_12
REMARK    4  A    between atoms: O_4  and  C_13
REMARK    5  A    between atoms: O_5  and  C_14
REMARK    6  A    between atoms: O_6  and  C_17
REMARK    7  A    between atoms: O_8  and  C_20
REMARK    8  A    between atoms: O_9  and  C_23
REMARK    9  A    between atoms: O_11  and  C_32
REMARK   10  A    between atoms: C_15  and  C_17
REMARK   11  A    between atoms: C_25  and  C_27
REMARK                            x       y       z     vdW  Elec       q    Type
REMARK                         _______ _______ _______ _____ _____    ______ ____
ROOT
ATOM      7  O   UNL     1       5.593  43.019  21.970  0.00  0.00    +0.000 OA
ATOM     10  O   UNL     1       3.843  43.343  18.305  0.00  0.00    +0.000 OA
ATOM     18  C   UNL     1       8.305  44.684  20.195  0.00  0.00    +0.000 A 
ATOM     19  C   UNL     1       7.562  44.075  21.206  0.00  0.00    +0.000 A 
ATOM     20  C   UNL     1       7.763  44.828  18.917  0.00  0.00    +0.000 A 
ATOM     21  C   UNL     1       6.275  43.609  20.936  0.00  0.00    +0.000 A 
ATOM     22  C   UNL     1       5.735  43.753  19.659  0.00  0.00    +0.000 A 
ATOM     23  C   UNL     1       6.477  44.362  18.644  0.00  0.00    +0.000 A 
ATOM     24  C   UNL     1       4.377  43.252  19.402  0.00  0.00    +0.000 A 
ATOM     25  C   UNL     1       4.308  42.554  21.733  0.00  0.00    +0.000 A 
ATOM     26  C   UNL     1       3.684  42.629  20.547  0.00  0.00    +0.000 A 
ENDROOT
BRANCH  25  27
ATOM     27  C   UNL     1       3.669  41.933  22.911  0.00  0.00    +0.000 A 
ATOM     28  C   UNL     1       2.801  40.851  22.749  0.00  0.00    +0.000 A 
ATOM     29  C   UNL     1       3.928  42.426  24.192  0.00  0.00    +0.000 A 
ATOM     30  C   UNL     1       2.197  40.265  23.861  0.00  0.00    +0.000 A 
ATOM     31  C   UNL     1       3.324  41.840  25.304  0.00  0.00    +0.000 A 
ATOM     32  C   UNL     1       2.458  40.760  25.139  0.00  0.00    +0.000 A 
BRANCH  32  11
ATOM     11  O   UNL     1       1.868  40.188  26.224  0.00  0.00    +0.000 OA
ATOM     39  H   UNL     1       0.994  40.592  26.357  0.00  0.00    +0.000 HD
ENDBRANCH  32  11
ENDBRANCH  25  27
BRANCH  20   8
ATOM      8  O   UNL     1       8.498  45.424  17.933  0.00  0.00    +0.000 OA
ATOM     37  H   UNL     1       7.888  45.745  17.247  0.00  0.00    +0.000 HD
ENDBRANCH  20   8
BRANCH  23   9
ATOM      9  O   UNL     1       5.982  44.522  17.384  0.00  0.00    +0.000 OA
ATOM     38  H   UNL     1       6.703  44.606  16.740  0.00  0.00    +0.000 HD
ENDBRANCH  23   9
BRANCH  18   2
ATOM      2  O   UNL     1       9.564  45.136  20.470  0.00  0.00    +0.000 OA
BRANCH   2  16
ATOM      1  O   UNL     1      11.283  44.641  21.968  0.00  0.00    +0.000 OA
ATOM     12  C   UNL     1      12.584  42.950  20.044  0.00  0.00    +0.000 C 
ATOM     13  C   UNL     1      13.275  43.417  21.325  0.00  0.00    +0.000 C 
ATOM     14  C   UNL     1      11.432  43.881  19.665  0.00  0.00    +0.000 C 
ATOM     15  C   UNL     1      12.249  43.694  22.427  0.00  0.00    +0.000 C 
ATOM     16  C   UNL     1      10.523  44.156  20.863  0.00  0.00    +0.000 C 
BRANCH  12   3
ATOM      3  O   UNL     1      13.555  42.944  18.996  0.00  0.00    +0.000 OA
ATOM     33  H   UNL     1      14.429  42.840  19.410  0.00  0.00    +0.000 HD
ENDBRANCH  12   3
BRANCH  13   4
ATOM      4  O   UNL     1      14.181  42.410  21.767  0.00  0.00    +0.000 OA
ATOM     34  H   UNL     1      14.754  42.800  22.449  0.00  0.00    +0.000 HD
ENDBRANCH  13   4
BRANCH  14   5
ATOM      5  O   UNL     1      10.648  43.271  18.640  0.00  0.00    +0.000 OA
ATOM     35  H   UNL     1      11.131  42.494  18.312  0.00  0.00    +0.000 HD
ENDBRANCH  14   5
BRANCH  15  17
ATOM     17  C   UNL     1      12.902  44.273  23.677  0.00  0.00    +0.000 C 
BRANCH  17   6
ATOM      6  O   UNL     1      14.044  45.013  23.288  0.00  0.00    +0.000 OA
ATOM     36  H   UNL     1      14.725  44.883  23.970  0.00  0.00    +0.000 HD
ENDBRANCH  17   6
ENDBRANCH  15  17
ENDBRANCH   2  16
ENDBRANCH  18   2
TORSDOF 11
ENDMDL
MODEL 9
REMARK VINA RESULT:    -8.003      4.809      9.409
REMARK INTER + INTRA:         -12.467
REMARK INTER:                 -11.513
REMARK INTRA:                  -0.954
REMARK UNBOUND:                -0.954
REMARK  Name = 5320623
REMARK  11 active torsions:
REMARK  status: ('A' for Active; 'I' for Inactive)
REMARK    1  A    between atoms: O_2  and  C_16
REMARK    2  A    between atoms: O_2  and  C_18
REMARK    3  A    between atoms: O_3  and  C_12
REMARK    4  A    between atoms: O_4  and  C_13
REMARK    5  A    between atoms: O_5  and  C_14
REMARK    6  A    between atoms: O_6  and  C_17
REMARK    7  A    between atoms: O_8  and  C_20
REMARK    8  A    between atoms: O_9  and  C_23
REMARK    9  A    between atoms: O_11  and  C_32
REMARK   10  A    between atoms: C_15  and  C_17
REMARK   11  A    between atoms: C_25  and  C_27
REMARK                            x       y       z     vdW  Elec       q    Type
REMARK                         _______ _______ _______ _____ _____    ______ ____
ROOT
ATOM      7  O   UNL     1      12.292  42.766  21.327  0.00  0.00    +0.000 OA
ATOM     10  O   UNL     1      13.103  44.083  17.557  0.00  0.00    +0.000 OA
ATOM     18  C   UNL     1       9.364  44.877  20.824  0.00  0.00    +0.000 A 
ATOM     19  C   UNL     1      10.284  44.007  21.409  0.00  0.00    +0.000 A 
ATOM     20  C   UNL     1       9.582  45.364  19.534  0.00  0.00    +0.000 A 
ATOM     21  C   UNL     1      11.424  43.624  20.700  0.00  0.00    +0.000 A 
ATOM     22  C   UNL     1      11.639  44.111  19.412  0.00  0.00    +0.000 A 
ATOM     23  C   UNL     1      10.721  44.983  18.824  0.00  0.00    +0.000 A 
ATOM     24  C   UNL     1      12.849  43.692  18.689  0.00  0.00    +0.000 A 
ATOM     25  C   UNL     1      13.429  42.362  20.644  0.00  0.00    +0.000 A 
ATOM     26  C   UNL     1      13.750  42.767  19.404  0.00  0.00    +0.000 A 
ENDROOT
BRANCH  25  27
ATOM     27  C   UNL     1      14.296  41.446  21.411  0.00  0.00    +0.000 A 
ATOM     28  C   UNL     1      13.741  40.585  22.361  0.00  0.00    +0.000 A 
ATOM     29  C   UNL     1      15.676  41.438  21.193  0.00  0.00    +0.000 A 
ATOM     30  C   UNL     1      14.561  39.720  23.086  0.00  0.00    +0.000 A 
ATOM     31  C   UNL     1      16.496  40.573  21.918  0.00  0.00    +0.000 A 
ATOM     32  C   UNL     1      15.938  39.715  22.865  0.00  0.00    +0.000 A 
BRANCH  32  11
ATOM     11  O   UNL     1      16.738  38.870  23.573  0.00  0.00    +0.000 OA
ATOM     39  H   UNL     1      16.863  39.230  24.467  0.00  0.00    +0.000 HD
ENDBRANCH  32  11
ENDBRANCH  25  27
BRANCH  20   8
ATOM      8  O   UNL     1       8.677  46.216  18.971  0.00  0.00    +0.000 OA
ATOM     37  H   UNL     1       9.066  46.583  18.159  0.00  0.00    +0.000 HD
ENDBRANCH  20   8
BRANCH  23   9
ATOM      9  O   UNL     1      10.897  45.479  17.567  0.00  0.00    +0.000 OA
ATOM     38  H   UNL     1      10.480  46.350  17.479  0.00  0.00    +0.000 HD
ENDBRANCH  23   9
BRANCH  18   2
ATOM      2  O   UNL     1       8.253  45.245  21.526  0.00  0.00    +0.000 OA
BRANCH   2  16
ATOM      1  O   UNL     1       6.557  44.503  20.105  0.00  0.00    +0.000 OA
ATOM     12  C   UNL     1       4.782  44.056  22.319  0.00  0.00    +0.000 C 
ATOM     13  C   UNL     1       4.298  44.065  20.869  0.00  0.00    +0.000 C 
ATOM     14  C   UNL     1       6.097  44.822  22.468  0.00  0.00    +0.000 C 
ATOM     15  C   UNL     1       5.424  43.653  19.917  0.00  0.00    +0.000 C 
ATOM     16  C   UNL     1       7.115  44.391  21.412  0.00  0.00    +0.000 C 
BRANCH  12   3
ATOM      3  O   UNL     1       3.777  44.674  23.124  0.00  0.00    +0.000 OA
ATOM     33  H   UNL     1       3.979  45.625  23.163  0.00  0.00    +0.000 HD
ENDBRANCH  12   3
BRANCH  13   4
ATOM      4  O   UNL     1       3.208  43.158  20.730  0.00  0.00    +0.000 OA
ATOM     34  H   UNL     1       2.390  43.634  20.953  0.00  0.00    +0.000 HD
ENDBRANCH  13   4
BRANCH  14   5
ATOM      5  O   UNL     1       6.652  44.562  23.757  0.00  0.00    +0.000 OA
ATOM     35  H   UNL     1       6.058  44.942  24.425  0.00  0.00    +0.000 HD
ENDBRANCH  14   5
BRANCH  15  17
ATOM     17  C   UNL     1       5.001  43.767  18.457  0.00  0.00    +0.000 C 
BRANCH  17   6
ATOM      6  O   UNL     1       4.978  45.136  18.098  0.00  0.00    +0.000 OA
ATOM     36  H   UNL     1       5.390  45.218  17.221  0.00  0.00    +0.000 HD
ENDBRANCH  17   6
ENDBRANCH  15  17
ENDBRANCH   2  16
ENDBRANCH  18   2
TORSDOF 11
ENDMDL
