MODEL 1
REMARK VINA RESULT:      -8.8      0.000      0.000
REMARK  Name = 5320623
REMARK  11 active torsions:
REMARK  status: ('A' for Active; 'I' for Inactive)
REMARK    1  A    between atoms: O_2  and  C_16
REMARK    2  A    between atoms: O_2  and  C_18
REMARK    3  A    between atoms: O_3  and  C_12
REMARK    4  A    between atoms: O_4  and  C_13
REMARK    5  A    between atoms: O_5  and  C_14
REMARK    6  A    between atoms: O_6  and  C_17
REMARK    7  A    between atoms: O_8  and  C_20
REMARK    8  A    between atoms: O_9  and  C_23
REMARK    9  A    between atoms: O_11  and  C_32
REMARK   10  A    between atoms: C_15  and  C_17
REMARK   11  A    between atoms: C_25  and  C_27
REMARK                            x       y       z     vdW  Elec       q    Type
REMARK                         _______ _______ _______ _____ _____    ______ ____
ROOT
ATOM      7  O   UNL     1       3.714  42.739  25.045  0.00  0.00    +0.000 OA
ATOM     10  O   UNL     1       1.457  39.858  23.254  0.00  0.00    +0.000 OA
ATOM     18  C   UNL     1       3.990  43.871  21.592  0.00  0.00    +0.000 A 
ATOM     19  C   UNL     1       4.142  43.796  22.977  0.00  0.00    +0.000 A 
ATOM     20  C   UNL     1       3.228  42.916  20.917  0.00  0.00    +0.000 A 
ATOM     21  C   UNL     1       3.529  42.762  23.686  0.00  0.00    +0.000 A 
ATOM     22  C   UNL     1       2.768  41.809  23.010  0.00  0.00    +0.000 A 
ATOM     23  C   UNL     1       2.615  41.881  21.624  0.00  0.00    +0.000 A 
ATOM     24  C   UNL     1       2.135  40.729  23.782  0.00  0.00    +0.000 A 
ATOM     25  C   UNL     1       3.110  41.728  25.777  0.00  0.00    +0.000 A 
ATOM     26  C   UNL     1       2.362  40.751  25.241  0.00  0.00    +0.000 A 
ENDROOT
BRANCH  25  27
ATOM     27  C   UNL     1       3.379  41.795  27.227  0.00  0.00    +0.000 A 
ATOM     28  C   UNL     1       2.763  40.893  28.098  0.00  0.00    +0.000 A 
ATOM     29  C   UNL     1       4.248  42.764  27.736  0.00  0.00    +0.000 A 
ATOM     30  C   UNL     1       3.017  40.957  29.468  0.00  0.00    +0.000 A 
ATOM     31  C   UNL     1       4.502  42.828  29.106  0.00  0.00    +0.000 A 
ATOM     32  C   UNL     1       3.886  41.925  29.972  0.00  0.00    +0.000 A 
BRANCH  32  11
ATOM     11  O   UNL     1       4.133  41.988  31.309  0.00  0.00    +0.000 OA
ATOM     39  H   UNL     1       3.840  42.852  31.644  0.00  0.00    +0.000 HD
ENDBRANCH  32  11
ENDBRANCH  25  27
BRANCH  20   8
ATOM      8  O   UNL     1       3.086  42.998  19.562  0.00  0.00    +0.000 OA
ATOM     37  H   UNL     1       2.136  43.006  19.354  0.00  0.00    +0.000 HD
ENDBRANCH  20   8
BRANCH  23   9
ATOM      9  O   UNL     1       1.879  40.969  20.929  0.00  0.00    +0.000 OA
ATOM     38  H   UNL     1       0.977  41.295  20.781  0.00  0.00    +0.000 HD
ENDBRANCH  23   9
BRANCH  18   2
ATOM      2  O   UNL     1       4.593  44.887  20.908  0.00  0.00    +0.000 OA
BRANCH   2  16
ATOM      1  O   UNL     1       6.861  45.322  21.244  0.00  0.00    +0.000 OA
ATOM     12  C   UNL     1       7.416  45.043  18.439  0.00  0.00    +0.000 C 
ATOM     13  C   UNL     1       8.423  45.647  19.418  0.00  0.00    +0.000 C 
ATOM     14  C   UNL     1       5.990  45.135  18.984  0.00  0.00    +0.000 C 
ATOM     15  C   UNL     1       8.209  45.094  20.829  0.00  0.00    +0.000 C 
ATOM     16  C   UNL     1       5.914  44.637  20.428  0.00  0.00    +0.000 C 
BRANCH  12   3
ATOM      3  O   UNL     1       7.504  45.768  17.211  0.00  0.00    +0.000 OA
ATOM     33  H   UNL     1       6.623  45.749  16.799  0.00  0.00    +0.000 HD
ENDBRANCH  12   3
BRANCH  13   4
ATOM      4  O   UNL     1       9.745  45.338  18.986  0.00  0.00    +0.000 OA
ATOM     34  H   UNL     1      10.368  45.819  19.557  0.00  0.00    +0.000 HD
ENDBRANCH  13   4
BRANCH  14   5
ATOM      5  O   UNL     1       5.126  44.327  18.186  0.00  0.00    +0.000 OA
ATOM     35  H   UNL     1       5.014  44.763  17.325  0.00  0.00    +0.000 HD
ENDBRANCH  14   5
BRANCH  15  17
ATOM     17  C   UNL     1       9.123  45.768  21.846  0.00  0.00    +0.000 C 
BRANCH  17   6
ATOM      6  O   UNL     1       9.750  46.876  21.226  0.00  0.00    +0.000 OA
ATOM     36  H   UNL     1       9.552  46.831  20.275  0.00  0.00    +0.000 HD
ENDBRANCH  17   6
ENDBRANCH  15  17
ENDBRANCH   2  16
ENDBRANCH  18   2
TORSDOF 11
ENDMDL
MODEL 2
REMARK VINA RESULT:      -8.8      1.764      2.812
REMARK  Name = 5320623
REMARK  11 active torsions:
REMARK  status: ('A' for Active; 'I' for Inactive)
REMARK    1  A    between atoms: O_2  and  C_16
REMARK    2  A    between atoms: O_2  and  C_18
REMARK    3  A    between atoms: O_3  and  C_12
REMARK    4  A    between atoms: O_4  and  C_13
REMARK    5  A    between atoms: O_5  and  C_14
REMARK    6  A    between atoms: O_6  and  C_17
REMARK    7  A    between atoms: O_8  and  C_20
REMARK    8  A    between atoms: O_9  and  C_23
REMARK    9  A    between atoms: O_11  and  C_32
REMARK   10  A    between atoms: C_15  and  C_17
REMARK   11  A    between atoms: C_25  and  C_27
REMARK                            x       y       z     vdW  Elec       q    Type
REMARK                         _______ _______ _______ _____ _____    ______ ____
ROOT
ATOM      7  O   UNL     1       4.310  42.701  23.406  0.00  0.00    +0.000 OA
ATOM     10  O   UNL     1       1.642  41.557  20.548  0.00  0.00    +0.000 OA
ATOM     18  C   UNL     1       5.893  44.242  20.508  0.00  0.00    +0.000 A 
ATOM     19  C   UNL     1       5.639  43.836  21.818  0.00  0.00    +0.000 A 
ATOM     20  C   UNL     1       5.017  43.885  19.482  0.00  0.00    +0.000 A 
ATOM     21  C   UNL     1       4.507  43.071  22.100  0.00  0.00    +0.000 A 
ATOM     22  C   UNL     1       3.633  42.715  21.073  0.00  0.00    +0.000 A 
ATOM     23  C   UNL     1       3.884  43.120  19.761  0.00  0.00    +0.000 A 
ATOM     24  C   UNL     1       2.448  41.908  21.399  0.00  0.00    +0.000 A 
ATOM     25  C   UNL     1       3.189  41.947  23.718  0.00  0.00    +0.000 A 
ATOM     26  C   UNL     1       2.280  41.538  22.818  0.00  0.00    +0.000 A 
ENDROOT
BRANCH  25  27
ATOM     27  C   UNL     1       3.078  41.600  25.149  0.00  0.00    +0.000 A 
ATOM     28  C   UNL     1       3.725  42.376  26.112  0.00  0.00    +0.000 A 
ATOM     29  C   UNL     1       2.326  40.490  25.545  0.00  0.00    +0.000 A 
ATOM     30  C   UNL     1       3.621  42.047  27.463  0.00  0.00    +0.000 A 
ATOM     31  C   UNL     1       2.221  40.161  26.896  0.00  0.00    +0.000 A 
ATOM     32  C   UNL     1       2.869  40.939  27.855  0.00  0.00    +0.000 A 
BRANCH  32  11
ATOM     11  O   UNL     1       2.767  40.618  29.174  0.00  0.00    +0.000 OA
ATOM     39  H   UNL     1       3.650  40.394  29.513  0.00  0.00    +0.000 HD
ENDBRANCH  32  11
ENDBRANCH  25  27
BRANCH  20   8
ATOM      8  O   UNL     1       5.274  44.287  18.203  0.00  0.00    +0.000 OA
ATOM     37  H   UNL     1       5.528  45.226  18.222  0.00  0.00    +0.000 HD
ENDBRANCH  20   8
BRANCH  23   9
ATOM      9  O   UNL     1       3.053  42.792  18.732  0.00  0.00    +0.000 OA
ATOM     38  H   UNL     1       2.679  41.906  18.860  0.00  0.00    +0.000 HD
ENDBRANCH  23   9
BRANCH  18   2
ATOM      2  O   UNL     1       7.003  44.991  20.244  0.00  0.00    +0.000 OA
BRANCH   2  16
ATOM      1  O   UNL     1       9.003  43.890  20.729  0.00  0.00    +0.000 OA
ATOM     12  C   UNL     1      10.130  44.645  18.196  0.00  0.00    +0.000 C 
ATOM     13  C   UNL     1      10.977  44.073  19.332  0.00  0.00    +0.000 C 
ATOM     14  C   UNL     1       8.831  45.254  18.726  0.00  0.00    +0.000 C 
ATOM     15  C   UNL     1      10.135  43.170  20.237  0.00  0.00    +0.000 C 
ATOM     16  C   UNL     1       8.120  44.300  19.686  0.00  0.00    +0.000 C 
BRANCH  12   3
ATOM      3  O   UNL     1      10.896  45.656  17.539  0.00  0.00    +0.000 OA
ATOM     33  H   UNL     1      11.800  45.612  17.895  0.00  0.00    +0.000 HD
ENDBRANCH  12   3
BRANCH  13   4
ATOM      4  O   UNL     1      12.054  43.318  18.784  0.00  0.00    +0.000 OA
ATOM     34  H   UNL     1      11.776  42.989  17.912  0.00  0.00    +0.000 HD
ENDBRANCH  13   4
BRANCH  14   5
ATOM      5  O   UNL     1       7.954  45.524  17.633  0.00  0.00    +0.000 OA
ATOM     35  H   UNL     1       7.087  45.137  17.838  0.00  0.00    +0.000 HD
ENDBRANCH  14   5
BRANCH  15  17
ATOM     17  C   UNL     1      10.927  42.681  21.444  0.00  0.00    +0.000 C 
BRANCH  17   6
ATOM      6  O   UNL     1      11.979  43.594  21.695  0.00  0.00    +0.000 OA
ATOM     36  H   UNL     1      12.144  43.597  22.654  0.00  0.00    +0.000 HD
ENDBRANCH  17   6
ENDBRANCH  15  17
ENDBRANCH   2  16
ENDBRANCH  18   2
TORSDOF 11
ENDMDL
MODEL 3
REMARK VINA RESULT:      -8.5      2.425      4.751
REMARK  Name = 5320623
REMARK  11 active torsions:
REMARK  status: ('A' for Active; 'I' for Inactive)
REMARK    1  A    between atoms: O_2  and  C_16
REMARK    2  A    between atoms: O_2  and  C_18
REMARK    3  A    between atoms: O_3  and  C_12
REMARK    4  A    between atoms: O_4  and  C_13
REMARK    5  A    between atoms: O_5  and  C_14
REMARK    6  A    between atoms: O_6  and  C_17
REMARK    7  A    between atoms: O_8  and  C_20
REMARK    8  A    between atoms: O_9  and  C_23
REMARK    9  A    between atoms: O_11  and  C_32
REMARK   10  A    between atoms: C_15  and  C_17
REMARK   11  A    between atoms: C_25  and  C_27
REMARK                            x       y       z     vdW  Elec       q    Type
REMARK                         _______ _______ _______ _____ _____    ______ ____
ROOT
ATOM      7  O   UNL     1       1.788  40.388  22.908  0.00  0.00    +0.000 OA
ATOM     10  O   UNL     1       3.013  41.198  26.709  0.00  0.00    +0.000 OA
ATOM     18  C   UNL     1       3.618  43.474  22.267  0.00  0.00    +0.000 A 
ATOM     19  C   UNL     1       2.853  42.323  22.073  0.00  0.00    +0.000 A 
ATOM     20  C   UNL     1       4.070  43.808  23.544  0.00  0.00    +0.000 A 
ATOM     21  C   UNL     1       2.542  41.506  23.160  0.00  0.00    +0.000 A 
ATOM     22  C   UNL     1       2.995  41.841  24.436  0.00  0.00    +0.000 A 
ATOM     23  C   UNL     1       3.760  42.993  24.633  0.00  0.00    +0.000 A 
ATOM     24  C   UNL     1       2.651  40.963  25.564  0.00  0.00    +0.000 A 
ATOM     25  C   UNL     1       1.470  39.554  23.968  0.00  0.00    +0.000 A 
ATOM     26  C   UNL     1       1.840  39.772  25.240  0.00  0.00    +0.000 A 
ENDROOT
BRANCH  25  27
ATOM     27  C   UNL     1       0.651  38.385  23.587  0.00  0.00    +0.000 A 
ATOM     28  C   UNL     1      -0.486  38.053  24.328  0.00  0.00    +0.000 A 
ATOM     29  C   UNL     1       1.011  37.606  22.485  0.00  0.00    +0.000 A 
ATOM     30  C   UNL     1      -1.259  36.949  23.968  0.00  0.00    +0.000 A 
ATOM     31  C   UNL     1       0.238  36.502  22.125  0.00  0.00    +0.000 A 
ATOM     32  C   UNL     1      -0.896  36.173  22.867  0.00  0.00    +0.000 A 
BRANCH  32  11
ATOM     11  O   UNL     1      -1.651  35.096  22.515  0.00  0.00    +0.000 OA
ATOM     39  H   UNL     1      -1.858  34.582  23.314  0.00  0.00    +0.000 HD
ENDBRANCH  32  11
ENDBRANCH  25  27
BRANCH  20   8
ATOM      8  O   UNL     1       4.817  44.936  23.724  0.00  0.00    +0.000 OA
ATOM     37  H   UNL     1       5.420  44.788  24.473  0.00  0.00    +0.000 HD
ENDBRANCH  20   8
BRANCH  23   9
ATOM      9  O   UNL     1       4.221  43.352  25.864  0.00  0.00    +0.000 OA
ATOM     38  H   UNL     1       4.757  44.159  25.810  0.00  0.00    +0.000 HD
ENDBRANCH  23   9
BRANCH  18   2
ATOM      2  O   UNL     1       3.917  44.266  21.196  0.00  0.00    +0.000 OA
BRANCH   2  16
ATOM      1  O   UNL     1       6.128  44.994  21.031  0.00  0.00    +0.000 OA
ATOM     12  C   UNL     1       6.311  44.090  18.310  0.00  0.00    +0.000 C 
ATOM     13  C   UNL     1       7.354  45.014  18.940  0.00  0.00    +0.000 C 
ATOM     14  C   UNL     1       4.978  44.171  19.056  0.00  0.00    +0.000 C 
ATOM     15  C   UNL     1       7.421  44.806  20.455  0.00  0.00    +0.000 C 
ATOM     16  C   UNL     1       5.177  44.039  20.566  0.00  0.00    +0.000 C 
BRANCH  12   3
ATOM      3  O   UNL     1       6.123  44.496  16.954  0.00  0.00    +0.000 OA
ATOM     33  H   UNL     1       5.951  43.693  16.432  0.00  0.00    +0.000 HD
ENDBRANCH  12   3
BRANCH  13   4
ATOM      4  O   UNL     1       8.631  44.741  18.370  0.00  0.00    +0.000 OA
ATOM     34  H   UNL     1       8.994  43.953  18.810  0.00  0.00    +0.000 HD
ENDBRANCH  13   4
BRANCH  14   5
ATOM      5  O   UNL     1       4.129  43.109  18.622  0.00  0.00    +0.000 OA
ATOM     35  H   UNL     1       3.627  42.789  19.391  0.00  0.00    +0.000 HD
ENDBRANCH  14   5
BRANCH  15  17
ATOM     17  C   UNL     1       8.370  45.797  21.120  0.00  0.00    +0.000 C 
BRANCH  17   6
ATOM      6  O   UNL     1       8.603  46.869  20.226  0.00  0.00    +0.000 OA
ATOM     36  H   UNL     1       8.130  46.672  19.400  0.00  0.00    +0.000 HD
ENDBRANCH  17   6
ENDBRANCH  15  17
ENDBRANCH   2  16
ENDBRANCH  18   2
TORSDOF 11
ENDMDL
MODEL 4
REMARK VINA RESULT:      -8.3      2.359      8.176
REMARK  Name = 5320623
REMARK  11 active torsions:
REMARK  status: ('A' for Active; 'I' for Inactive)
REMARK    1  A    between atoms: O_2  and  C_16
REMARK    2  A    between atoms: O_2  and  C_18
REMARK    3  A    between atoms: O_3  and  C_12
REMARK    4  A    between atoms: O_4  and  C_13
REMARK    5  A    between atoms: O_5  and  C_14
REMARK    6  A    between atoms: O_6  and  C_17
REMARK    7  A    between atoms: O_8  and  C_20
REMARK    8  A    between atoms: O_9  and  C_23
REMARK    9  A    between atoms: O_11  and  C_32
REMARK   10  A    between atoms: C_15  and  C_17
REMARK   11  A    between atoms: C_25  and  C_27
REMARK                            x       y       z     vdW  Elec       q    Type
REMARK                         _______ _______ _______ _____ _____    ______ ____
ROOT
ATOM      7  O   UNL     1       4.483  43.915  22.976  0.00  0.00    +0.000 OA
ATOM     10  O   UNL     1       1.969  41.338  21.067  0.00  0.00    +0.000 OA
ATOM     18  C   UNL     1       3.349  41.994  25.858  0.00  0.00    +0.000 A 
ATOM     19  C   UNL     1       4.013  42.937  25.074  0.00  0.00    +0.000 A 
ATOM     20  C   UNL     1       2.475  41.081  25.266  0.00  0.00    +0.000 A 
ATOM     21  C   UNL     1       3.802  42.966  23.695  0.00  0.00    +0.000 A 
ATOM     22  C   UNL     1       2.928  42.053  23.105  0.00  0.00    +0.000 A 
ATOM     23  C   UNL     1       2.261  41.108  23.887  0.00  0.00    +0.000 A 
ATOM     24  C   UNL     1       2.723  42.106  21.650  0.00  0.00    +0.000 A 
ATOM     25  C   UNL     1       4.299  43.962  21.603  0.00  0.00    +0.000 A 
ATOM     26  C   UNL     1       3.481  43.143  20.922  0.00  0.00    +0.000 A 
ENDROOT
BRANCH  25  27
ATOM     27  C   UNL     1       5.074  45.023  20.929  0.00  0.00    +0.000 A 
ATOM     28  C   UNL     1       6.280  44.717  20.296  0.00  0.00    +0.000 A 
ATOM     29  C   UNL     1       4.604  46.339  20.926  0.00  0.00    +0.000 A 
ATOM     30  C   UNL     1       7.012  45.720  19.660  0.00  0.00    +0.000 A 
ATOM     31  C   UNL     1       5.336  47.342  20.290  0.00  0.00    +0.000 A 
ATOM     32  C   UNL     1       6.540  47.033  19.658  0.00  0.00    +0.000 A 
BRANCH  32  11
ATOM     11  O   UNL     1       7.254  48.012  19.038  0.00  0.00    +0.000 OA
ATOM     39  H   UNL     1       7.024  48.870  19.434  0.00  0.00    +0.000 HD
ENDBRANCH  32  11
ENDBRANCH  25  27
BRANCH  20   8
ATOM      8  O   UNL     1       1.828  40.163  26.041  0.00  0.00    +0.000 OA
ATOM     37  H   UNL     1       2.206  40.198  26.937  0.00  0.00    +0.000 HD
ENDBRANCH  20   8
BRANCH  23   9
ATOM      9  O   UNL     1       1.401  40.200  23.346  0.00  0.00    +0.000 OA
ATOM     38  H   UNL     1       0.594  40.635  23.031  0.00  0.00    +0.000 HD
ENDBRANCH  23   9
BRANCH  18   2
ATOM      2  O   UNL     1       3.563  41.975  27.206  0.00  0.00    +0.000 OA
BRANCH   2  16
ATOM      1  O   UNL     1       5.733  41.118  27.270  0.00  0.00    +0.000 OA
ATOM     12  C   UNL     1       6.291  42.487  29.733  0.00  0.00    +0.000 C 
ATOM     13  C   UNL     1       7.197  41.385  29.184  0.00  0.00    +0.000 C 
ATOM     14  C   UNL     1       4.876  42.376  29.163  0.00  0.00    +0.000 C 
ATOM     15  C   UNL     1       7.094  41.306  27.659  0.00  0.00    +0.000 C 
ATOM     16  C   UNL     1       4.901  42.214  27.643  0.00  0.00    +0.000 C 
BRANCH  12   3
ATOM      3  O   UNL     1       6.243  42.352  31.154  0.00  0.00    +0.000 OA
ATOM     33  H   UNL     1       5.717  41.560  31.354  0.00  0.00    +0.000 HD
ENDBRANCH  12   3
BRANCH  13   4
ATOM      4  O   UNL     1       8.546  41.656  29.552  0.00  0.00    +0.000 OA
ATOM     34  H   UNL     1       8.536  42.142  30.395  0.00  0.00    +0.000 HD
ENDBRANCH  13   4
BRANCH  14   5
ATOM      5  O   UNL     1       4.147  43.562  29.474  0.00  0.00    +0.000 OA
ATOM     35  H   UNL     1       3.454  43.677  28.802  0.00  0.00    +0.000 HD
ENDBRANCH  14   5
BRANCH  15  17
ATOM     17  C   UNL     1       7.898  40.138  27.097  0.00  0.00    +0.000 C 
BRANCH  17   6
ATOM      6  O   UNL     1       9.234  40.563  26.897  0.00  0.00    +0.000 OA
ATOM     36  H   UNL     1       9.204  41.422  26.441  0.00  0.00    +0.000 HD
ENDBRANCH  17   6
ENDBRANCH  15  17
ENDBRANCH   2  16
ENDBRANCH  18   2
TORSDOF 11
ENDMDL
MODEL 5
REMARK VINA RESULT:      -8.1      3.112      6.487
REMARK  Name = 5320623
REMARK  11 active torsions:
REMARK  status: ('A' for Active; 'I' for Inactive)
REMARK    1  A    between atoms: O_2  and  C_16
REMARK    2  A    between atoms: O_2  and  C_18
REMARK    3  A    between atoms: O_3  and  C_12
REMARK    4  A    between atoms: O_4  and  C_13
REMARK    5  A    between atoms: O_5  and  C_14
REMARK    6  A    between atoms: O_6  and  C_17
REMARK    7  A    between atoms: O_8  and  C_20
REMARK    8  A    between atoms: O_9  and  C_23
REMARK    9  A    between atoms: O_11  and  C_32
REMARK   10  A    between atoms: C_15  and  C_17
REMARK   11  A    between atoms: C_25  and  C_27
REMARK                            x       y       z     vdW  Elec       q    Type
REMARK                         _______ _______ _______ _____ _____    ______ ____
ROOT
ATOM      7  O   UNL     1       6.152  42.987  21.253  0.00  0.00    +0.000 OA
ATOM     10  O   UNL     1       5.444  46.920  20.458  0.00  0.00    +0.000 OA
ATOM     18  C   UNL     1       9.402  43.876  19.863  0.00  0.00    +0.000 A 
ATOM     19  C   UNL     1       8.360  43.141  20.428  0.00  0.00    +0.000 A 
ATOM     20  C   UNL     1       9.225  45.229  19.568  0.00  0.00    +0.000 A 
ATOM     21  C   UNL     1       7.140  43.761  20.697  0.00  0.00    +0.000 A 
ATOM     22  C   UNL     1       6.965  45.113  20.401  0.00  0.00    +0.000 A 
ATOM     23  C   UNL     1       8.006  45.852  19.835  0.00  0.00    +0.000 A 
ATOM     24  C   UNL     1       5.668  45.741  20.694  0.00  0.00    +0.000 A 
ATOM     25  C   UNL     1       4.931  43.579  21.538  0.00  0.00    +0.000 A 
ATOM     26  C   UNL     1       4.640  44.867  21.294  0.00  0.00    +0.000 A 
ENDROOT
BRANCH  25  27
ATOM     27  C   UNL     1       3.940  42.656  22.127  0.00  0.00    +0.000 A 
ATOM     28  C   UNL     1       3.693  42.675  23.501  0.00  0.00    +0.000 A 
ATOM     29  C   UNL     1       3.248  41.757  21.311  0.00  0.00    +0.000 A 
ATOM     30  C   UNL     1       2.757  41.802  24.057  0.00  0.00    +0.000 A 
ATOM     31  C   UNL     1       2.312  40.885  21.867  0.00  0.00    +0.000 A 
ATOM     32  C   UNL     1       2.068  40.906  23.240  0.00  0.00    +0.000 A 
BRANCH  32  11
ATOM     11  O   UNL     1       1.154  40.055  23.782  0.00  0.00    +0.000 OA
ATOM     39  H   UNL     1       0.976  39.339  23.148  0.00  0.00    +0.000 HD
ENDBRANCH  32  11
ENDBRANCH  25  27
BRANCH  20   8
ATOM      8  O   UNL     1      10.250  45.941  19.015  0.00  0.00    +0.000 OA
ATOM     37  H   UNL     1       9.871  46.617  18.426  0.00  0.00    +0.000 HD
ENDBRANCH  20   8
BRANCH  23   9
ATOM      9  O   UNL     1       7.872  47.174  19.534  0.00  0.00    +0.000 OA
ATOM     38  H   UNL     1       6.990  47.358  19.176  0.00  0.00    +0.000 HD
ENDBRANCH  23   9
BRANCH  18   2
ATOM      2  O   UNL     1      10.592  43.260  19.605  0.00  0.00    +0.000 OA
BRANCH   2  16
ATOM      1  O   UNL     1      11.465  44.302  21.502  0.00  0.00    +0.000 OA
ATOM     12  C   UNL     1      13.944  42.874  21.248  0.00  0.00    +0.000 C 
ATOM     13  C   UNL     1      13.782  44.077  22.178  0.00  0.00    +0.000 C 
ATOM     14  C   UNL     1      12.891  42.885  20.139  0.00  0.00    +0.000 C 
ATOM     15  C   UNL     1      12.328  44.218  22.636  0.00  0.00    +0.000 C 
ATOM     16  C   UNL     1      11.491  43.120  20.705  0.00  0.00    +0.000 C 
BRANCH  12   3
ATOM      3  O   UNL     1      15.248  42.936  20.668  0.00  0.00    +0.000 OA
ATOM     33  H   UNL     1      15.809  42.299  21.143  0.00  0.00    +0.000 HD
ENDBRANCH  12   3
BRANCH  13   4
ATOM      4  O   UNL     1      14.621  43.909  23.317  0.00  0.00    +0.000 OA
ATOM     34  H   UNL     1      14.072  43.578  24.048  0.00  0.00    +0.000 HD
ENDBRANCH  13   4
BRANCH  14   5
ATOM      5  O   UNL     1      12.898  41.625  19.469  0.00  0.00    +0.000 OA
ATOM     35  H   UNL     1      12.058  41.534  18.988  0.00  0.00    +0.000 HD
ENDBRANCH  14   5
BRANCH  15  17
ATOM     17  C   UNL     1      12.118  45.477  23.469  0.00  0.00    +0.000 C 
BRANCH  17   6
ATOM      6  O   UNL     1      12.782  45.317  24.709  0.00  0.00    +0.000 OA
ATOM     36  H   UNL     1      12.205  45.682  25.401  0.00  0.00    +0.000 HD
ENDBRANCH  17   6
ENDBRANCH  15  17
ENDBRANCH   2  16
ENDBRANCH  18   2
TORSDOF 11
ENDMDL
MODEL 6
REMARK VINA RESULT:      -7.9      2.505      4.994
REMARK  Name = 5320623
REMARK  11 active torsions:
REMARK  status: ('A' for Active; 'I' for Inactive)
REMARK    1  A    between atoms: O_2  and  C_16
REMARK    2  A    between atoms: O_2  and  C_18
REMARK    3  A    between atoms: O_3  and  C_12
REMARK    4  A    between atoms: O_4  and  C_13
REMARK    5  A    between atoms: O_5  and  C_14
REMARK    6  A    between atoms: O_6  and  C_17
REMARK    7  A    between atoms: O_8  and  C_20
REMARK    8  A    between atoms: O_9  and  C_23
REMARK    9  A    between atoms: O_11  and  C_32
REMARK   10  A    between atoms: C_15  and  C_17
REMARK   11  A    between atoms: C_25  and  C_27
REMARK                            x       y       z     vdW  Elec       q    Type
REMARK                         _______ _______ _______ _____ _____    ______ ____
ROOT
ATOM      7  O   UNL     1       3.475  40.363  22.978  0.00  0.00    +0.000 OA
ATOM     10  O   UNL     1       3.317  42.321  26.547  0.00  0.00    +0.000 OA
ATOM     18  C   UNL     1       6.384  42.520  22.567  0.00  0.00    +0.000 A 
ATOM     19  C   UNL     1       5.399  41.564  22.319  0.00  0.00    +0.000 A 
ATOM     20  C   UNL     1       6.387  43.225  23.772  0.00  0.00    +0.000 A 
ATOM     21  C   UNL     1       4.417  41.314  23.278  0.00  0.00    +0.000 A 
ATOM     22  C   UNL     1       4.422  42.020  24.481  0.00  0.00    +0.000 A 
ATOM     23  C   UNL     1       5.406  42.978  24.733  0.00  0.00    +0.000 A 
ATOM     24  C   UNL     1       3.374  41.738  25.473  0.00  0.00    +0.000 A 
ATOM     25  C   UNL     1       2.491  40.089  23.915  0.00  0.00    +0.000 A 
ATOM     26  C   UNL     1       2.386  40.705  25.103  0.00  0.00    +0.000 A 
ENDROOT
BRANCH  25  27
ATOM     27  C   UNL     1       1.527  39.055  23.488  0.00  0.00    +0.000 A 
ATOM     28  C   UNL     1       0.451  38.715  24.311  0.00  0.00    +0.000 A 
ATOM     29  C   UNL     1       1.688  38.410  22.259  0.00  0.00    +0.000 A 
ATOM     30  C   UNL     1      -0.459  37.739  23.907  0.00  0.00    +0.000 A 
ATOM     31  C   UNL     1       0.778  37.434  21.855  0.00  0.00    +0.000 A 
ATOM     32  C   UNL     1      -0.295  37.097  22.679  0.00  0.00    +0.000 A 
BRANCH  32  11
ATOM     11  O   UNL     1      -1.184  36.144  22.285  0.00  0.00    +0.000 OA
ATOM     39  H   UNL     1      -1.125  35.388  22.893  0.00  0.00    +0.000 HD
ENDBRANCH  32  11
ENDBRANCH  25  27
BRANCH  20   8
ATOM      8  O   UNL     1       7.354  44.159  24.006  0.00  0.00    +0.000 OA
ATOM     37  H   UNL     1       7.954  43.815  24.691  0.00  0.00    +0.000 HD
ENDBRANCH  20   8
BRANCH  23   9
ATOM      9  O   UNL     1       5.444  43.687  25.896  0.00  0.00    +0.000 OA
ATOM     38  H   UNL     1       6.253  43.488  26.394  0.00  0.00    +0.000 HD
ENDBRANCH  23   9
BRANCH  18   2
ATOM      2  O   UNL     1       7.340  42.755  21.623  0.00  0.00    +0.000 OA
BRANCH   2  16
ATOM      1  O   UNL     1       6.315  44.730  20.917  0.00  0.00    +0.000 OA
ATOM     12  C   UNL     1       8.684  45.558  19.518  0.00  0.00    +0.000 C 
ATOM     13  C   UNL     1       7.331  46.239  19.314  0.00  0.00    +0.000 C 
ATOM     14  C   UNL     1       8.513  44.141  20.068  0.00  0.00    +0.000 C 
ATOM     15  C   UNL     1       6.461  46.107  20.567  0.00  0.00    +0.000 C 
ATOM     16  C   UNL     1       7.557  44.119  21.260  0.00  0.00    +0.000 C 
BRANCH  12   3
ATOM      3  O   UNL     1       9.346  45.502  18.254  0.00  0.00    +0.000 OA
ATOM     33  H   UNL     1       9.523  44.565  18.059  0.00  0.00    +0.000 HD
ENDBRANCH  12   3
BRANCH  13   4
ATOM      4  O   UNL     1       7.536  47.619  19.025  0.00  0.00    +0.000 OA
ATOM     34  H   UNL     1       7.045  48.140  19.684  0.00  0.00    +0.000 HD
ENDBRANCH  13   4
BRANCH  14   5
ATOM      5  O   UNL     1       9.780  43.646  20.501  0.00  0.00    +0.000 OA
ATOM     35  H   UNL     1      10.030  44.122  21.310  0.00  0.00    +0.000 HD
ENDBRANCH  14   5
BRANCH  15  17
ATOM     17  C   UNL     1       5.063  46.676  20.347  0.00  0.00    +0.000 C 
BRANCH  17   6
ATOM      6  O   UNL     1       5.058  48.033  20.750  0.00  0.00    +0.000 OA
ATOM     36  H   UNL     1       4.311  48.469  20.305  0.00  0.00    +0.000 HD
ENDBRANCH  17   6
ENDBRANCH  15  17
ENDBRANCH   2  16
ENDBRANCH  18   2
TORSDOF 11
ENDMDL
MODEL 7
REMARK VINA RESULT:      -7.9      3.193      5.854
REMARK  Name = 5320623
REMARK  11 active torsions:
REMARK  status: ('A' for Active; 'I' for Inactive)
REMARK    1  A    between atoms: O_2  and  C_16
REMARK    2  A    between atoms: O_2  and  C_18
REMARK    3  A    between atoms: O_3  and  C_12
REMARK    4  A    between atoms: O_4  and  C_13
REMARK    5  A    between atoms: O_5  and  C_14
REMARK    6  A    between atoms: O_6  and  C_17
REMARK    7  A    between atoms: O_8  and  C_20
REMARK    8  A    between atoms: O_9  and  C_23
REMARK    9  A    between atoms: O_11  and  C_32
REMARK   10  A    between atoms: C_15  and  C_17
REMARK   11  A    between atoms: C_25  and  C_27
REMARK                            x       y       z     vdW  Elec       q    Type
REMARK                         _______ _______ _______ _____ _____    ______ ____
ROOT
ATOM      7  O   UNL     1       5.708  42.717  21.654  0.00  0.00    +0.000 OA
ATOM     10  O   UNL     1       4.160  43.903  18.077  0.00  0.00    +0.000 OA
ATOM     18  C   UNL     1       8.705  44.202  20.206  0.00  0.00    +0.000 A 
ATOM     19  C   UNL     1       7.842  43.560  21.095  0.00  0.00    +0.000 A 
ATOM     20  C   UNL     1       8.237  44.635  18.964  0.00  0.00    +0.000 A 
ATOM     21  C   UNL     1       6.509  43.352  20.739  0.00  0.00    +0.000 A 
ATOM     22  C   UNL     1       6.044  43.786  19.498  0.00  0.00    +0.000 A 
ATOM     23  C   UNL     1       6.905  44.428  18.606  0.00  0.00    +0.000 A 
ATOM     24  C   UNL     1       4.635  43.553  19.149  0.00  0.00    +0.000 A 
ATOM     25  C   UNL     1       4.377  42.504  21.331  0.00  0.00    +0.000 A 
ATOM     26  C   UNL     1       3.814  42.867  20.167  0.00  0.00    +0.000 A 
ENDROOT
BRANCH  25  27
ATOM     27  C   UNL     1       3.609  41.807  22.382  0.00  0.00    +0.000 A 
ATOM     28  C   UNL     1       3.673  42.246  23.706  0.00  0.00    +0.000 A 
ATOM     29  C   UNL     1       2.816  40.703  22.057  0.00  0.00    +0.000 A 
ATOM     30  C   UNL     1       2.947  41.588  24.699  0.00  0.00    +0.000 A 
ATOM     31  C   UNL     1       2.091  40.045  23.049  0.00  0.00    +0.000 A 
ATOM     32  C   UNL     1       2.157  40.486  24.370  0.00  0.00    +0.000 A 
BRANCH  32  11
ATOM     11  O   UNL     1       1.449  39.843  25.339  0.00  0.00    +0.000 OA
ATOM     39  H   UNL     1       0.562  40.238  25.396  0.00  0.00    +0.000 HD
ENDBRANCH  32  11
ENDBRANCH  25  27
BRANCH  20   8
ATOM      8  O   UNL     1       9.089  45.260  18.101  0.00  0.00    +0.000 OA
ATOM     37  H   UNL     1       8.742  46.151  17.920  0.00  0.00    +0.000 HD
ENDBRANCH  20   8
BRANCH  23   9
ATOM      9  O   UNL     1       6.486  44.866  17.385  0.00  0.00    +0.000 OA
ATOM     38  H   UNL     1       6.908  45.709  17.159  0.00  0.00    +0.000 HD
ENDBRANCH  23   9
BRANCH  18   2
ATOM      2  O   UNL     1      10.007  44.400  20.564  0.00  0.00    +0.000 OA
BRANCH   2  16
ATOM      1  O   UNL     1      11.162  42.949  21.981  0.00  0.00    +0.000 OA
ATOM     12  C   UNL     1      13.119  42.392  19.952  0.00  0.00    +0.000 C 
ATOM     13  C   UNL     1      13.321  42.000  21.416  0.00  0.00    +0.000 C 
ATOM     14  C   UNL     1      12.104  43.529  19.818  0.00  0.00    +0.000 C 
ATOM     15  C   UNL     1      11.975  41.781  22.111  0.00  0.00    +0.000 C 
ATOM     16  C   UNL     1      10.837  43.241  20.624  0.00  0.00    +0.000 C 
BRANCH  12   3
ATOM      3  O   UNL     1      14.379  42.815  19.430  0.00  0.00    +0.000 OA
ATOM     33  H   UNL     1      14.357  42.674  18.468  0.00  0.00    +0.000 HD
ENDBRANCH  12   3
BRANCH  13   4
ATOM      4  O   UNL     1      14.086  40.800  21.482  0.00  0.00    +0.000 OA
ATOM     34  H   UNL     1      14.217  40.579  22.420  0.00  0.00    +0.000 HD
ENDBRANCH  13   4
BRANCH  14   5
ATOM      5  O   UNL     1      11.738  43.677  18.447  0.00  0.00    +0.000 OA
ATOM     35  H   UNL     1      10.830  44.019  18.411  0.00  0.00    +0.000 HD
ENDBRANCH  14   5
BRANCH  15  17
ATOM     17  C   UNL     1      12.146  41.504  23.601  0.00  0.00    +0.000 C 
BRANCH  17   6
ATOM      6  O   UNL     1      13.296  42.191  24.059  0.00  0.00    +0.000 OA
ATOM     36  H   UNL     1      14.057  41.595  23.951  0.00  0.00    +0.000 HD
ENDBRANCH  17   6
ENDBRANCH  15  17
ENDBRANCH   2  16
ENDBRANCH  18   2
TORSDOF 11
ENDMDL
MODEL 8
REMARK VINA RESULT:      -7.8      3.272      9.847
REMARK  Name = 5320623
REMARK  11 active torsions:
REMARK  status: ('A' for Active; 'I' for Inactive)
REMARK    1  A    between atoms: O_2  and  C_16
REMARK    2  A    between atoms: O_2  and  C_18
REMARK    3  A    between atoms: O_3  and  C_12
REMARK    4  A    between atoms: O_4  and  C_13
REMARK    5  A    between atoms: O_5  and  C_14
REMARK    6  A    between atoms: O_6  and  C_17
REMARK    7  A    between atoms: O_8  and  C_20
REMARK    8  A    between atoms: O_9  and  C_23
REMARK    9  A    between atoms: O_11  and  C_32
REMARK   10  A    between atoms: C_15  and  C_17
REMARK   11  A    between atoms: C_25  and  C_27
REMARK                            x       y       z     vdW  Elec       q    Type
REMARK                         _______ _______ _______ _____ _____    ______ ____
ROOT
ATOM      7  O   UNL     1       3.689  41.858  22.454  0.00  0.00    +0.000 OA
ATOM     10  O   UNL     1       4.162  43.978  25.901  0.00  0.00    +0.000 OA
ATOM     18  C   UNL     1       2.222  39.474  24.788  0.00  0.00    +0.000 A 
ATOM     19  C   UNL     1       2.676  40.064  23.608  0.00  0.00    +0.000 A 
ATOM     20  C   UNL     1       2.353  40.149  26.003  0.00  0.00    +0.000 A 
ATOM     21  C   UNL     1       3.262  41.329  23.646  0.00  0.00    +0.000 A 
ATOM     22  C   UNL     1       3.392  42.001  24.861  0.00  0.00    +0.000 A 
ATOM     23  C   UNL     1       2.939  41.414  26.044  0.00  0.00    +0.000 A 
ATOM     24  C   UNL     1       4.014  43.333  24.871  0.00  0.00    +0.000 A 
ATOM     25  C   UNL     1       4.268  43.117  22.460  0.00  0.00    +0.000 A 
ATOM     26  C   UNL     1       4.454  43.859  23.563  0.00  0.00    +0.000 A 
ENDROOT
BRANCH  25  27
ATOM     27  C   UNL     1       4.697  43.586  21.127  0.00  0.00    +0.000 A 
ATOM     28  C   UNL     1       5.003  42.665  20.123  0.00  0.00    +0.000 A 
ATOM     29  C   UNL     1       4.801  44.955  20.865  0.00  0.00    +0.000 A 
ATOM     30  C   UNL     1       5.409  43.108  18.864  0.00  0.00    +0.000 A 
ATOM     31  C   UNL     1       5.206  45.399  19.606  0.00  0.00    +0.000 A 
ATOM     32  C   UNL     1       5.511  44.475  18.606  0.00  0.00    +0.000 A 
BRANCH  32  11
ATOM     11  O   UNL     1       5.907  44.908  17.377  0.00  0.00    +0.000 OA
ATOM     39  H   UNL     1       6.222  45.825  17.453  0.00  0.00    +0.000 HD
ENDBRANCH  32  11
ENDBRANCH  25  27
BRANCH  20   8
ATOM      8  O   UNL     1       1.906  39.564  27.153  0.00  0.00    +0.000 OA
ATOM     37  H   UNL     1       2.252  38.655  27.188  0.00  0.00    +0.000 HD
ENDBRANCH  20   8
BRANCH  23   9
ATOM      9  O   UNL     1       3.047  42.041  27.249  0.00  0.00    +0.000 OA
ATOM     38  H   UNL     1       3.975  42.099  27.524  0.00  0.00    +0.000 HD
ENDBRANCH  23   9
BRANCH  18   2
ATOM      2  O   UNL     1       1.650  38.236  24.740  0.00  0.00    +0.000 OA
BRANCH   2  16
ATOM      1  O   UNL     1      -0.418  37.779  25.720  0.00  0.00    +0.000 OA
ATOM     12  C   UNL     1      -1.532  36.978  23.196  0.00  0.00    +0.000 C 
ATOM     13  C   UNL     1      -2.229  36.695  24.527  0.00  0.00    +0.000 C 
ATOM     14  C   UNL     1      -0.031  37.201  23.393  0.00  0.00    +0.000 C 
ATOM     15  C   UNL     1      -1.839  37.738  25.578  0.00  0.00    +0.000 C 
ATOM     16  C   UNL     1       0.240  38.192  24.525  0.00  0.00    +0.000 C 
BRANCH  12   3
ATOM      3  O   UNL     1      -1.738  35.853  22.341  0.00  0.00    +0.000 OA
ATOM     33  H   UNL     1      -1.603  35.053  22.876  0.00  0.00    +0.000 HD
ENDBRANCH  12   3
BRANCH  13   4
ATOM      4  O   UNL     1      -3.640  36.724  24.336  0.00  0.00    +0.000 OA
ATOM     34  H   UNL     1      -3.926  37.654  24.350  0.00  0.00    +0.000 HD
ENDBRANCH  13   4
BRANCH  14   5
ATOM      5  O   UNL     1       0.530  37.728  22.192  0.00  0.00    +0.000 OA
ATOM     35  H   UNL     1       0.802  38.645  22.362  0.00  0.00    +0.000 HD
ENDBRANCH  14   5
BRANCH  15  17
ATOM     17  C   UNL     1      -2.428  37.410  26.945  0.00  0.00    +0.000 C 
BRANCH  17   6
ATOM      6  O   UNL     1      -3.731  37.958  27.019  0.00  0.00    +0.000 OA
ATOM     36  H   UNL     1      -4.063  37.807  27.921  0.00  0.00    +0.000 HD
ENDBRANCH  17   6
ENDBRANCH  15  17
ENDBRANCH   2  16
ENDBRANCH  18   2
TORSDOF 11
ENDMDL
MODEL 9
REMARK VINA RESULT:      -7.8      2.849      9.038
REMARK  Name = 5320623
REMARK  11 active torsions:
REMARK  status: ('A' for Active; 'I' for Inactive)
REMARK    1  A    between atoms: O_2  and  C_16
REMARK    2  A    between atoms: O_2  and  C_18
REMARK    3  A    between atoms: O_3  and  C_12
REMARK    4  A    between atoms: O_4  and  C_13
REMARK    5  A    between atoms: O_5  and  C_14
REMARK    6  A    between atoms: O_6  and  C_17
REMARK    7  A    between atoms: O_8  and  C_20
REMARK    8  A    between atoms: O_9  and  C_23
REMARK    9  A    between atoms: O_11  and  C_32
REMARK   10  A    between atoms: C_15  and  C_17
REMARK   11  A    between atoms: C_25  and  C_27
REMARK                            x       y       z     vdW  Elec       q    Type
REMARK                         _______ _______ _______ _____ _____    ______ ____
ROOT
ATOM      7  O   UNL     1       9.303  43.905  20.864  0.00  0.00    +0.000 OA
ATOM     10  O   UNL     1       7.474  45.404  17.546  0.00  0.00    +0.000 OA
ATOM     18  C   UNL     1       6.051  44.682  22.314  0.00  0.00    +0.000 A 
ATOM     19  C   UNL     1       7.371  44.251  22.177  0.00  0.00    +0.000 A 
ATOM     20  C   UNL     1       5.367  45.204  21.215  0.00  0.00    +0.000 A 
ATOM     21  C   UNL     1       8.006  44.344  20.938  0.00  0.00    +0.000 A 
ATOM     22  C   UNL     1       7.320  44.866  19.841  0.00  0.00    +0.000 A 
ATOM     23  C   UNL     1       5.999  45.299  19.975  0.00  0.00    +0.000 A 
ATOM     24  C   UNL     1       8.014  44.954  18.548  0.00  0.00    +0.000 A 
ATOM     25  C   UNL     1       9.957  43.978  19.643  0.00  0.00    +0.000 A 
ATOM     26  C   UNL     1       9.407  44.466  18.520  0.00  0.00    +0.000 A 
ENDROOT
BRANCH  25  27
ATOM     27  C   UNL     1      11.349  43.486  19.677  0.00  0.00    +0.000 A 
ATOM     28  C   UNL     1      11.713  42.471  20.565  0.00  0.00    +0.000 A 
ATOM     29  C   UNL     1      12.308  44.036  18.823  0.00  0.00    +0.000 A 
ATOM     30  C   UNL     1      13.028  42.007  20.598  0.00  0.00    +0.000 A 
ATOM     31  C   UNL     1      13.623  43.572  18.856  0.00  0.00    +0.000 A 
ATOM     32  C   UNL     1      13.983  42.558  19.743  0.00  0.00    +0.000 A 
BRANCH  32  11
ATOM     11  O   UNL     1      15.267  42.105  19.775  0.00  0.00    +0.000 OA
ATOM     39  H   UNL     1      15.421  41.654  20.623  0.00  0.00    +0.000 HD
ENDBRANCH  32  11
ENDBRANCH  25  27
BRANCH  20   8
ATOM      8  O   UNL     1       4.076  45.623  21.359  0.00  0.00    +0.000 OA
ATOM     37  H   UNL     1       4.084  46.494  21.794  0.00  0.00    +0.000 HD
ENDBRANCH  20   8
BRANCH  23   9
ATOM      9  O   UNL     1       5.297  45.813  18.927  0.00  0.00    +0.000 OA
ATOM     38  H   UNL     1       5.838  46.445  18.428  0.00  0.00    +0.000 HD
ENDBRANCH  23   9
BRANCH  18   2
ATOM      2  O   UNL     1       5.440  44.586  23.531  0.00  0.00    +0.000 OA
BRANCH   2  16
ATOM      1  O   UNL     1       3.707  43.077  23.118  0.00  0.00    +0.000 OA
ATOM     12  C   UNL     1       3.859  42.043  25.794  0.00  0.00    +0.000 C 
ATOM     13  C   UNL     1       2.685  41.739  24.863  0.00  0.00    +0.000 C 
ATOM     14  C   UNL     1       4.587  43.319  25.369  0.00  0.00    +0.000 C 
ATOM     15  C   UNL     1       3.123  41.804  23.397  0.00  0.00    +0.000 C 
ATOM     16  C   UNL     1       4.895  43.312  23.872  0.00  0.00    +0.000 C 
BRANCH  12   3
ATOM      3  O   UNL     1       3.344  42.206  27.116  0.00  0.00    +0.000 OA
ATOM     33  H   UNL     1       2.379  42.093  27.068  0.00  0.00    +0.000 HD
ENDBRANCH  12   3
BRANCH  13   4
ATOM      4  O   UNL     1       2.182  40.437  25.147  0.00  0.00    +0.000 OA
ATOM     34  H   UNL     1       2.867  39.790  24.902  0.00  0.00    +0.000 HD
ENDBRANCH  13   4
BRANCH  14   5
ATOM      5  O   UNL     1       5.821  43.418  26.079  0.00  0.00    +0.000 OA
ATOM     35  H   UNL     1       6.217  42.532  26.122  0.00  0.00    +0.000 HD
ENDBRANCH  14   5
BRANCH  15  17
ATOM     17  C   UNL     1       1.945  41.621  22.447  0.00  0.00    +0.000 C 
BRANCH  17   6
ATOM      6  O   UNL     1       1.805  40.242  22.160  0.00  0.00    +0.000 OA
ATOM     36  H   UNL     1       0.963  40.124  21.687  0.00  0.00    +0.000 HD
ENDBRANCH  17   6
ENDBRANCH  15  17
ENDBRANCH   2  16
ENDBRANCH  18   2
TORSDOF 11
ENDMDL
