MODEL 1
REMARK VINA RESULT:      -8.9      0.000      0.000
REMARK  Name = 5320623
REMARK  11 active torsions:
REMARK  status: ('A' for Active; 'I' for Inactive)
REMARK    1  A    between atoms: O_2  and  C_16
REMARK    2  A    between atoms: O_2  and  C_18
REMARK    3  A    between atoms: O_3  and  C_12
REMARK    4  A    between atoms: O_4  and  C_13
REMARK    5  A    between atoms: O_5  and  C_14
REMARK    6  A    between atoms: O_6  and  C_17
REMARK    7  A    between atoms: O_8  and  C_20
REMARK    8  A    between atoms: O_9  and  C_23
REMARK    9  A    between atoms: O_11  and  C_32
REMARK   10  A    between atoms: C_15  and  C_17
REMARK   11  A    between atoms: C_25  and  C_27
REMARK                            x       y       z     vdW  Elec       q    Type
REMARK                         _______ _______ _______ _____ _____    ______ ____
ROOT
ATOM      7  O   UNL     1       3.715  42.776  25.077  0.00  0.00    +0.000 OA
ATOM     10  O   UNL     1       1.425  39.863  23.382  0.00  0.00    +0.000 OA
ATOM     18  C   UNL     1       3.920  43.848  21.600  0.00  0.00    +0.000 A 
ATOM     19  C   UNL     1       4.100  43.796  22.982  0.00  0.00    +0.000 A 
ATOM     20  C   UNL     1       3.145  42.881  20.958  0.00  0.00    +0.000 A 
ATOM     21  C   UNL     1       3.503  42.775  23.721  0.00  0.00    +0.000 A 
ATOM     22  C   UNL     1       2.729  41.809  23.078  0.00  0.00    +0.000 A 
ATOM     23  C   UNL     1       2.548  41.858  21.694  0.00  0.00    +0.000 A 
ATOM     24  C   UNL     1       2.113  40.743  23.881  0.00  0.00    +0.000 A 
ATOM     25  C   UNL     1       3.128  41.777  25.838  0.00  0.00    +0.000 A 
ATOM     26  C   UNL     1       2.369  40.790  25.335  0.00  0.00    +0.000 A 
ENDROOT
BRANCH  25  27
ATOM     27  C   UNL     1       3.426  41.869  27.282  0.00  0.00    +0.000 A 
ATOM     28  C   UNL     1       4.322  42.831  27.753  0.00  0.00    +0.000 A 
ATOM     29  C   UNL     1       2.816  40.991  28.181  0.00  0.00    +0.000 A 
ATOM     30  C   UNL     1       4.603  42.917  29.117  0.00  0.00    +0.000 A 
ATOM     31  C   UNL     1       3.097  41.078  29.545  0.00  0.00    +0.000 A 
ATOM     32  C   UNL     1       3.992  42.040  30.012  0.00  0.00    +0.000 A 
BRANCH  32  11
ATOM     11  O   UNL     1       4.267  42.124  31.343  0.00  0.00    +0.000 OA
ATOM     39  H   UNL     1       5.162  42.485  31.457  0.00  0.00    +0.000 HD
ENDBRANCH  32  11
ENDBRANCH  25  27
BRANCH  20   8
ATOM      8  O   UNL     1       2.976  42.939  19.604  0.00  0.00    +0.000 OA
ATOM     37  H   UNL     1       3.517  43.671  19.259  0.00  0.00    +0.000 HD
ENDBRANCH  20   8
BRANCH  23   9
ATOM      9  O   UNL     1       1.798  40.933  21.031  0.00  0.00    +0.000 OA
ATOM     38  H   UNL     1       1.340  41.338  20.278  0.00  0.00    +0.000 HD
ENDBRANCH  23   9
BRANCH  18   2
ATOM      2  O   UNL     1       4.508  44.852  20.886  0.00  0.00    +0.000 OA
BRANCH   2  16
ATOM      1  O   UNL     1       6.765  45.338  21.228  0.00  0.00    +0.000 OA
ATOM     12  C   UNL     1       7.348  44.990  18.436  0.00  0.00    +0.000 C 
ATOM     13  C   UNL     1       8.336  45.639  19.406  0.00  0.00    +0.000 C 
ATOM     14  C   UNL     1       5.917  45.071  18.968  0.00  0.00    +0.000 C 
ATOM     15  C   UNL     1       8.120  45.122  20.830  0.00  0.00    +0.000 C 
ATOM     16  C   UNL     1       5.837  44.613  20.424  0.00  0.00    +0.000 C 
BRANCH  12   3
ATOM      3  O   UNL     1       7.434  45.681  17.190  0.00  0.00    +0.000 OA
ATOM     33  H   UNL     1       8.372  45.711  16.937  0.00  0.00    +0.000 HD
ENDBRANCH  12   3
BRANCH  13   4
ATOM      4  O   UNL     1       9.667  45.342  18.993  0.00  0.00    +0.000 OA
ATOM     34  H   UNL     1      10.247  45.419  19.770  0.00  0.00    +0.000 HD
ENDBRANCH  13   4
BRANCH  14   5
ATOM      5  O   UNL     1       5.073  44.226  18.186  0.00  0.00    +0.000 OA
ATOM     35  H   UNL     1       5.272  44.384  17.248  0.00  0.00    +0.000 HD
ENDBRANCH  14   5
BRANCH  15  17
ATOM     17  C   UNL     1       9.014  45.841  21.835  0.00  0.00    +0.000 C 
BRANCH  17   6
ATOM      6  O   UNL     1       9.655  46.919  21.180  0.00  0.00    +0.000 OA
ATOM     36  H   UNL     1      10.100  46.562  20.392  0.00  0.00    +0.000 HD
ENDBRANCH  17   6
ENDBRANCH  15  17
ENDBRANCH   2  16
ENDBRANCH  18   2
TORSDOF 11
ENDMDL
MODEL 2
REMARK VINA RESULT:      -8.8      1.809      2.775
REMARK  Name = 5320623
REMARK  11 active torsions:
REMARK  status: ('A' for Active; 'I' for Inactive)
REMARK    1  A    between atoms: O_2  and  C_16
REMARK    2  A    between atoms: O_2  and  C_18
REMARK    3  A    between atoms: O_3  and  C_12
REMARK    4  A    between atoms: O_4  and  C_13
REMARK    5  A    between atoms: O_5  and  C_14
REMARK    6  A    between atoms: O_6  and  C_17
REMARK    7  A    between atoms: O_8  and  C_20
REMARK    8  A    between atoms: O_9  and  C_23
REMARK    9  A    between atoms: O_11  and  C_32
REMARK   10  A    between atoms: C_15  and  C_17
REMARK   11  A    between atoms: C_25  and  C_27
REMARK                            x       y       z     vdW  Elec       q    Type
REMARK                         _______ _______ _______ _____ _____    ______ ____
ROOT
ATOM      7  O   UNL     1       4.320  42.684  23.438  0.00  0.00    +0.000 OA
ATOM     10  O   UNL     1       1.654  41.567  20.567  0.00  0.00    +0.000 OA
ATOM     18  C   UNL     1       5.916  44.235  20.553  0.00  0.00    +0.000 A 
ATOM     19  C   UNL     1       5.657  43.823  21.860  0.00  0.00    +0.000 A 
ATOM     20  C   UNL     1       5.041  43.888  19.522  0.00  0.00    +0.000 A 
ATOM     21  C   UNL     1       4.522  43.061  22.135  0.00  0.00    +0.000 A 
ATOM     22  C   UNL     1       3.649  42.714  21.104  0.00  0.00    +0.000 A 
ATOM     23  C   UNL     1       3.905  43.125  19.794  0.00  0.00    +0.000 A 
ATOM     24  C   UNL     1       2.460  41.909  21.422  0.00  0.00    +0.000 A 
ATOM     25  C   UNL     1       3.195  41.933  23.743  0.00  0.00    +0.000 A 
ATOM     26  C   UNL     1       2.287  41.532  22.839  0.00  0.00    +0.000 A 
ENDROOT
BRANCH  25  27
ATOM     27  C   UNL     1       3.079  41.578  25.171  0.00  0.00    +0.000 A 
ATOM     28  C   UNL     1       3.721  42.351  26.141  0.00  0.00    +0.000 A 
ATOM     29  C   UNL     1       2.328  40.465  25.559  0.00  0.00    +0.000 A 
ATOM     30  C   UNL     1       3.612  42.015  27.490  0.00  0.00    +0.000 A 
ATOM     31  C   UNL     1       2.219  40.129  26.908  0.00  0.00    +0.000 A 
ATOM     32  C   UNL     1       2.861  40.903  27.874  0.00  0.00    +0.000 A 
BRANCH  32  11
ATOM     11  O   UNL     1       2.755  40.575  29.191  0.00  0.00    +0.000 OA
ATOM     39  H   UNL     1       3.103  39.676  29.321  0.00  0.00    +0.000 HD
ENDBRANCH  32  11
ENDBRANCH  25  27
BRANCH  20   8
ATOM      8  O   UNL     1       5.303  44.295  18.246  0.00  0.00    +0.000 OA
ATOM     37  H   UNL     1       4.923  45.183  18.124  0.00  0.00    +0.000 HD
ENDBRANCH  20   8
BRANCH  23   9
ATOM      9  O   UNL     1       3.075  42.807  18.761  0.00  0.00    +0.000 OA
ATOM     38  H   UNL     1       2.204  43.218  18.880  0.00  0.00    +0.000 HD
ENDBRANCH  23   9
BRANCH  18   2
ATOM      2  O   UNL     1       7.030  44.981  20.295  0.00  0.00    +0.000 OA
BRANCH   2  16
ATOM      1  O   UNL     1       9.035  43.879  20.758  0.00  0.00    +0.000 OA
ATOM     12  C   UNL     1      10.136  44.639  18.216  0.00  0.00    +0.000 C 
ATOM     13  C   UNL     1      10.995  44.065  19.344  0.00  0.00    +0.000 C 
ATOM     14  C   UNL     1       8.843  45.247  18.760  0.00  0.00    +0.000 C 
ATOM     15  C   UNL     1      10.161  43.160  20.255  0.00  0.00    +0.000 C 
ATOM     16  C   UNL     1       8.142  44.291  19.726  0.00  0.00    +0.000 C 
BRANCH  12   3
ATOM      3  O   UNL     1      10.897  45.651  17.554  0.00  0.00    +0.000 OA
ATOM     33  H   UNL     1      10.715  45.575  16.602  0.00  0.00    +0.000 HD
ENDBRANCH  12   3
BRANCH  13   4
ATOM      4  O   UNL     1      12.066  43.310  18.784  0.00  0.00    +0.000 OA
ATOM     34  H   UNL     1      11.692  42.701  18.124  0.00  0.00    +0.000 HD
ENDBRANCH  13   4
BRANCH  14   5
ATOM      5  O   UNL     1       7.956  45.519  17.676  0.00  0.00    +0.000 OA
ATOM     35  H   UNL     1       8.366  45.188  16.859  0.00  0.00    +0.000 HD
ENDBRANCH  14   5
BRANCH  15  17
ATOM     17  C   UNL     1      10.965  42.668  21.453  0.00  0.00    +0.000 C 
BRANCH  17   6
ATOM      6  O   UNL     1      12.002  43.597  21.714  0.00  0.00    +0.000 OA
ATOM     36  H   UNL     1      11.760  44.089  22.517  0.00  0.00    +0.000 HD
ENDBRANCH  17   6
ENDBRANCH  15  17
ENDBRANCH   2  16
ENDBRANCH  18   2
TORSDOF 11
ENDMDL
MODEL 3
REMARK VINA RESULT:      -8.4      2.396      4.800
REMARK  Name = 5320623
REMARK  11 active torsions:
REMARK  status: ('A' for Active; 'I' for Inactive)
REMARK    1  A    between atoms: O_2  and  C_16
REMARK    2  A    between atoms: O_2  and  C_18
REMARK    3  A    between atoms: O_3  and  C_12
REMARK    4  A    between atoms: O_4  and  C_13
REMARK    5  A    between atoms: O_5  and  C_14
REMARK    6  A    between atoms: O_6  and  C_17
REMARK    7  A    between atoms: O_8  and  C_20
REMARK    8  A    between atoms: O_9  and  C_23
REMARK    9  A    between atoms: O_11  and  C_32
REMARK   10  A    between atoms: C_15  and  C_17
REMARK   11  A    between atoms: C_25  and  C_27
REMARK                            x       y       z     vdW  Elec       q    Type
REMARK                         _______ _______ _______ _____ _____    ______ ____
ROOT
ATOM      7  O   UNL     1       1.858  40.431  22.915  0.00  0.00    +0.000 OA
ATOM     10  O   UNL     1       3.004  41.167  26.755  0.00  0.00    +0.000 OA
ATOM     18  C   UNL     1       3.707  43.523  22.368  0.00  0.00    +0.000 A 
ATOM     19  C   UNL     1       2.945  42.378  22.138  0.00  0.00    +0.000 A 
ATOM     20  C   UNL     1       4.133  43.832  23.661  0.00  0.00    +0.000 A 
ATOM     21  C   UNL     1       2.609  41.542  23.203  0.00  0.00    +0.000 A 
ATOM     22  C   UNL     1       3.036  41.852  24.494  0.00  0.00    +0.000 A 
ATOM     23  C   UNL     1       3.799  42.998  24.729  0.00  0.00    +0.000 A 
ATOM     24  C   UNL     1       2.666  40.954  25.598  0.00  0.00    +0.000 A 
ATOM     25  C   UNL     1       1.516  39.577  23.953  0.00  0.00    +0.000 A 
ATOM     26  C   UNL     1       1.860  39.772  25.236  0.00  0.00    +0.000 A 
ENDROOT
BRANCH  25  27
ATOM     27  C   UNL     1       0.702  38.418  23.533  0.00  0.00    +0.000 A 
ATOM     28  C   UNL     1       1.061  37.682  22.402  0.00  0.00    +0.000 A 
ATOM     29  C   UNL     1      -0.431  38.055  24.265  0.00  0.00    +0.000 A 
ATOM     30  C   UNL     1       0.292  36.588  22.006  0.00  0.00    +0.000 A 
ATOM     31  C   UNL     1      -1.200  36.961  23.869  0.00  0.00    +0.000 A 
ATOM     32  C   UNL     1      -0.839  36.228  22.739  0.00  0.00    +0.000 A 
BRANCH  32  11
ATOM     11  O   UNL     1      -1.590  35.159  22.352  0.00  0.00    +0.000 OA
ATOM     39  H   UNL     1      -2.530  35.383  22.452  0.00  0.00    +0.000 HD
ENDBRANCH  32  11
ENDBRANCH  25  27
BRANCH  20   8
ATOM      8  O   UNL     1       4.878  44.955  23.877  0.00  0.00    +0.000 OA
ATOM     37  H   UNL     1       5.600  44.975  23.225  0.00  0.00    +0.000 HD
ENDBRANCH  20   8
BRANCH  23   9
ATOM      9  O   UNL     1       4.234  43.333  25.975  0.00  0.00    +0.000 OA
ATOM     38  H   UNL     1       3.575  43.097  26.646  0.00  0.00    +0.000 HD
ENDBRANCH  23   9
BRANCH  18   2
ATOM      2  O   UNL     1       4.030  44.334  21.319  0.00  0.00    +0.000 OA
BRANCH   2  16
ATOM      1  O   UNL     1       6.259  45.002  21.136  0.00  0.00    +0.000 OA
ATOM     12  C   UNL     1       6.388  44.114  18.407  0.00  0.00    +0.000 C 
ATOM     13  C   UNL     1       7.463  45.003  19.032  0.00  0.00    +0.000 C 
ATOM     14  C   UNL     1       5.066  44.225  19.168  0.00  0.00    +0.000 C 
ATOM     15  C   UNL     1       7.540  44.782  20.544  0.00  0.00    +0.000 C 
ATOM     16  C   UNL     1       5.277  44.076  20.674  0.00  0.00    +0.000 C 
BRANCH  12   3
ATOM      3  O   UNL     1       6.197  44.535  17.055  0.00  0.00    +0.000 OA
ATOM     33  H   UNL     1       6.950  45.103  16.819  0.00  0.00    +0.000 HD
ENDBRANCH  12   3
BRANCH  13   4
ATOM      4  O   UNL     1       8.726  44.700  18.446  0.00  0.00    +0.000 OA
ATOM     34  H   UNL     1       8.565  44.322  17.564  0.00  0.00    +0.000 HD
ENDBRANCH  13   4
BRANCH  14   5
ATOM      5  O   UNL     1       4.183  43.191  18.735  0.00  0.00    +0.000 OA
ATOM     35  H   UNL     1       4.178  42.495  19.412  0.00  0.00    +0.000 HD
ENDBRANCH  14   5
BRANCH  15  17
ATOM     17  C   UNL     1       8.523  45.742  21.207  0.00  0.00    +0.000 C 
BRANCH  17   6
ATOM      6  O   UNL     1       8.728  46.846  20.345  0.00  0.00    +0.000 OA
ATOM     36  H   UNL     1       8.527  47.653  20.849  0.00  0.00    +0.000 HD
ENDBRANCH  17   6
ENDBRANCH  15  17
ENDBRANCH   2  16
ENDBRANCH  18   2
TORSDOF 11
ENDMDL
MODEL 4
REMARK VINA RESULT:      -8.3      2.352      8.176
REMARK  Name = 5320623
REMARK  11 active torsions:
REMARK  status: ('A' for Active; 'I' for Inactive)
REMARK    1  A    between atoms: O_2  and  C_16
REMARK    2  A    between atoms: O_2  and  C_18
REMARK    3  A    between atoms: O_3  and  C_12
REMARK    4  A    between atoms: O_4  and  C_13
REMARK    5  A    between atoms: O_5  and  C_14
REMARK    6  A    between atoms: O_6  and  C_17
REMARK    7  A    between atoms: O_8  and  C_20
REMARK    8  A    between atoms: O_9  and  C_23
REMARK    9  A    between atoms: O_11  and  C_32
REMARK   10  A    between atoms: C_15  and  C_17
REMARK   11  A    between atoms: C_25  and  C_27
REMARK                            x       y       z     vdW  Elec       q    Type
REMARK                         _______ _______ _______ _____ _____    ______ ____
ROOT
ATOM      7  O   UNL     1       4.487  43.921  22.988  0.00  0.00    +0.000 OA
ATOM     10  O   UNL     1       1.978  41.336  21.084  0.00  0.00    +0.000 OA
ATOM     18  C   UNL     1       3.357  42.002  25.873  0.00  0.00    +0.000 A 
ATOM     19  C   UNL     1       4.020  42.945  25.087  0.00  0.00    +0.000 A 
ATOM     20  C   UNL     1       2.485  41.086  25.282  0.00  0.00    +0.000 A 
ATOM     21  C   UNL     1       3.808  42.971  23.708  0.00  0.00    +0.000 A 
ATOM     22  C   UNL     1       2.936  42.056  23.120  0.00  0.00    +0.000 A 
ATOM     23  C   UNL     1       2.271  41.110  23.904  0.00  0.00    +0.000 A 
ATOM     24  C   UNL     1       2.730  42.106  21.665  0.00  0.00    +0.000 A 
ATOM     25  C   UNL     1       4.302  43.965  21.614  0.00  0.00    +0.000 A 
ATOM     26  C   UNL     1       3.485  43.144  20.935  0.00  0.00    +0.000 A 
ENDROOT
BRANCH  25  27
ATOM     27  C   UNL     1       5.074  45.027  20.939  0.00  0.00    +0.000 A 
ATOM     28  C   UNL     1       4.608  46.344  20.942  0.00  0.00    +0.000 A 
ATOM     29  C   UNL     1       6.273  44.718  20.292  0.00  0.00    +0.000 A 
ATOM     30  C   UNL     1       5.338  47.346  20.304  0.00  0.00    +0.000 A 
ATOM     31  C   UNL     1       7.003  45.721  19.653  0.00  0.00    +0.000 A 
ATOM     32  C   UNL     1       6.535  47.035  19.658  0.00  0.00    +0.000 A 
BRANCH  32  11
ATOM     11  O   UNL     1       7.247  48.014  19.035  0.00  0.00    +0.000 OA
ATOM     39  H   UNL     1       6.679  48.795  18.925  0.00  0.00    +0.000 HD
ENDBRANCH  32  11
ENDBRANCH  25  27
BRANCH  20   8
ATOM      8  O   UNL     1       1.841  40.168  26.059  0.00  0.00    +0.000 OA
ATOM     37  H   UNL     1       2.224  40.199  26.953  0.00  0.00    +0.000 HD
ENDBRANCH  20   8
BRANCH  23   9
ATOM      9  O   UNL     1       1.412  40.199  23.365  0.00  0.00    +0.000 OA
ATOM     38  H   UNL     1       0.699  40.643  22.880  0.00  0.00    +0.000 HD
ENDBRANCH  23   9
BRANCH  18   2
ATOM      2  O   UNL     1       3.572  41.985  27.221  0.00  0.00    +0.000 OA
BRANCH   2  16
ATOM      1  O   UNL     1       5.736  41.111  27.288  0.00  0.00    +0.000 OA
ATOM     12  C   UNL     1       6.304  42.487  29.745  0.00  0.00    +0.000 C 
ATOM     13  C   UNL     1       7.202  41.376  29.201  0.00  0.00    +0.000 C 
ATOM     14  C   UNL     1       4.889  42.385  29.175  0.00  0.00    +0.000 C 
ATOM     15  C   UNL     1       7.099  41.291  27.676  0.00  0.00    +0.000 C 
ATOM     16  C   UNL     1       4.912  42.216  27.656  0.00  0.00    +0.000 C 
BRANCH  12   3
ATOM      3  O   UNL     1       6.256  42.360  31.167  0.00  0.00    +0.000 OA
ATOM     33  H   UNL     1       5.361  42.612  31.451  0.00  0.00    +0.000 HD
ENDBRANCH  12   3
BRANCH  13   4
ATOM      4  O   UNL     1       8.553  41.638  29.568  0.00  0.00    +0.000 OA
ATOM     34  H   UNL     1       8.576  41.815  30.524  0.00  0.00    +0.000 HD
ENDBRANCH  13   4
BRANCH  14   5
ATOM      5  O   UNL     1       4.169  43.578  29.482  0.00  0.00    +0.000 OA
ATOM     35  H   UNL     1       4.250  44.184  28.726  0.00  0.00    +0.000 HD
ENDBRANCH  14   5
BRANCH  15  17
ATOM     17  C   UNL     1       7.893  40.115  27.119  0.00  0.00    +0.000 C 
BRANCH  17   6
ATOM      6  O   UNL     1       9.244  40.511  26.971  0.00  0.00    +0.000 OA
ATOM     36  H   UNL     1       9.581  40.742  27.854  0.00  0.00    +0.000 HD
ENDBRANCH  17   6
ENDBRANCH  15  17
ENDBRANCH   2  16
ENDBRANCH  18   2
TORSDOF 11
ENDMDL
MODEL 5
REMARK VINA RESULT:      -8.1      3.163      6.536
REMARK  Name = 5320623
REMARK  11 active torsions:
REMARK  status: ('A' for Active; 'I' for Inactive)
REMARK    1  A    between atoms: O_2  and  C_16
REMARK    2  A    between atoms: O_2  and  C_18
REMARK    3  A    between atoms: O_3  and  C_12
REMARK    4  A    between atoms: O_4  and  C_13
REMARK    5  A    between atoms: O_5  and  C_14
REMARK    6  A    between atoms: O_6  and  C_17
REMARK    7  A    between atoms: O_8  and  C_20
REMARK    8  A    between atoms: O_9  and  C_23
REMARK    9  A    between atoms: O_11  and  C_32
REMARK   10  A    between atoms: C_15  and  C_17
REMARK   11  A    between atoms: C_25  and  C_27
REMARK                            x       y       z     vdW  Elec       q    Type
REMARK                         _______ _______ _______ _____ _____    ______ ____
ROOT
ATOM      7  O   UNL     1       6.102  42.996  21.241  0.00  0.00    +0.000 OA
ATOM     10  O   UNL     1       5.361  46.897  20.329  0.00  0.00    +0.000 OA
ATOM     18  C   UNL     1       9.370  43.893  19.902  0.00  0.00    +0.000 A 
ATOM     19  C   UNL     1       8.325  43.158  20.463  0.00  0.00    +0.000 A 
ATOM     20  C   UNL     1       9.183  45.235  19.568  0.00  0.00    +0.000 A 
ATOM     21  C   UNL     1       7.091  43.768  20.688  0.00  0.00    +0.000 A 
ATOM     22  C   UNL     1       6.906  45.109  20.353  0.00  0.00    +0.000 A 
ATOM     23  C   UNL     1       7.949  45.848  19.792  0.00  0.00    +0.000 A 
ATOM     24  C   UNL     1       5.594  45.727  20.601  0.00  0.00    +0.000 A 
ATOM     25  C   UNL     1       4.867  43.578  21.484  0.00  0.00    +0.000 A 
ATOM     26  C   UNL     1       4.564  44.855  21.200  0.00  0.00    +0.000 A 
ENDROOT
BRANCH  25  27
ATOM     27  C   UNL     1       3.875  42.657  22.074  0.00  0.00    +0.000 A 
ATOM     28  C   UNL     1       3.636  42.670  23.450  0.00  0.00    +0.000 A 
ATOM     29  C   UNL     1       3.173  41.766  21.258  0.00  0.00    +0.000 A 
ATOM     30  C   UNL     1       2.699  41.800  24.007  0.00  0.00    +0.000 A 
ATOM     31  C   UNL     1       2.236  40.895  21.815  0.00  0.00    +0.000 A 
ATOM     32  C   UNL     1       2.000  40.912  23.190  0.00  0.00    +0.000 A 
BRANCH  32  11
ATOM     11  O   UNL     1       1.086  40.062  23.733  0.00  0.00    +0.000 OA
ATOM     39  H   UNL     1       0.647  39.571  23.018  0.00  0.00    +0.000 HD
ENDBRANCH  32  11
ENDBRANCH  25  27
BRANCH  20   8
ATOM      8  O   UNL     1      10.211  45.946  19.020  0.00  0.00    +0.000 OA
ATOM     37  H   UNL     1      10.075  46.887  19.223  0.00  0.00    +0.000 HD
ENDBRANCH  20   8
BRANCH  23   9
ATOM      9  O   UNL     1       7.806  47.160  19.453  0.00  0.00    +0.000 OA
ATOM     38  H   UNL     1       7.917  47.283  18.497  0.00  0.00    +0.000 HD
ENDBRANCH  23   9
BRANCH  18   2
ATOM      2  O   UNL     1      10.574  43.286  19.687  0.00  0.00    +0.000 OA
BRANCH   2  16
ATOM      1  O   UNL     1      11.399  44.336  21.601  0.00  0.00    +0.000 OA
ATOM     12  C   UNL     1      13.855  42.853  21.457  0.00  0.00    +0.000 C 
ATOM     13  C   UNL     1      13.685  44.071  22.364  0.00  0.00    +0.000 C 
ATOM     14  C   UNL     1      12.844  42.871  20.310  0.00  0.00    +0.000 C 
ATOM     15  C   UNL     1      12.218  44.248  22.767  0.00  0.00    +0.000 C 
ATOM     16  C   UNL     1      11.429  43.143  20.820  0.00  0.00    +0.000 C 
BRANCH  12   3
ATOM      3  O   UNL     1      15.180  42.881  20.924  0.00  0.00    +0.000 OA
ATOM     33  H   UNL     1      15.428  43.814  20.811  0.00  0.00    +0.000 HD
ENDBRANCH  12   3
BRANCH  13   4
ATOM      4  O   UNL     1      14.478  43.902  23.535  0.00  0.00    +0.000 OA
ATOM     34  H   UNL     1      13.888  43.637  24.262  0.00  0.00    +0.000 HD
ENDBRANCH  13   4
BRANCH  14   5
ATOM      5  O   UNL     1      12.848  41.603  19.656  0.00  0.00    +0.000 OA
ATOM     35  H   UNL     1      12.032  41.529  19.133  0.00  0.00    +0.000 HD
ENDBRANCH  14   5
BRANCH  15  17
ATOM     17  C   UNL     1      12.004  45.523  23.576  0.00  0.00    +0.000 C 
BRANCH  17   6
ATOM      6  O   UNL     1      12.376  45.275  24.919  0.00  0.00    +0.000 OA
ATOM     36  H   UNL     1      12.227  44.330  25.095  0.00  0.00    +0.000 HD
ENDBRANCH  17   6
ENDBRANCH  15  17
ENDBRANCH   2  16
ENDBRANCH  18   2
TORSDOF 11
ENDMDL
MODEL 6
REMARK VINA RESULT:      -8.0      2.828      8.148
REMARK  Name = 5320623
REMARK  11 active torsions:
REMARK  status: ('A' for Active; 'I' for Inactive)
REMARK    1  A    between atoms: O_2  and  C_16
REMARK    2  A    between atoms: O_2  and  C_18
REMARK    3  A    between atoms: O_3  and  C_12
REMARK    4  A    between atoms: O_4  and  C_13
REMARK    5  A    between atoms: O_5  and  C_14
REMARK    6  A    between atoms: O_6  and  C_17
REMARK    7  A    between atoms: O_8  and  C_20
REMARK    8  A    between atoms: O_9  and  C_23
REMARK    9  A    between atoms: O_11  and  C_32
REMARK   10  A    between atoms: C_15  and  C_17
REMARK   11  A    between atoms: C_25  and  C_27
REMARK                            x       y       z     vdW  Elec       q    Type
REMARK                         _______ _______ _______ _____ _____    ______ ____
ROOT
ATOM      7  O   UNL     1       6.146  44.161  22.420  0.00  0.00    +0.000 OA
ATOM     10  O   UNL     1       5.869  44.303  18.357  0.00  0.00    +0.000 OA
ATOM     18  C   UNL     1       2.943  42.470  22.013  0.00  0.00    +0.000 A 
ATOM     19  C   UNL     1       4.076  43.037  22.597  0.00  0.00    +0.000 A 
ATOM     20  C   UNL     1       2.788  42.484  20.626  0.00  0.00    +0.000 A 
ATOM     21  C   UNL     1       5.054  43.619  21.790  0.00  0.00    +0.000 A 
ATOM     22  C   UNL     1       4.897  43.632  20.404  0.00  0.00    +0.000 A 
ATOM     23  C   UNL     1       3.764  43.066  19.817  0.00  0.00    +0.000 A 
ATOM     24  C   UNL     1       5.943  44.253  19.578  0.00  0.00    +0.000 A 
ATOM     25  C   UNL     1       7.138  44.739  21.643  0.00  0.00    +0.000 A 
ATOM     26  C   UNL     1       7.098  44.819  20.303  0.00  0.00    +0.000 A 
ENDROOT
BRANCH  25  27
ATOM     27  C   UNL     1       8.263  45.295  22.422  0.00  0.00    +0.000 A 
ATOM     28  C   UNL     1       9.342  45.892  21.767  0.00  0.00    +0.000 A 
ATOM     29  C   UNL     1       8.252  45.224  23.817  0.00  0.00    +0.000 A 
ATOM     30  C   UNL     1      10.404  46.417  22.503  0.00  0.00    +0.000 A 
ATOM     31  C   UNL     1       9.314  45.750  24.553  0.00  0.00    +0.000 A 
ATOM     32  C   UNL     1      10.390  46.345  23.896  0.00  0.00    +0.000 A 
BRANCH  32  11
ATOM     11  O   UNL     1      11.427  46.858  24.615  0.00  0.00    +0.000 OA
ATOM     39  H   UNL     1      12.086  47.223  24.000  0.00  0.00    +0.000 HD
ENDBRANCH  32  11
ENDBRANCH  25  27
BRANCH  20   8
ATOM      8  O   UNL     1       1.675  41.928  20.065  0.00  0.00    +0.000 OA
ATOM     37  H   UNL     1       0.897  42.429  20.365  0.00  0.00    +0.000 HD
ENDBRANCH  20   8
BRANCH  23   9
ATOM      9  O   UNL     1       3.576  43.059  18.467  0.00  0.00    +0.000 OA
ATOM     38  H   UNL     1       2.832  43.630  18.220  0.00  0.00    +0.000 HD
ENDBRANCH  23   9
BRANCH  18   2
ATOM      2  O   UNL     1       1.993  41.903  22.812  0.00  0.00    +0.000 OA
BRANCH   2  16
ATOM      1  O   UNL     1       1.445  39.672  22.401  0.00  0.00    +0.000 OA
ATOM     12  C   UNL     1       1.882  38.971  25.153  0.00  0.00    +0.000 C 
ATOM     13  C   UNL     1       1.175  38.036  24.170  0.00  0.00    +0.000 C 
ATOM     14  C   UNL     1       1.813  40.424  24.681  0.00  0.00    +0.000 C 
ATOM     15  C   UNL     1       1.645  38.298  22.737  0.00  0.00    +0.000 C 
ATOM     16  C   UNL     1       2.219  40.552  23.213  0.00  0.00    +0.000 C 
BRANCH  12   3
ATOM      3  O   UNL     1       1.234  38.850  26.420  0.00  0.00    +0.000 OA
ATOM     33  H   UNL     1       0.777  37.992  26.432  0.00  0.00    +0.000 HD
ENDBRANCH  12   3
BRANCH  13   4
ATOM      4  O   UNL     1       1.458  36.684  24.519  0.00  0.00    +0.000 OA
ATOM     34  H   UNL     1       2.395  36.513  24.322  0.00  0.00    +0.000 HD
ENDBRANCH  13   4
BRANCH  14   5
ATOM      5  O   UNL     1       2.705  41.217  25.463  0.00  0.00    +0.000 OA
ATOM     35  H   UNL     1       2.173  41.794  26.037  0.00  0.00    +0.000 HD
ENDBRANCH  14   5
BRANCH  15  17
ATOM     17  C   UNL     1       0.871  37.460  21.725  0.00  0.00    +0.000 C 
BRANCH  17   6
ATOM      6  O   UNL     1       1.378  36.139  21.749  0.00  0.00    +0.000 OA
ATOM     36  H   UNL     1       0.813  35.618  22.344  0.00  0.00    +0.000 HD
ENDBRANCH  17   6
ENDBRANCH  15  17
ENDBRANCH   2  16
ENDBRANCH  18   2
TORSDOF 11
ENDMDL
MODEL 7
REMARK VINA RESULT:      -7.8      2.801      5.394
REMARK  Name = 5320623
REMARK  11 active torsions:
REMARK  status: ('A' for Active; 'I' for Inactive)
REMARK    1  A    between atoms: O_2  and  C_16
REMARK    2  A    between atoms: O_2  and  C_18
REMARK    3  A    between atoms: O_3  and  C_12
REMARK    4  A    between atoms: O_4  and  C_13
REMARK    5  A    between atoms: O_5  and  C_14
REMARK    6  A    between atoms: O_6  and  C_17
REMARK    7  A    between atoms: O_8  and  C_20
REMARK    8  A    between atoms: O_9  and  C_23
REMARK    9  A    between atoms: O_11  and  C_32
REMARK   10  A    between atoms: C_15  and  C_17
REMARK   11  A    between atoms: C_25  and  C_27
REMARK                            x       y       z     vdW  Elec       q    Type
REMARK                         _______ _______ _______ _____ _____    ______ ____
ROOT
ATOM      7  O   UNL     1       5.634  43.020  21.932  0.00  0.00    +0.000 OA
ATOM     10  O   UNL     1       3.901  43.432  18.268  0.00  0.00    +0.000 OA
ATOM     18  C   UNL     1       8.385  44.654  20.186  0.00  0.00    +0.000 A 
ATOM     19  C   UNL     1       7.627  44.046  21.187  0.00  0.00    +0.000 A 
ATOM     20  C   UNL     1       7.849  44.827  18.909  0.00  0.00    +0.000 A 
ATOM     21  C   UNL     1       6.331  43.611  20.908  0.00  0.00    +0.000 A 
ATOM     22  C   UNL     1       5.798  43.784  19.632  0.00  0.00    +0.000 A 
ATOM     23  C   UNL     1       6.554  44.392  18.627  0.00  0.00    +0.000 A 
ATOM     24  C   UNL     1       4.430  43.315  19.365  0.00  0.00    +0.000 A 
ATOM     25  C   UNL     1       4.341  42.585  21.686  0.00  0.00    +0.000 A 
ATOM     26  C   UNL     1       3.722  42.689  20.499  0.00  0.00    +0.000 A 
ENDROOT
BRANCH  25  27
ATOM     27  C   UNL     1       3.686  41.960  22.853  0.00  0.00    +0.000 A 
ATOM     28  C   UNL     1       2.860  40.848  22.682  0.00  0.00    +0.000 A 
ATOM     29  C   UNL     1       3.890  42.481  24.133  0.00  0.00    +0.000 A 
ATOM     30  C   UNL     1       2.241  40.258  23.784  0.00  0.00    +0.000 A 
ATOM     31  C   UNL     1       3.271  41.892  25.236  0.00  0.00    +0.000 A 
ATOM     32  C   UNL     1       2.446  40.781  25.061  0.00  0.00    +0.000 A 
BRANCH  32  11
ATOM     11  O   UNL     1       1.842  40.206  26.137  0.00  0.00    +0.000 OA
ATOM     39  H   UNL     1       2.327  39.397  26.375  0.00  0.00    +0.000 HD
ENDBRANCH  32  11
ENDBRANCH  25  27
BRANCH  20   8
ATOM      8  O   UNL     1       8.598  45.422  17.936  0.00  0.00    +0.000 OA
ATOM     37  H   UNL     1       9.486  45.596  18.296  0.00  0.00    +0.000 HD
ENDBRANCH  20   8
BRANCH  23   9
ATOM      9  O   UNL     1       6.066  44.579  17.369  0.00  0.00    +0.000 OA
ATOM     38  H   UNL     1       5.461  45.337  17.343  0.00  0.00    +0.000 HD
ENDBRANCH  23   9
BRANCH  18   2
ATOM      2  O   UNL     1       9.651  45.077  20.470  0.00  0.00    +0.000 OA
BRANCH   2  16
ATOM      1  O   UNL     1      11.363  44.524  21.957  0.00  0.00    +0.000 OA
ATOM     12  C   UNL     1      12.625  42.833  20.007  0.00  0.00    +0.000 C 
ATOM     13  C   UNL     1      13.328  43.268  21.293  0.00  0.00    +0.000 C 
ATOM     14  C   UNL     1      11.491  43.793  19.644  0.00  0.00    +0.000 C 
ATOM     15  C   UNL     1      12.309  43.550  22.401  0.00  0.00    +0.000 C 
ATOM     16  C   UNL     1      10.590  44.071  20.848  0.00  0.00    +0.000 C 
BRANCH  12   3
ATOM      3  O   UNL     1      13.593  42.821  18.957  0.00  0.00    +0.000 OA
ATOM     33  H   UNL     1      14.354  42.304  19.270  0.00  0.00    +0.000 HD
ENDBRANCH  12   3
BRANCH  13   4
ATOM      4  O   UNL     1      14.213  42.236  21.719  0.00  0.00    +0.000 OA
ATOM     34  H   UNL     1      13.792  41.380  21.525  0.00  0.00    +0.000 HD
ENDBRANCH  13   4
BRANCH  14   5
ATOM      5  O   UNL     1      10.693  43.214  18.612  0.00  0.00    +0.000 OA
ATOM     35  H   UNL     1      10.344  43.934  18.060  0.00  0.00    +0.000 HD
ENDBRANCH  14   5
BRANCH  15  17
ATOM     17  C   UNL     1      12.977  44.098  23.657  0.00  0.00    +0.000 C 
BRANCH  17   6
ATOM      6  O   UNL     1      14.141  44.809  23.278  0.00  0.00    +0.000 OA
ATOM     36  H   UNL     1      14.053  45.718  23.614  0.00  0.00    +0.000 HD
ENDBRANCH  17   6
ENDBRANCH  15  17
ENDBRANCH   2  16
ENDBRANCH  18   2
TORSDOF 11
ENDMDL
MODEL 8
REMARK VINA RESULT:      -7.7      4.776      9.585
REMARK  Name = 5320623
REMARK  11 active torsions:
REMARK  status: ('A' for Active; 'I' for Inactive)
REMARK    1  A    between atoms: O_2  and  C_16
REMARK    2  A    between atoms: O_2  and  C_18
REMARK    3  A    between atoms: O_3  and  C_12
REMARK    4  A    between atoms: O_4  and  C_13
REMARK    5  A    between atoms: O_5  and  C_14
REMARK    6  A    between atoms: O_6  and  C_17
REMARK    7  A    between atoms: O_8  and  C_20
REMARK    8  A    between atoms: O_9  and  C_23
REMARK    9  A    between atoms: O_11  and  C_32
REMARK   10  A    between atoms: C_15  and  C_17
REMARK   11  A    between atoms: C_25  and  C_27
REMARK                            x       y       z     vdW  Elec       q    Type
REMARK                         _______ _______ _______ _____ _____    ______ ____
ROOT
ATOM      7  O   UNL     1      12.324  42.771  21.180  0.00  0.00    +0.000 OA
ATOM     10  O   UNL     1      13.078  44.255  17.461  0.00  0.00    +0.000 OA
ATOM     18  C   UNL     1       9.258  44.683  20.703  0.00  0.00    +0.000 A 
ATOM     19  C   UNL     1      10.232  43.862  21.273  0.00  0.00    +0.000 A 
ATOM     20  C   UNL     1       9.454  45.222  19.431  0.00  0.00    +0.000 A 
ATOM     21  C   UNL     1      11.403  43.583  20.568  0.00  0.00    +0.000 A 
ATOM     22  C   UNL     1      11.597  44.123  19.297  0.00  0.00    +0.000 A 
ATOM     23  C   UNL     1      10.624  44.945  18.723  0.00  0.00    +0.000 A 
ATOM     24  C   UNL     1      12.841  43.813  18.577  0.00  0.00    +0.000 A 
ATOM     25  C   UNL     1      13.493  42.469  20.499  0.00  0.00    +0.000 A 
ATOM     26  C   UNL     1      13.798  42.933  19.277  0.00  0.00    +0.000 A 
ENDROOT
BRANCH  25  27
ATOM     27  C   UNL     1      14.416  41.594  21.251  0.00  0.00    +0.000 A 
ATOM     28  C   UNL     1      13.925  40.749  22.248  0.00  0.00    +0.000 A 
ATOM     29  C   UNL     1      15.784  41.610  20.968  0.00  0.00    +0.000 A 
ATOM     30  C   UNL     1      14.796  39.922  22.958  0.00  0.00    +0.000 A 
ATOM     31  C   UNL     1      16.655  40.783  21.678  0.00  0.00    +0.000 A 
ATOM     32  C   UNL     1      16.162  39.941  22.673  0.00  0.00    +0.000 A 
BRANCH  32  11
ATOM     11  O   UNL     1      17.012  39.134  23.366  0.00  0.00    +0.000 OA
ATOM     39  H   UNL     1      17.927  39.386  23.154  0.00  0.00    +0.000 HD
ENDBRANCH  32  11
ENDBRANCH  25  27
BRANCH  20   8
ATOM      8  O   UNL     1       8.496  46.025  18.881  0.00  0.00    +0.000 OA
ATOM     37  H   UNL     1       7.753  45.464  18.596  0.00  0.00    +0.000 HD
ENDBRANCH  20   8
BRANCH  23   9
ATOM      9  O   UNL     1      10.778  45.490  17.484  0.00  0.00    +0.000 OA
ATOM     38  H   UNL     1      10.047  45.232  16.901  0.00  0.00    +0.000 HD
ENDBRANCH  23   9
BRANCH  18   2
ATOM      2  O   UNL     1       8.116  44.949  21.401  0.00  0.00    +0.000 OA
BRANCH   2  16
ATOM      1  O   UNL     1       6.507  43.820  20.141  0.00  0.00    +0.000 OA
ATOM     12  C   UNL     1       4.914  43.312  22.477  0.00  0.00    +0.000 C 
ATOM     13  C   UNL     1       4.380  43.108  21.059  0.00  0.00    +0.000 C 
ATOM     14  C   UNL     1       6.094  44.285  22.489  0.00  0.00    +0.000 C 
ATOM     15  C   UNL     1       5.520  42.790  20.089  0.00  0.00    +0.000 C 
ATOM     16  C   UNL     1       7.126  43.921  21.422  0.00  0.00    +0.000 C 
BRANCH  12   3
ATOM      3  O   UNL     1       3.855  43.837  23.277  0.00  0.00    +0.000 OA
ATOM     33  H   UNL     1       4.254  44.431  23.936  0.00  0.00    +0.000 HD
ENDBRANCH  12   3
BRANCH  13   4
ATOM      4  O   UNL     1       3.446  42.032  21.057  0.00  0.00    +0.000 OA
ATOM     34  H   UNL     1       3.830  41.299  21.568  0.00  0.00    +0.000 HD
ENDBRANCH  13   4
BRANCH  14   5
ATOM      5  O   UNL     1       6.733  44.237  23.764  0.00  0.00    +0.000 OA
ATOM     35  H   UNL     1       7.693  44.189  23.620  0.00  0.00    +0.000 HD
ENDBRANCH  14   5
BRANCH  15  17
ATOM     17  C   UNL     1       5.028  42.698  18.648  0.00  0.00    +0.000 C 
BRANCH  17   6
ATOM      6  O   UNL     1       3.679  43.126  18.603  0.00  0.00    +0.000 OA
ATOM     36  H   UNL     1       3.254  42.845  19.431  0.00  0.00    +0.000 HD
ENDBRANCH  17   6
ENDBRANCH  15  17
ENDBRANCH   2  16
ENDBRANCH  18   2
TORSDOF 11
ENDMDL
MODEL 9
REMARK VINA RESULT:      -7.7      2.100      8.497
REMARK  Name = 5320623
REMARK  11 active torsions:
REMARK  status: ('A' for Active; 'I' for Inactive)
REMARK    1  A    between atoms: O_2  and  C_16
REMARK    2  A    between atoms: O_2  and  C_18
REMARK    3  A    between atoms: O_3  and  C_12
REMARK    4  A    between atoms: O_4  and  C_13
REMARK    5  A    between atoms: O_5  and  C_14
REMARK    6  A    between atoms: O_6  and  C_17
REMARK    7  A    between atoms: O_8  and  C_20
REMARK    8  A    between atoms: O_9  and  C_23
REMARK    9  A    between atoms: O_11  and  C_32
REMARK   10  A    between atoms: C_15  and  C_17
REMARK   11  A    between atoms: C_25  and  C_27
REMARK                            x       y       z     vdW  Elec       q    Type
REMARK                         _______ _______ _______ _____ _____    ______ ____
ROOT
ATOM      7  O   UNL     1       4.007  43.126  23.485  0.00  0.00    +0.000 OA
ATOM     10  O   UNL     1       1.742  40.492  21.355  0.00  0.00    +0.000 OA
ATOM     18  C   UNL     1       2.723  41.124  26.246  0.00  0.00    +0.000 A 
ATOM     19  C   UNL     1       3.412  42.101  25.528  0.00  0.00    +0.000 A 
ATOM     20  C   UNL     1       1.931  40.190  25.577  0.00  0.00    +0.000 A 
ATOM     21  C   UNL     1       3.307  42.143  24.137  0.00  0.00    +0.000 A 
ATOM     22  C   UNL     1       2.515  41.209  23.470  0.00  0.00    +0.000 A 
ATOM     23  C   UNL     1       1.823  40.230  24.186  0.00  0.00    +0.000 A 
ATOM     24  C   UNL     1       2.421  41.277  22.004  0.00  0.00    +0.000 A 
ATOM     25  C   UNL     1       3.928  43.186  22.102  0.00  0.00    +0.000 A 
ATOM     26  C   UNL     1       3.195  42.351  21.350  0.00  0.00    +0.000 A 
ENDROOT
BRANCH  25  27
ATOM     27  C   UNL     1       4.714  44.284  21.504  0.00  0.00    +0.000 A 
ATOM     28  C   UNL     1       5.997  44.041  21.010  0.00  0.00    +0.000 A 
ATOM     29  C   UNL     1       4.177  45.572  21.431  0.00  0.00    +0.000 A 
ATOM     30  C   UNL     1       6.740  45.078  20.446  0.00  0.00    +0.000 A 
ATOM     31  C   UNL     1       4.919  46.610  20.867  0.00  0.00    +0.000 A 
ATOM     32  C   UNL     1       6.201  46.363  20.375  0.00  0.00    +0.000 A 
BRANCH  32  11
ATOM     11  O   UNL     1       6.925  47.375  19.824  0.00  0.00    +0.000 OA
ATOM     39  H   UNL     1       7.473  47.783  20.516  0.00  0.00    +0.000 HD
ENDBRANCH  32  11
ENDBRANCH  25  27
BRANCH  20   8
ATOM      8  O   UNL     1       1.259  39.238  26.288  0.00  0.00    +0.000 OA
ATOM     37  H   UNL     1       0.309  39.324  26.094  0.00  0.00    +0.000 HD
ENDBRANCH  20   8
BRANCH  23   9
ATOM      9  O   UNL     1       1.040  39.300  23.569  0.00  0.00    +0.000 OA
ATOM     38  H   UNL     1       0.110  39.574  23.577  0.00  0.00    +0.000 HD
ENDBRANCH  23   9
BRANCH  18   2
ATOM      2  O   UNL     1       2.833  41.092  27.606  0.00  0.00    +0.000 OA
BRANCH   2  16
ATOM      1  O   UNL     1       4.956  40.266  28.116  0.00  0.00    +0.000 OA
ATOM     12  C   UNL     1       5.240  42.110  30.300  0.00  0.00    +0.000 C 
ATOM     13  C   UNL     1       6.179  40.919  30.105  0.00  0.00    +0.000 C 
ATOM     14  C   UNL     1       3.905  41.885  29.591  0.00  0.00    +0.000 C 
ATOM     15  C   UNL     1       6.264  40.531  28.627  0.00  0.00    +0.000 C 
ATOM     16  C   UNL     1       4.112  41.415  28.151  0.00  0.00    +0.000 C 
BRANCH  12   3
ATOM      3  O   UNL     1       5.014  42.269  31.702  0.00  0.00    +0.000 OA
ATOM     33  H   UNL     1       4.991  43.223  31.886  0.00  0.00    +0.000 HD
ENDBRANCH  12   3
BRANCH  13   4
ATOM      4  O   UNL     1       7.479  41.260  30.577  0.00  0.00    +0.000 OA
ATOM     34  H   UNL     1       8.128  40.947  29.924  0.00  0.00    +0.000 HD
ENDBRANCH  13   4
BRANCH  14   5
ATOM      5  O   UNL     1       3.173  43.110  29.561  0.00  0.00    +0.000 OA
ATOM     35  H   UNL     1       2.258  42.909  29.301  0.00  0.00    +0.000 HD
ENDBRANCH  14   5
BRANCH  15  17
ATOM     17  C   UNL     1       7.101  39.273  28.419  0.00  0.00    +0.000 C 
BRANCH  17   6
ATOM      6  O   UNL     1       7.103  38.528  29.623  0.00  0.00    +0.000 OA
ATOM     36  H   UNL     1       6.262  38.042  29.669  0.00  0.00    +0.000 HD
ENDBRANCH  17   6
ENDBRANCH  15  17
ENDBRANCH   2  16
ENDBRANCH  18   2
TORSDOF 11
ENDMDL
