REMARK VINA RESULT:      -6.5      4.071      6.211
REMARK  6 active torsions:
REMARK  status: ('A' for Active; 'I' for Inactive)
REMARK    1  A    between atoms: O_2  and  C_12 
REMARK    2  A    between atoms: O_3  and  C_14 
REMARK    3  A    between atoms: O_5  and  C_16 
REMARK    4  A    between atoms: O_6  and  C_20 
REMARK    5  A    between atoms: O_7  and  C_22 
REMARK    6  A    between atoms: C_10  and  C_11 
ROOT
HETATM    1  O   UNK     0     184.532 184.161 171.920  0.00  0.00    -0.306 OA
HETATM    2  O   UNK     0     185.545 186.009 175.408  0.00  0.00    -0.284 OA
HETATM    3  C   UNK     0     186.007 185.670 173.120  0.00  0.00     0.084 A 
HETATM    4  C   UNK     0     185.609 185.007 171.960  0.00  0.00     0.096 A 
HETATM    5  C   UNK     0     183.799 183.968 173.080  0.00  0.00     0.123 A 
HETATM    6  C   UNK     0     184.081 184.540 174.265  0.00  0.00     0.152 A 
HETATM    7  C   UNK     0     185.241 185.459 174.358  0.00  0.00     0.223 A 
HETATM    8  C   UNK     0     187.115 186.520 173.101  0.00  0.00     0.085 A 
HETATM    9  C   UNK     0     186.321 185.189 170.774  0.00  0.00     0.075 A 
HETATM   10  C   UNK     0     187.429 186.038 170.752  0.00  0.00     0.071 A 
HETATM   11  C   UNK     0     187.824 186.701 171.914  0.00  0.00     0.074 A 
ENDROOT
BRANCH   5  12
HETATM   12  C   UNK     0     182.670 183.038 172.899  0.00  0.00     0.004 A 
HETATM   13  C   UNK     0     182.881 181.662 172.974  0.00  0.00     0.053 A 
HETATM   14  C   UNK     0     181.812 180.782 172.802  0.00  0.00     0.099 A 
HETATM   15  C   UNK     0     180.531 181.279 172.556  0.00  0.00     0.098 A 
HETATM   16  C   UNK     0     180.321 182.656 172.483  0.00  0.00     0.040 A 
HETATM   17  C   UNK     0     181.390 183.536 172.654  0.00  0.00     0.017 A 
BRANCH  14  18
HETATM   18  O   UNK     0     182.029 179.439 172.875  0.00  0.00    -0.358 OA
HETATM   19  H   UNK     0     182.360 179.208 173.758  0.00  0.00     0.217 HD
ENDBRANCH  14  18
BRANCH  15  20
HETATM   20  O   UNK     0     179.479 180.430 172.390  0.00  0.00    -0.358 OA
HETATM   21  H   UNK     0     179.274 179.993 173.232  0.00  0.00     0.217 HD
ENDBRANCH  15  20
ENDBRANCH   5  12
BRANCH   6  22
HETATM   22  O   UNK     0     183.351 184.301 175.409  0.00  0.00    -0.355 OA
HETATM   23  H   UNK     0     182.802 183.509 175.291  0.00  0.00     0.218 HD
ENDBRANCH   6  22
BRANCH   8  24
HETATM   24  O   UNK     0     187.545 187.191 174.207  0.00  0.00    -0.360 OA
HETATM   25  H   UNK     0     187.310 186.706 175.012  0.00  0.00     0.217 HD
ENDBRANCH   8  24
BRANCH  10  26
HETATM   26  O   UNK     0     188.124 186.217 169.595  0.00  0.00    -0.361 OA
HETATM   27  H   UNK     0     188.309 187.165 169.483  0.00  0.00     0.217 HD
ENDBRANCH  10  26
TORSDOF 6
