REMARK VINA RESULT:      -7.0      0.000      0.000
REMARK  6 active torsions:
REMARK  status: ('A' for Active; 'I' for Inactive)
REMARK    1  A    between atoms: O_2  and  C_12 
REMARK    2  A    between atoms: O_3  and  C_14 
REMARK    3  A    between atoms: O_5  and  C_16 
REMARK    4  A    between atoms: O_6  and  C_20 
REMARK    5  A    between atoms: O_7  and  C_22 
REMARK    6  A    between atoms: C_10  and  C_11 
ROOT
HETATM    1  O   UNK     0     184.422 186.620 171.507  0.00  0.00    -0.306 OA
HETATM    2  O   UNK     0     186.692 189.423 169.612  0.00  0.00    -0.284 OA
HETATM    3  C   UNK     0     184.596 188.365 169.830  0.00  0.00     0.084 A 
HETATM    4  C   UNK     0     183.874 187.390 170.516  0.00  0.00     0.096 A 
HETATM    5  C   UNK     0     185.748 186.830 171.852  0.00  0.00     0.123 A 
HETATM    6  C   UNK     0     186.555 187.732 171.264  0.00  0.00     0.152 A 
HETATM    7  C   UNK     0     186.007 188.585 170.182  0.00  0.00     0.223 A 
HETATM    8  C   UNK     0     183.984 189.120 168.826  0.00  0.00     0.085 A 
HETATM    9  C   UNK     0     182.534 187.161 170.198  0.00  0.00     0.075 A 
HETATM   10  C   UNK     0     181.921 187.913 169.196  0.00  0.00     0.071 A 
HETATM   11  C   UNK     0     182.644 188.890 168.512  0.00  0.00     0.074 A 
ENDROOT
BRANCH   5  12
HETATM   12  C   UNK     0     186.211 185.939 172.930  0.00  0.00     0.004 A 
HETATM   13  C   UNK     0     186.118 186.346 174.261  0.00  0.00     0.053 A 
HETATM   14  C   UNK     0     186.556 185.501 175.281  0.00  0.00     0.099 A 
HETATM   15  C   UNK     0     187.086 184.249 174.970  0.00  0.00     0.098 A 
HETATM   16  C   UNK     0     187.178 183.841 173.640  0.00  0.00     0.040 A 
HETATM   17  C   UNK     0     186.741 184.686 172.619  0.00  0.00     0.017 A 
BRANCH  14  18
HETATM   18  O   UNK     0     186.462 185.910 176.577  0.00  0.00    -0.358 OA
HETATM   19  H   UNK     0     185.750 185.424 177.024  0.00  0.00     0.217 HD
ENDBRANCH  14  18
BRANCH  15  20
HETATM   20  O   UNK     0     187.515 183.414 175.958  0.00  0.00    -0.358 OA
HETATM   21  H   UNK     0     186.907 183.460 176.713  0.00  0.00     0.217 HD
ENDBRANCH  15  20
ENDBRANCH   5  12
BRANCH   6  22
HETATM   22  O   UNK     0     187.880 187.894 171.608  0.00  0.00    -0.355 OA
HETATM   23  H   UNK     0     188.339 188.405 170.922  0.00  0.00     0.218 HD
ENDBRANCH   6  22
BRANCH   8  24
HETATM   24  O   UNK     0     184.644 190.085 168.126  0.00  0.00    -0.360 OA
HETATM   25  H   UNK     0     184.663 190.915 168.627  0.00  0.00     0.217 HD
ENDBRANCH   8  24
BRANCH  10  26
HETATM   26  O   UNK     0     180.613 187.692 168.886  0.00  0.00    -0.361 OA
HETATM   27  H   UNK     0     180.331 188.347 168.225  0.00  0.00     0.217 HD
ENDBRANCH  10  26
TORSDOF 6
