REMARK VINA RESULT:      -7.6      5.930     11.457
REMARK  12 active torsions:
REMARK  status: ('A' for Active; 'I' for Inactive)
REMARK    1  A    between atoms: O_1  and  C_10 
REMARK    2  A    between atoms: O_2  and  C_17 
REMARK    3  A    between atoms: O_3  and  C_20 
REMARK    4  A    between atoms: O_4  and  C_27 
REMARK    5  A    between atoms: O_6  and  C_29 
REMARK    6  A    between atoms: O_7  and  C_28 
REMARK    7  A    between atoms: O_8  and  C_33 
REMARK    8  A    between atoms: C_11  and  C_20 
REMARK    9  A    between atoms: C_20  and  C_28 
REMARK   10  A    between atoms: C_28  and  C_31 
REMARK   11  A    between atoms: C_31  and  C_32 
REMARK   12  A    between atoms: C_32  and  C_33 
ROOT
HETATM    1  O   UNK     0     183.713 180.519 172.707  0.00  0.00    -0.384 OA
HETATM    2  H   UNK     0     183.061 180.504 173.423  0.00  0.00     0.211 HD
ENDROOT
BRANCH   1   3
HETATM    3  C   UNK     0     183.279 181.370 171.622  0.00  0.00     0.090 C 
HETATM    4  C   UNK     0     181.739 181.545 171.683  0.00  0.00    -0.000 C 
HETATM    5  C   UNK     0     181.272 180.088 171.431  0.00  0.00     0.034 C 
HETATM    6  C   UNK     0     181.364 182.091 173.068  0.00  0.00     0.045 C 
HETATM    7  C   UNK     0     181.192 182.497 170.584  0.00  0.00     0.019 C 
HETATM    8  C   UNK     0     182.247 179.572 170.346  0.00  0.00     0.012 C 
HETATM    9  C   UNK     0     183.457 180.531 170.349  0.00  0.00     0.044 C 
HETATM   10  C   UNK     0     182.070 183.431 173.357  0.00  0.00     0.128 C 
HETATM   11  C   UNK     0     183.630 183.405 173.149  0.00  0.00     0.055 C 
HETATM   12  C   UNK     0     184.327 184.827 173.323  0.00  0.00    -0.021 C 
HETATM   13  C   UNK     0     183.987 182.694 171.827  0.00  0.00    -0.034 C 
HETATM   14  C   UNK     0     185.747 184.813 172.686  0.00  0.00     0.071 C 
HETATM   15  C   UNK     0     184.431 185.236 174.839  0.00  0.00     0.045 C 
HETATM   16  C   UNK     0     183.503 185.932 172.604  0.00  0.00     0.017 C 
HETATM   17  C   UNK     0     186.796 183.975 173.438  0.00  0.00     0.047 C 
HETATM   18  C   UNK     0     185.694 184.347 171.246  0.00  0.00     0.154 C 
HETATM   19  C   UNK     0     186.561 183.903 174.943  0.00  0.00     0.147 C 
HETATM   20  C   UNK     0     185.826 185.131 175.463  0.00  0.00     0.147 C 
HETATM   21  O   UNK     0     186.366 184.876 170.363  0.00  0.00    -0.293 OA
HETATM   22  C   UNK     0     184.877 183.157 170.938  0.00  0.00     0.057 C 
BRANCH   5  23
HETATM   23  C   UNK     0     179.810 179.897 171.051  0.00  0.00     0.084 C 
HETATM   24  C   UNK     0     179.172 178.830 171.955  0.00  0.00     0.049 C 
BRANCH  23  25
HETATM   25  O   UNK     0     179.117 181.129 171.287  0.00  0.00    -0.387 OA
HETATM   26  H   UNK     0     178.844 181.506 170.435  0.00  0.00     0.210 HD
ENDBRANCH  23  25
BRANCH  23  27
HETATM   27  C   UNK     0     179.636 179.522 169.554  0.00  0.00     0.152 C 
BRANCH  27  28
HETATM   28  O   UNK     0     178.944 180.575 168.874  0.00  0.00    -0.393 OA
HETATM   29  H   UNK     0     178.884 181.327 169.487  0.00  0.00     0.210 HD
ENDBRANCH  27  28
BRANCH  27  30
HETATM   30  C   UNK     0     178.872 178.206 169.316  0.00  0.00     0.037 C 
BRANCH  30  31
HETATM   31  C   UNK     0     179.606 177.283 168.327  0.00  0.00     0.040 C 
BRANCH  31  32
HETATM   32  C   UNK     0     179.963 175.892 168.893  0.00  0.00     0.051 C 
HETATM   33  C   UNK     0     180.905 176.052 170.091  0.00  0.00     0.045 C 
HETATM   34  C   UNK     0     178.725 175.092 169.307  0.00  0.00     0.045 C 
BRANCH  32  35
HETATM   35  O   UNK     0     180.658 175.159 167.882  0.00  0.00    -0.391 OA
HETATM   36  H   UNK     0     181.587 175.445 167.874  0.00  0.00     0.210 HD
ENDBRANCH  32  35
ENDBRANCH  31  32
ENDBRANCH  30  31
ENDBRANCH  27  30
ENDBRANCH  23  27
ENDBRANCH   5  23
BRANCH  10  37
HETATM   37  O   UNK     0     181.749 183.795 174.696  0.00  0.00    -0.395 OA
HETATM   38  H   UNK     0     180.856 183.461 174.888  0.00  0.00     0.210 HD
ENDBRANCH  10  37
BRANCH  19  39
HETATM   39  O   UNK     0     187.819 183.763 175.597  0.00  0.00    -0.393 OA
HETATM   40  H   UNK     0     188.498 183.601 174.920  0.00  0.00     0.210 HD
ENDBRANCH  19  39
BRANCH  20  41
HETATM   41  O   UNK     0     186.562 186.317 175.159  0.00  0.00    -0.393 OA
HETATM   42  H   UNK     0     187.422 186.044 174.797  0.00  0.00     0.210 HD
ENDBRANCH  20  41
ENDBRANCH   1   3
TORSDOF 12
