REMARK VINA RESULT:      -7.5     10.588     15.089
REMARK  12 active torsions:
REMARK  status: ('A' for Active; 'I' for Inactive)
REMARK    1  A    between atoms: O_1  and  C_10 
REMARK    2  A    between atoms: O_2  and  C_17 
REMARK    3  A    between atoms: O_3  and  C_20 
REMARK    4  A    between atoms: O_4  and  C_27 
REMARK    5  A    between atoms: O_6  and  C_29 
REMARK    6  A    between atoms: O_7  and  C_28 
REMARK    7  A    between atoms: O_8  and  C_33 
REMARK    8  A    between atoms: C_11  and  C_20 
REMARK    9  A    between atoms: C_20  and  C_28 
REMARK   10  A    between atoms: C_28  and  C_31 
REMARK   11  A    between atoms: C_31  and  C_32 
REMARK   12  A    between atoms: C_32  and  C_33 
ROOT
HETATM    1  O   UNK     0     185.209 185.420 170.011  0.00  0.00    -0.384 OA
HETATM    2  H   UNK     0     185.064 184.855 170.783  0.00  0.00     0.211 HD
ENDROOT
BRANCH   1   3
HETATM    3  C   UNK     0     186.191 186.444 170.289  0.00  0.00     0.090 C 
HETATM    4  C   UNK     0     187.078 186.004 171.482  0.00  0.00    -0.000 C 
HETATM    5  C   UNK     0     186.027 185.955 172.622  0.00  0.00     0.034 C 
HETATM    6  C   UNK     0     187.702 184.641 171.150  0.00  0.00     0.045 C 
HETATM    7  C   UNK     0     188.203 187.023 171.813  0.00  0.00     0.019 C 
HETATM    8  C   UNK     0     185.136 187.190 172.353  0.00  0.00     0.012 C 
HETATM    9  C   UNK     0     185.400 187.615 170.891  0.00  0.00     0.044 C 
HETATM   10  C   UNK     0     188.535 184.703 169.853  0.00  0.00     0.128 C 
HETATM   11  C   UNK     0     187.773 185.307 168.616  0.00  0.00     0.055 C 
HETATM   12  C   UNK     0     188.685 185.486 167.322  0.00  0.00    -0.021 C 
HETATM   13  C   UNK     0     187.010 186.586 169.023  0.00  0.00    -0.034 C 
HETATM   14  C   UNK     0     188.010 186.466 166.319  0.00  0.00     0.071 C 
HETATM   15  C   UNK     0     188.956 184.108 166.613  0.00  0.00     0.045 C 
HETATM   16  C   UNK     0     190.066 186.087 167.705  0.00  0.00     0.017 C 
HETATM   17  C   UNK     0     186.754 185.923 165.614  0.00  0.00     0.047 C 
HETATM   18  C   UNK     0     187.662 187.779 166.989  0.00  0.00     0.154 C 
HETATM   19  C   UNK     0     186.766 184.411 165.415  0.00  0.00     0.147 C 
HETATM   20  C   UNK     0     188.182 183.862 165.314  0.00  0.00     0.147 C 
HETATM   21  O   UNK     0     187.828 188.861 166.431  0.00  0.00    -0.293 OA
HETATM   22  C   UNK     0     187.014 187.724 168.315  0.00  0.00     0.057 C 
BRANCH   5  23
HETATM   23  C   UNK     0     186.567 185.915 174.045  0.00  0.00     0.084 C 
HETATM   24  C   UNK     0     187.457 184.675 174.230  0.00  0.00     0.049 C 
BRANCH  23  25
HETATM   25  O   UNK     0     187.392 187.069 174.249  0.00  0.00    -0.387 OA
HETATM   26  H   UNK     0     187.060 187.562 175.018  0.00  0.00     0.210 HD
ENDBRANCH  23  25
BRANCH  23  27
HETATM   27  C   UNK     0     185.431 185.938 175.104  0.00  0.00     0.152 C 
BRANCH  27  28
HETATM   28  O   UNK     0     185.901 186.577 176.296  0.00  0.00    -0.393 OA
HETATM   29  H   UNK     0     186.850 186.751 176.179  0.00  0.00     0.210 HD
ENDBRANCH  27  28
BRANCH  27  30
HETATM   30  C   UNK     0     184.891 184.545 175.482  0.00  0.00     0.037 C 
BRANCH  30  31
HETATM   31  C   UNK     0     183.713 184.121 174.587  0.00  0.00     0.040 C 
BRANCH  31  32
HETATM   32  C   UNK     0     183.912 182.772 173.863  0.00  0.00     0.051 C 
HETATM   33  C   UNK     0     182.675 181.892 174.068  0.00  0.00     0.045 C 
HETATM   34  C   UNK     0     184.186 182.945 172.367  0.00  0.00     0.045 C 
BRANCH  32  35
HETATM   35  O   UNK     0     185.029 182.105 174.453  0.00  0.00    -0.391 OA
HETATM   36  H   UNK     0     184.700 181.367 174.993  0.00  0.00     0.210 HD
ENDBRANCH  32  35
ENDBRANCH  31  32
ENDBRANCH  30  31
ENDBRANCH  27  30
ENDBRANCH  23  27
ENDBRANCH   5  23
BRANCH  10  37
HETATM   37  O   UNK     0     188.974 183.377 169.572  0.00  0.00    -0.395 OA
HETATM   38  H   UNK     0     189.701 183.170 170.185  0.00  0.00     0.210 HD
ENDBRANCH  10  37
BRANCH  19  39
HETATM   39  O   UNK     0     186.026 184.098 164.239  0.00  0.00    -0.393 OA
HETATM   40  H   UNK     0     185.339 184.775 164.122  0.00  0.00     0.210 HD
ENDBRANCH  19  39
BRANCH  20  41
HETATM   41  O   UNK     0     188.880 184.483 164.233  0.00  0.00    -0.393 OA
HETATM   42  H   UNK     0     189.830 184.337 164.374  0.00  0.00     0.210 HD
ENDBRANCH  20  41
ENDBRANCH   1   3
TORSDOF 12
