REMARK VINA RESULT:      -7.8      5.305      8.217
REMARK  Name = 5320623
REMARK  11 active torsions:
REMARK  status: ('A' for Active; 'I' for Inactive)
REMARK    1  A    between atoms: O_2  and  C_16
REMARK    2  A    between atoms: O_2  and  C_18
REMARK    3  A    between atoms: O_3  and  C_12
REMARK    4  A    between atoms: O_4  and  C_13
REMARK    5  A    between atoms: O_5  and  C_14
REMARK    6  A    between atoms: O_6  and  C_17
REMARK    7  A    between atoms: O_8  and  C_20
REMARK    8  A    between atoms: O_9  and  C_23
REMARK    9  A    between atoms: O_11  and  C_32
REMARK   10  A    between atoms: C_15  and  C_17
REMARK   11  A    between atoms: C_25  and  C_27
REMARK                            x       y       z     vdW  Elec       q    Type
REMARK                         _______ _______ _______ _____ _____    ______ ____
ROOT
ATOM      7  O   UNL     1     182.174 187.452 169.600  0.00  0.00    +0.000 OA
ATOM     10  O   UNL     1     184.699 189.234 166.945  0.00  0.00    +0.000 OA
ATOM     18  C   UNL     1     185.237 187.338 171.571  0.00  0.00    +0.000 A 
ATOM     19  C   UNL     1     183.906 187.183 171.182  0.00  0.00    +0.000 A 
ATOM     20  C   UNL     1     186.153 187.942 170.709  0.00  0.00    +0.000 A 
ATOM     21  C   UNL     1     183.494 187.632 169.927  0.00  0.00    +0.000 A 
ATOM     22  C   UNL     1     184.411 188.235 169.067  0.00  0.00    +0.000 A 
ATOM     23  C   UNL     1     185.744 188.393 169.453  0.00  0.00    +0.000 A 
ATOM     24  C   UNL     1     183.949 188.699 167.750  0.00  0.00    +0.000 A 
ATOM     25  C   UNL     1     181.734 187.896 168.362  0.00  0.00    +0.000 A 
ATOM     26  C   UNL     1     182.520 188.484 167.447  0.00  0.00    +0.000 A 
ENDROOT
BRANCH  25  27
ATOM     27  C   UNL     1     180.300 187.647 168.111  0.00  0.00    +0.000 A 
ATOM     28  C   UNL     1     179.768 187.835 166.833  0.00  0.00    +0.000 A 
ATOM     29  C   UNL     1     179.468 187.224 169.151  0.00  0.00    +0.000 A 
ATOM     30  C   UNL     1     178.414 187.599 166.596  0.00  0.00    +0.000 A 
ATOM     31  C   UNL     1     178.114 186.988 168.914  0.00  0.00    +0.000 A 
ATOM     32  C   UNL     1     177.587 187.177 167.637  0.00  0.00    +0.000 A 
BRANCH  32  11
ATOM     11  O   UNL     1     176.265 186.947 167.406  0.00  0.00    +0.000 OA
ATOM     39  H   UNL     1     176.170 186.487 166.555  0.00  0.00    +0.000 HD
ENDBRANCH  32  11
ENDBRANCH  25  27
BRANCH  20   8
ATOM      8  O   UNL     1     187.453 188.090 171.098  0.00  0.00    +0.000 OA
ATOM     37  H   UNL     1     188.013 187.566 170.499  0.00  0.00    +0.000 HD
ENDBRANCH  20   8
BRANCH  23   9
ATOM      9  O   UNL     1     186.667 188.978 168.641  0.00  0.00    +0.000 OA
ATOM     38  H   UNL     1     186.321 189.075 167.740  0.00  0.00    +0.000 HD
ENDBRANCH  23   9
BRANCH  18   2
ATOM      2  O   UNL     1     185.630 186.895 172.801  0.00  0.00    +0.000 OA
BRANCH   2  16
ATOM      1  O   UNL     1     184.693 185.058 173.894  0.00  0.00    +0.000 OA
ATOM     12  C   UNL     1     187.204 183.662 173.875  0.00  0.00    +0.000 C 
ATOM     13  C   UNL     1     186.020 183.208 174.728  0.00  0.00    +0.000 C 
ATOM     14  C   UNL     1     187.091 185.144 173.515  0.00  0.00    +0.000 C 
ATOM     15  C   UNL     1     184.695 183.644 174.096  0.00  0.00    +0.000 C 
ATOM     16  C   UNL     1     185.700 185.481 172.977  0.00  0.00    +0.000 C 
BRANCH  12   3
ATOM      3  O   UNL     1     188.399 183.444 174.627  0.00  0.00    +0.000 OA
ATOM     33  H   UNL     1     188.247 183.794 175.522  0.00  0.00    +0.000 HD
ENDBRANCH  12   3
BRANCH  13   4
ATOM      4  O   UNL     1     186.040 181.788 174.847  0.00  0.00    +0.000 OA
ATOM     34  H   UNL     1     186.760 181.548 175.456  0.00  0.00    +0.000 HD
ENDBRANCH  13   4
BRANCH  14   5
ATOM      5  O   UNL     1     188.050 185.460 172.506  0.00  0.00    +0.000 OA
ATOM     35  H   UNL     1     188.783 185.941 172.925  0.00  0.00    +0.000 HD
ENDBRANCH  14   5
BRANCH  15  17
ATOM     17  C   UNL     1     183.505 183.305 174.987  0.00  0.00    +0.000 C 
BRANCH  17   6
ATOM      6  O   UNL     1     183.989 182.862 176.241  0.00  0.00    +0.000 OA
ATOM     36  H   UNL     1     184.832 182.402 176.084  0.00  0.00    +0.000 HD
ENDBRANCH  17   6
ENDBRANCH  15  17
ENDBRANCH   2  16
ENDBRANCH  18   2
TORSDOF 11
