MODEL 1
REMARK VINA RESULT:    -7.967      0.000      0.000
REMARK INTER + INTRA:         -11.955
REMARK INTER:                 -10.670
REMARK INTRA:                  -1.284
REMARK UNBOUND:                -1.193
REMARK  Name = 5316673
REMARK  10 active torsions:
REMARK  status: ('A' for Active; 'I' for Inactive)
REMARK    1  A    between atoms: O_2  and  C_15
REMARK    2  A    between atoms: O_2  and  C_17
REMARK    3  A    between atoms: O_3  and  C_11
REMARK    4  A    between atoms: O_4  and  C_12
REMARK    5  A    between atoms: O_5  and  C_13
REMARK    6  A    between atoms: O_8  and  C_23
REMARK    7  A    between atoms: O_9  and  C_28
REMARK    8  A    between atoms: O_10  and  C_31
REMARK    9  A    between atoms: C_14  and  C_16
REMARK   10  A    between atoms: C_18  and  C_22
REMARK                            x       y       z     vdW  Elec       q    Type
REMARK                         _______ _______ _______ _____ _____    ______ ____
ROOT
ATOM      1  O   UNL     1     -25.335  -1.954  53.955  0.00  0.00    +0.000 OA
ATOM      2  O   UNL     1     -25.377  -0.329  57.692  0.00  0.00    +0.000 OA
ATOM      3  C   UNL     1     -25.860  -2.186  56.304  0.00  0.00    +0.000 A 
ATOM      4  C   UNL     1     -25.823  -2.659  55.044  0.00  0.00    +0.000 A 
ATOM      5  C   UNL     1     -25.367  -0.813  56.568  0.00  0.00    +0.000 A 
ATOM      6  C   UNL     1     -24.863  -0.066  55.405  0.00  0.00    +0.000 A 
ATOM      7  C   UNL     1     -24.873  -0.679  54.154  0.00  0.00    +0.000 A 
ATOM      8  C   UNL     1     -24.379   1.237  55.548  0.00  0.00    +0.000 A 
ATOM      9  C   UNL     1     -24.399   0.008  53.037  0.00  0.00    +0.000 A 
ATOM     10  C   UNL     1     -23.905   1.922  54.429  0.00  0.00    +0.000 A 
ATOM     11  C   UNL     1     -23.915   1.309  53.175  0.00  0.00    +0.000 A 
ENDROOT
BRANCH   4  12
ATOM     12  C   UNL     1     -26.284  -4.013  54.693  0.00  0.00    +0.000 A 
ATOM     13  C   UNL     1     -27.608  -4.384  54.935  0.00  0.00    +0.000 A 
ATOM     14  C   UNL     1     -25.399  -4.925  54.119  0.00  0.00    +0.000 A 
ATOM     15  C   UNL     1     -28.045  -5.667  54.603  0.00  0.00    +0.000 A 
ATOM     16  C   UNL     1     -25.836  -6.207  53.786  0.00  0.00    +0.000 A 
ATOM     17  C   UNL     1     -27.159  -6.579  54.028  0.00  0.00    +0.000 A 
BRANCH  17  18
ATOM     18  O   UNL     1     -27.585  -7.829  53.703  0.00  0.00    +0.000 OA
ATOM     19  H   UNL     1     -28.346  -8.058  54.264  0.00  0.00    +0.000 HD
ENDBRANCH  17  18
ENDBRANCH   4  12
BRANCH   8  20
ATOM     20  O   UNL     1     -24.347   1.881  56.748  0.00  0.00    +0.000 OA
ATOM     21  H   UNL     1     -24.897   1.399  57.390  0.00  0.00    +0.000 HD
ENDBRANCH   8  20
BRANCH  11  22
ATOM     22  O   UNL     1     -23.452   1.982  52.086  0.00  0.00    +0.000 OA
ATOM     23  H   UNL     1     -23.939   2.819  52.001  0.00  0.00    +0.000 HD
ENDBRANCH  11  22
BRANCH   3  24
ATOM     24  O   UNL     1     -26.322  -2.925  57.372  0.00  0.00    +0.000 OA
BRANCH  24  30
ATOM     25  O   UNL     1     -25.091  -4.929  57.688  0.00  0.00    +0.000 OA
ATOM     26  C   UNL     1     -26.663  -4.332  60.014  0.00  0.00    +0.000 C 
ATOM     27  C   UNL     1     -26.483  -5.766  59.517  0.00  0.00    +0.000 C 
ATOM     28  C   UNL     1     -25.493  -3.449  59.577  0.00  0.00    +0.000 C 
ATOM     29  C   UNL     1     -26.205  -5.768  58.006  0.00  0.00    +0.000 C 
ATOM     30  C   UNL     1     -25.258  -3.561  58.073  0.00  0.00    +0.000 C 
ATOM     31  C   UNL     1     -25.873  -7.166  57.489  0.00  0.00    +0.000 C 
BRANCH  26  32
ATOM     32  O   UNL     1     -26.763  -4.338  61.437  0.00  0.00    +0.000 OA
ATOM     33  H   UNL     1     -27.473  -4.956  61.681  0.00  0.00    +0.000 HD
ENDBRANCH  26  32
BRANCH  27  34
ATOM     34  O   UNL     1     -27.680  -6.487  59.800  0.00  0.00    +0.000 OA
ATOM     35  H   UNL     1     -27.766  -7.198  59.143  0.00  0.00    +0.000 HD
ENDBRANCH  27  34
BRANCH  28  36
ATOM     36  O   UNL     1     -24.297  -3.866  60.237  0.00  0.00    +0.000 OA
ATOM     37  H   UNL     1     -24.468  -4.738  60.632  0.00  0.00    +0.000 HD
ENDBRANCH  28  36
ENDBRANCH  24  30
ENDBRANCH   3  24
TORSDOF 9
ENDMDL
MODEL 2
REMARK VINA RESULT:    -7.190      1.878      6.052
REMARK INTER + INTRA:         -10.904
REMARK INTER:                 -10.249
REMARK INTRA:                  -0.655
REMARK UNBOUND:                -1.193
REMARK  Name = 5316673
REMARK  10 active torsions:
REMARK  status: ('A' for Active; 'I' for Inactive)
REMARK    1  A    between atoms: O_2  and  C_15
REMARK    2  A    between atoms: O_2  and  C_17
REMARK    3  A    between atoms: O_3  and  C_11
REMARK    4  A    between atoms: O_4  and  C_12
REMARK    5  A    between atoms: O_5  and  C_13
REMARK    6  A    between atoms: O_8  and  C_23
REMARK    7  A    between atoms: O_9  and  C_28
REMARK    8  A    between atoms: O_10  and  C_31
REMARK    9  A    between atoms: C_14  and  C_16
REMARK   10  A    between atoms: C_18  and  C_22
REMARK                            x       y       z     vdW  Elec       q    Type
REMARK                         _______ _______ _______ _____ _____    ______ ____
ROOT
ATOM      1  O   UNL     1     -26.057  -5.343  53.451  0.00  0.00    +0.000 OA
ATOM      2  O   UNL     1     -28.254  -6.404  56.716  0.00  0.00    +0.000 OA
ATOM      3  C   UNL     1     -26.813  -4.829  55.689  0.00  0.00    +0.000 A 
ATOM      4  C   UNL     1     -26.105  -4.543  54.582  0.00  0.00    +0.000 A 
ATOM      5  C   UNL     1     -27.591  -6.090  55.735  0.00  0.00    +0.000 A 
ATOM      6  C   UNL     1     -27.526  -6.941  54.538  0.00  0.00    +0.000 A 
ATOM      7  C   UNL     1     -26.760  -6.521  53.453  0.00  0.00    +0.000 A 
ATOM      8  C   UNL     1     -28.222  -8.152  54.482  0.00  0.00    +0.000 A 
ATOM      9  C   UNL     1     -26.683  -7.309  52.305  0.00  0.00    +0.000 A 
ATOM     10  C   UNL     1     -28.144  -8.939  53.333  0.00  0.00    +0.000 A 
ATOM     11  C   UNL     1     -27.376  -8.518  52.246  0.00  0.00    +0.000 A 
ENDROOT
BRANCH   4  12
ATOM     12  C   UNL     1     -25.310  -3.310  54.447  0.00  0.00    +0.000 A 
ATOM     13  C   UNL     1     -23.916  -3.370  54.487  0.00  0.00    +0.000 A 
ATOM     14  C   UNL     1     -25.950  -2.082  54.279  0.00  0.00    +0.000 A 
ATOM     15  C   UNL     1     -23.164  -2.201  54.360  0.00  0.00    +0.000 A 
ATOM     16  C   UNL     1     -25.198  -0.914  54.150  0.00  0.00    +0.000 A 
ATOM     17  C   UNL     1     -23.805  -0.973  54.191  0.00  0.00    +0.000 A 
BRANCH  17  18
ATOM     18  O   UNL     1     -23.071   0.165  54.065  0.00  0.00    +0.000 OA
ATOM     19  H   UNL     1     -22.474   0.072  53.303  0.00  0.00    +0.000 HD
ENDBRANCH  17  18
ENDBRANCH   4  12
BRANCH   8  20
ATOM     20  O   UNL     1     -28.986  -8.608  55.514  0.00  0.00    +0.000 OA
ATOM     21  H   UNL     1     -29.927  -8.495  55.296  0.00  0.00    +0.000 HD
ENDBRANCH   8  20
BRANCH  11  22
ATOM     22  O   UNL     1     -27.303  -9.290  51.126  0.00  0.00    +0.000 OA
ATOM     23  H   UNL     1     -27.814  -8.866  50.416  0.00  0.00    +0.000 HD
ENDBRANCH  11  22
BRANCH   3  24
ATOM     24  O   UNL     1     -26.865  -3.995  56.785  0.00  0.00    +0.000 OA
BRANCH  24  30
ATOM     25  O   UNL     1     -25.357  -5.137  58.217  0.00  0.00    +0.000 OA
ATOM     26  C   UNL     1     -26.526  -2.889  59.568  0.00  0.00    +0.000 C 
ATOM     27  C   UNL     1     -26.265  -4.210  60.291  0.00  0.00    +0.000 C 
ATOM     28  C   UNL     1     -25.578  -2.719  58.379  0.00  0.00    +0.000 C 
ATOM     29  C   UNL     1     -26.278  -5.372  59.287  0.00  0.00    +0.000 C 
ATOM     30  C   UNL     1     -25.618  -3.945  57.470  0.00  0.00    +0.000 C 
ATOM     31  C   UNL     1     -25.877  -6.694  59.937  0.00  0.00    +0.000 C 
BRANCH  26  32
ATOM     32  O   UNL     1     -26.354  -1.811  60.484  0.00  0.00    +0.000 OA
ATOM     33  H   UNL     1     -27.042  -1.150  60.296  0.00  0.00    +0.000 HD
ENDBRANCH  26  32
BRANCH  27  34
ATOM     34  O   UNL     1     -27.288  -4.390  61.268  0.00  0.00    +0.000 OA
ATOM     35  H   UNL     1     -28.136  -4.481  60.803  0.00  0.00    +0.000 HD
ENDBRANCH  27  34
BRANCH  28  36
ATOM     36  O   UNL     1     -24.236  -2.566  58.845  0.00  0.00    +0.000 OA
ATOM     37  H   UNL     1     -24.276  -2.392  59.801  0.00  0.00    +0.000 HD
ENDBRANCH  28  36
ENDBRANCH  24  30
ENDBRANCH   3  24
TORSDOF 9
ENDMDL
MODEL 3
REMARK VINA RESULT:    -6.792     19.721     22.942
REMARK INTER + INTRA:         -10.367
REMARK INTER:                  -9.066
REMARK INTRA:                  -1.301
REMARK UNBOUND:                -1.193
REMARK  Name = 5316673
REMARK  10 active torsions:
REMARK  status: ('A' for Active; 'I' for Inactive)
REMARK    1  A    between atoms: O_2  and  C_15
REMARK    2  A    between atoms: O_2  and  C_17
REMARK    3  A    between atoms: O_3  and  C_11
REMARK    4  A    between atoms: O_4  and  C_12
REMARK    5  A    between atoms: O_5  and  C_13
REMARK    6  A    between atoms: O_8  and  C_23
REMARK    7  A    between atoms: O_9  and  C_28
REMARK    8  A    between atoms: O_10  and  C_31
REMARK    9  A    between atoms: C_14  and  C_16
REMARK   10  A    between atoms: C_18  and  C_22
REMARK                            x       y       z     vdW  Elec       q    Type
REMARK                         _______ _______ _______ _____ _____    ______ ____
ROOT
ATOM      1  O   UNL     1     -35.286  14.621  56.491  0.00  0.00    +0.000 OA
ATOM      2  O   UNL     1     -36.166  18.308  54.993  0.00  0.00    +0.000 OA
ATOM      3  C   UNL     1     -36.430  16.737  56.745  0.00  0.00    +0.000 A 
ATOM      4  C   UNL     1     -36.105  15.504  57.178  0.00  0.00    +0.000 A 
ATOM      5  C   UNL     1     -35.904  17.198  55.438  0.00  0.00    +0.000 A 
ATOM      6  C   UNL     1     -35.047  16.252  54.708  0.00  0.00    +0.000 A 
ATOM      7  C   UNL     1     -34.782  15.008  55.276  0.00  0.00    +0.000 A 
ATOM      8  C   UNL     1     -34.504  16.591  53.467  0.00  0.00    +0.000 A 
ATOM      9  C   UNL     1     -33.971  14.093  54.604  0.00  0.00    +0.000 A 
ATOM     10  C   UNL     1     -33.692  15.675  52.797  0.00  0.00    +0.000 A 
ATOM     11  C   UNL     1     -33.427  14.428  53.365  0.00  0.00    +0.000 A 
ENDROOT
BRANCH   4  12
ATOM     12  C   UNL     1     -36.576  14.968  58.466  0.00  0.00    +0.000 A 
ATOM     13  C   UNL     1     -35.664  14.705  59.489  0.00  0.00    +0.000 A 
ATOM     14  C   UNL     1     -37.935  14.722  58.665  0.00  0.00    +0.000 A 
ATOM     15  C   UNL     1     -36.111  14.197  60.710  0.00  0.00    +0.000 A 
ATOM     16  C   UNL     1     -38.382  14.215  59.885  0.00  0.00    +0.000 A 
ATOM     17  C   UNL     1     -37.470  13.952  60.907  0.00  0.00    +0.000 A 
BRANCH  17  18
ATOM     18  O   UNL     1     -37.906  13.458  62.098  0.00  0.00    +0.000 OA
ATOM     19  H   UNL     1     -37.245  12.829  62.438  0.00  0.00    +0.000 HD
ENDBRANCH  17  18
ENDBRANCH   4  12
BRANCH   8  20
ATOM     20  O   UNL     1     -34.732  17.794  52.869  0.00  0.00    +0.000 OA
ATOM     21  H   UNL     1     -35.116  17.651  51.987  0.00  0.00    +0.000 HD
ENDBRANCH   8  20
BRANCH  11  22
ATOM     22  O   UNL     1     -32.634  13.537  52.706  0.00  0.00    +0.000 OA
ATOM     23  H   UNL     1     -32.314  12.871  53.339  0.00  0.00    +0.000 HD
ENDBRANCH  11  22
BRANCH   3  24
ATOM     24  O   UNL     1     -37.221  17.603  57.469  0.00  0.00    +0.000 OA
BRANCH  24  30
ATOM     25  O   UNL     1     -36.110  18.240  59.466  0.00  0.00    +0.000 OA
ATOM     26  C   UNL     1     -38.412  19.896  59.020  0.00  0.00    +0.000 C 
ATOM     27  C   UNL     1     -38.022  19.429  60.422  0.00  0.00    +0.000 C 
ATOM     28  C   UNL     1     -37.193  19.934  58.096  0.00  0.00    +0.000 C 
ATOM     29  C   UNL     1     -37.236  18.112  60.339  0.00  0.00    +0.000 C 
ATOM     30  C   UNL     1     -36.446  18.603  58.123  0.00  0.00    +0.000 C 
ATOM     31  C   UNL     1     -36.697  17.682  61.701  0.00  0.00    +0.000 C 
BRANCH  26  32
ATOM     32  O   UNL     1     -39.000  21.192  59.103  0.00  0.00    +0.000 OA
ATOM     33  H   UNL     1     -39.916  21.083  59.410  0.00  0.00    +0.000 HD
ENDBRANCH  26  32
BRANCH  27  34
ATOM     34  O   UNL     1     -39.217  19.245  61.177  0.00  0.00    +0.000 OA
ATOM     35  H   UNL     1     -39.002  18.699  61.953  0.00  0.00    +0.000 HD
ENDBRANCH  27  34
BRANCH  28  36
ATOM     36  O   UNL     1     -36.288  20.951  58.527  0.00  0.00    +0.000 OA
ATOM     37  H   UNL     1     -35.410  20.543  58.616  0.00  0.00    +0.000 HD
ENDBRANCH  28  36
ENDBRANCH  24  30
ENDBRANCH   3  24
TORSDOF 9
ENDMDL
MODEL 4
REMARK VINA RESULT:    -6.758      1.548      4.433
REMARK INTER + INTRA:         -10.321
REMARK INTER:                  -9.376
REMARK INTRA:                  -0.945
REMARK UNBOUND:                -1.193
REMARK  Name = 5316673
REMARK  10 active torsions:
REMARK  status: ('A' for Active; 'I' for Inactive)
REMARK    1  A    between atoms: O_2  and  C_15
REMARK    2  A    between atoms: O_2  and  C_17
REMARK    3  A    between atoms: O_3  and  C_11
REMARK    4  A    between atoms: O_4  and  C_12
REMARK    5  A    between atoms: O_5  and  C_13
REMARK    6  A    between atoms: O_8  and  C_23
REMARK    7  A    between atoms: O_9  and  C_28
REMARK    8  A    between atoms: O_10  and  C_31
REMARK    9  A    between atoms: C_14  and  C_16
REMARK   10  A    between atoms: C_18  and  C_22
REMARK                            x       y       z     vdW  Elec       q    Type
REMARK                         _______ _______ _______ _____ _____    ______ ____
ROOT
ATOM      1  O   UNL     1     -24.628  -0.825  57.358  0.00  0.00    +0.000 OA
ATOM      2  O   UNL     1     -26.632  -2.457  54.207  0.00  0.00    +0.000 OA
ATOM      3  C   UNL     1     -25.987  -2.622  56.480  0.00  0.00    +0.000 A 
ATOM      4  C   UNL     1     -25.301  -2.032  57.475  0.00  0.00    +0.000 A 
ATOM      5  C   UNL     1     -26.026  -1.967  55.150  0.00  0.00    +0.000 A 
ATOM      6  C   UNL     1     -25.299  -0.694  55.029  0.00  0.00    +0.000 A 
ATOM      7  C   UNL     1     -24.636  -0.188  56.144  0.00  0.00    +0.000 A 
ATOM      8  C   UNL     1     -25.272   0.001  53.817  0.00  0.00    +0.000 A 
ATOM      9  C   UNL     1     -23.941   1.018  56.055  0.00  0.00    +0.000 A 
ATOM     10  C   UNL     1     -24.577   1.207  53.730  0.00  0.00    +0.000 A 
ATOM     11  C   UNL     1     -23.912   1.715  54.847  0.00  0.00    +0.000 A 
ENDROOT
BRANCH   4  12
ATOM     12  C   UNL     1     -25.216  -2.608  58.828  0.00  0.00    +0.000 A 
ATOM     13  C   UNL     1     -26.340  -2.616  59.656  0.00  0.00    +0.000 A 
ATOM     14  C   UNL     1     -24.012  -3.147  59.283  0.00  0.00    +0.000 A 
ATOM     15  C   UNL     1     -26.259  -3.163  60.937  0.00  0.00    +0.000 A 
ATOM     16  C   UNL     1     -23.932  -3.694  60.564  0.00  0.00    +0.000 A 
ATOM     17  C   UNL     1     -25.055  -3.702  61.391  0.00  0.00    +0.000 A 
BRANCH  17  18
ATOM     18  O   UNL     1     -24.976  -4.236  62.640  0.00  0.00    +0.000 OA
ATOM     19  H   UNL     1     -25.704  -4.871  62.757  0.00  0.00    +0.000 HD
ENDBRANCH  17  18
ENDBRANCH   4  12
BRANCH   8  20
ATOM     20  O   UNL     1     -25.904  -0.450  52.698  0.00  0.00    +0.000 OA
ATOM     21  H   UNL     1     -26.589  -1.094  52.949  0.00  0.00    +0.000 HD
ENDBRANCH   8  20
BRANCH  11  22
ATOM     22  O   UNL     1     -23.234   2.893  54.757  0.00  0.00    +0.000 OA
ATOM     23  H   UNL     1     -23.354   3.259  53.865  0.00  0.00    +0.000 HD
ENDBRANCH  11  22
BRANCH   3  24
ATOM     24  O   UNL     1     -26.673  -3.807  56.638  0.00  0.00    +0.000 OA
BRANCH  24  30
ATOM     25  O   UNL     1     -25.679  -5.430  55.222  0.00  0.00    +0.000 OA
ATOM     26  C   UNL     1     -27.595  -6.656  56.973  0.00  0.00    +0.000 C 
ATOM     27  C   UNL     1     -27.440  -7.102  55.519  0.00  0.00    +0.000 C 
ATOM     28  C   UNL     1     -26.300  -6.032  57.496  0.00  0.00    +0.000 C 
ATOM     29  C   UNL     1     -26.894  -5.946  54.669  0.00  0.00    +0.000 C 
ATOM     30  C   UNL     1     -25.806  -4.934  56.558  0.00  0.00    +0.000 C 
ATOM     31  C   UNL     1     -26.584  -6.384  53.240  0.00  0.00    +0.000 C 
BRANCH  26  32
ATOM     32  O   UNL     1     -27.950  -7.782  57.773  0.00  0.00    +0.000 OA
ATOM     33  H   UNL     1     -27.128  -8.226  58.041  0.00  0.00    +0.000 HD
ENDBRANCH  26  32
BRANCH  27  34
ATOM     34  O   UNL     1     -28.720  -7.506  55.040  0.00  0.00    +0.000 OA
ATOM     35  H   UNL     1     -28.983  -8.308  55.522  0.00  0.00    +0.000 HD
ENDBRANCH  27  34
BRANCH  28  36
ATOM     36  O   UNL     1     -25.279  -7.028  57.577  0.00  0.00    +0.000 OA
ATOM     37  H   UNL     1     -24.907  -7.139  56.686  0.00  0.00    +0.000 HD
ENDBRANCH  28  36
ENDBRANCH  24  30
ENDBRANCH   3  24
TORSDOF 9
ENDMDL
MODEL 5
REMARK VINA RESULT:    -6.660     21.149     22.692
REMARK INTER + INTRA:         -10.188
REMARK INTER:                  -8.947
REMARK INTRA:                  -1.241
REMARK UNBOUND:                -1.193
REMARK  Name = 5316673
REMARK  10 active torsions:
REMARK  status: ('A' for Active; 'I' for Inactive)
REMARK    1  A    between atoms: O_2  and  C_15
REMARK    2  A    between atoms: O_2  and  C_17
REMARK    3  A    between atoms: O_3  and  C_11
REMARK    4  A    between atoms: O_4  and  C_12
REMARK    5  A    between atoms: O_5  and  C_13
REMARK    6  A    between atoms: O_8  and  C_23
REMARK    7  A    between atoms: O_9  and  C_28
REMARK    8  A    between atoms: O_10  and  C_31
REMARK    9  A    between atoms: C_14  and  C_16
REMARK   10  A    between atoms: C_18  and  C_22
REMARK                            x       y       z     vdW  Elec       q    Type
REMARK                         _______ _______ _______ _____ _____    ______ ____
ROOT
ATOM      1  O   UNL     1     -38.646  14.548  53.463  0.00  0.00    +0.000 OA
ATOM      2  O   UNL     1     -38.676  13.173  57.299  0.00  0.00    +0.000 OA
ATOM      3  C   UNL     1     -37.674  14.576  55.676  0.00  0.00    +0.000 A 
ATOM      4  C   UNL     1     -37.717  14.983  54.394  0.00  0.00    +0.000 A 
ATOM      5  C   UNL     1     -38.667  13.580  56.145  0.00  0.00    +0.000 A 
ATOM      6  C   UNL     1     -39.642  13.112  55.149  0.00  0.00    +0.000 A 
ATOM      7  C   UNL     1     -39.581  13.623  53.854  0.00  0.00    +0.000 A 
ATOM      8  C   UNL     1     -40.617  12.172  55.490  0.00  0.00    +0.000 A 
ATOM      9  C   UNL     1     -40.495  13.196  52.892  0.00  0.00    +0.000 A 
ATOM     10  C   UNL     1     -41.531  11.747  54.526  0.00  0.00    +0.000 A 
ATOM     11  C   UNL     1     -41.470  12.258  53.228  0.00  0.00    +0.000 A 
ENDROOT
BRANCH   4  12
ATOM     12  C   UNL     1     -36.775  15.974  53.846  0.00  0.00    +0.000 A 
ATOM     13  C   UNL     1     -37.252  17.181  53.333  0.00  0.00    +0.000 A 
ATOM     14  C   UNL     1     -35.406  15.708  53.841  0.00  0.00    +0.000 A 
ATOM     15  C   UNL     1     -36.359  18.120  52.814  0.00  0.00    +0.000 A 
ATOM     16  C   UNL     1     -34.513  16.646  53.323  0.00  0.00    +0.000 A 
ATOM     17  C   UNL     1     -34.990  17.853  52.809  0.00  0.00    +0.000 A 
BRANCH  17  18
ATOM     18  O   UNL     1     -34.120  18.768  52.304  0.00  0.00    +0.000 OA
ATOM     19  H   UNL     1     -33.377  18.299  51.886  0.00  0.00    +0.000 HD
ENDBRANCH  17  18
ENDBRANCH   4  12
BRANCH   8  20
ATOM     20  O   UNL     1     -40.721  11.642  56.741  0.00  0.00    +0.000 OA
ATOM     21  H   UNL     1     -39.967  11.937  57.281  0.00  0.00    +0.000 HD
ENDBRANCH   8  20
BRANCH  11  22
ATOM     22  O   UNL     1     -42.364  11.839  52.290  0.00  0.00    +0.000 OA
ATOM     23  H   UNL     1     -42.188  12.306  51.455  0.00  0.00    +0.000 HD
ENDBRANCH  11  22
BRANCH   3  24
ATOM     24  O   UNL     1     -36.756  15.055  56.587  0.00  0.00    +0.000 OA
BRANCH  24  30
ATOM     25  O   UNL     1     -36.853  17.415  56.803  0.00  0.00    +0.000 OA
ATOM     26  C   UNL     1     -35.367  16.263  58.972  0.00  0.00    +0.000 C 
ATOM     27  C   UNL     1     -34.947  17.583  58.327  0.00  0.00    +0.000 C 
ATOM     28  C   UNL     1     -36.867  16.020  58.796  0.00  0.00    +0.000 C 
ATOM     29  C   UNL     1     -35.441  17.641  56.875  0.00  0.00    +0.000 C 
ATOM     30  C   UNL     1     -37.273  16.153  57.330  0.00  0.00    +0.000 C 
ATOM     31  C   UNL     1     -35.174  19.000  56.234  0.00  0.00    +0.000 C 
BRANCH  26  32
ATOM     32  O   UNL     1     -35.039  16.293  60.360  0.00  0.00    +0.000 OA
ATOM     33  H   UNL     1     -34.852  17.217  60.600  0.00  0.00    +0.000 HD
ENDBRANCH  26  32
BRANCH  27  34
ATOM     34  O   UNL     1     -33.524  17.665  58.368  0.00  0.00    +0.000 OA
ATOM     35  H   UNL     1     -33.174  16.764  58.472  0.00  0.00    +0.000 HD
ENDBRANCH  27  34
BRANCH  28  36
ATOM     36  O   UNL     1     -37.607  16.987  59.543  0.00  0.00    +0.000 OA
ATOM     37  H   UNL     1     -37.522  16.758  60.484  0.00  0.00    +0.000 HD
ENDBRANCH  28  36
ENDBRANCH  24  30
ENDBRANCH   3  24
TORSDOF 9
ENDMDL
MODEL 6
REMARK VINA RESULT:    -6.617      1.747      2.270
REMARK INTER + INTRA:         -10.131
REMARK INTER:                  -9.790
REMARK INTRA:                  -0.341
REMARK UNBOUND:                -1.193
REMARK  Name = 5316673
REMARK  10 active torsions:
REMARK  status: ('A' for Active; 'I' for Inactive)
REMARK    1  A    between atoms: O_2  and  C_15
REMARK    2  A    between atoms: O_2  and  C_17
REMARK    3  A    between atoms: O_3  and  C_11
REMARK    4  A    between atoms: O_4  and  C_12
REMARK    5  A    between atoms: O_5  and  C_13
REMARK    6  A    between atoms: O_8  and  C_23
REMARK    7  A    between atoms: O_9  and  C_28
REMARK    8  A    between atoms: O_10  and  C_31
REMARK    9  A    between atoms: C_14  and  C_16
REMARK   10  A    between atoms: C_18  and  C_22
REMARK                            x       y       z     vdW  Elec       q    Type
REMARK                         _______ _______ _______ _____ _____    ______ ____
ROOT
ATOM      1  O   UNL     1     -24.677  -1.412  53.800  0.00  0.00    +0.000 OA
ATOM      2  O   UNL     1     -22.026  -0.993  56.867  0.00  0.00    +0.000 OA
ATOM      3  C   UNL     1     -23.774  -2.251  55.880  0.00  0.00    +0.000 A 
ATOM      4  C   UNL     1     -24.627  -2.325  54.842  0.00  0.00    +0.000 A 
ATOM      5  C   UNL     1     -22.824  -1.114  55.947  0.00  0.00    +0.000 A 
ATOM      6  C   UNL     1     -22.892  -0.142  54.845  0.00  0.00    +0.000 A 
ATOM      7  C   UNL     1     -23.819  -0.343  53.825  0.00  0.00    +0.000 A 
ATOM      8  C   UNL     1     -22.041   0.967  54.817  0.00  0.00    +0.000 A 
ATOM      9  C   UNL     1     -23.901   0.564  52.769  0.00  0.00    +0.000 A 
ATOM     10  C   UNL     1     -22.126   1.872  53.759  0.00  0.00    +0.000 A 
ATOM     11  C   UNL     1     -23.054   1.671  52.737  0.00  0.00    +0.000 A 
ENDROOT
BRANCH   4  12
ATOM     12  C   UNL     1     -25.597  -3.423  54.692  0.00  0.00    +0.000 A 
ATOM     13  C   UNL     1     -25.227  -4.597  54.033  0.00  0.00    +0.000 A 
ATOM     14  C   UNL     1     -26.886  -3.290  55.207  0.00  0.00    +0.000 A 
ATOM     15  C   UNL     1     -26.147  -5.637  53.891  0.00  0.00    +0.000 A 
ATOM     16  C   UNL     1     -27.806  -4.330  55.066  0.00  0.00    +0.000 A 
ATOM     17  C   UNL     1     -27.436  -5.504  54.408  0.00  0.00    +0.000 A 
BRANCH  17  18
ATOM     18  O   UNL     1     -28.332  -6.518  54.271  0.00  0.00    +0.000 OA
ATOM     19  H   UNL     1     -28.609  -6.815  55.155  0.00  0.00    +0.000 HD
ENDBRANCH  17  18
ENDBRANCH   4  12
BRANCH   8  20
ATOM     20  O   UNL     1     -21.118   1.209  55.789  0.00  0.00    +0.000 OA
ATOM     21  H   UNL     1     -20.263   0.828  55.526  0.00  0.00    +0.000 HD
ENDBRANCH   8  20
BRANCH  11  22
ATOM     22  O   UNL     1     -23.133   2.559  51.706  0.00  0.00    +0.000 OA
ATOM     23  H   UNL     1     -22.358   3.146  51.735  0.00  0.00    +0.000 HD
ENDBRANCH  11  22
BRANCH   3  24
ATOM     24  O   UNL     1     -23.727  -3.194  56.884  0.00  0.00    +0.000 OA
BRANCH  24  30
ATOM     25  O   UNL     1     -23.465  -3.538  59.217  0.00  0.00    +0.000 OA
ATOM     26  C   UNL     1     -26.190  -2.883  58.592  0.00  0.00    +0.000 C 
ATOM     27  C   UNL     1     -25.840  -3.920  59.659  0.00  0.00    +0.000 C 
ATOM     28  C   UNL     1     -25.051  -1.877  58.412  0.00  0.00    +0.000 C 
ATOM     29  C   UNL     1     -24.471  -4.546  59.358  0.00  0.00    +0.000 C 
ATOM     30  C   UNL     1     -23.724  -2.592  58.174  0.00  0.00    +0.000 C 
ATOM     31  C   UNL     1     -24.012  -5.481  60.474  0.00  0.00    +0.000 C 
BRANCH  26  32
ATOM     32  O   UNL     1     -27.384  -2.203  58.972  0.00  0.00    +0.000 OA
ATOM     33  H   UNL     1     -28.089  -2.867  59.055  0.00  0.00    +0.000 HD
ENDBRANCH  26  32
BRANCH  27  34
ATOM     34  O   UNL     1     -26.854  -4.923  59.652  0.00  0.00    +0.000 OA
ATOM     35  H   UNL     1     -27.712  -4.485  59.775  0.00  0.00    +0.000 HD
ENDBRANCH  27  34
BRANCH  28  36
ATOM     36  O   UNL     1     -24.913  -1.083  59.592  0.00  0.00    +0.000 OA
ATOM     37  H   UNL     1     -25.242  -0.192  59.386  0.00  0.00    +0.000 HD
ENDBRANCH  28  36
ENDBRANCH  24  30
ENDBRANCH   3  24
TORSDOF 9
ENDMDL
MODEL 7
REMARK VINA RESULT:    -6.549     20.620     22.128
REMARK INTER + INTRA:         -10.040
REMARK INTER:                  -9.198
REMARK INTRA:                  -0.841
REMARK UNBOUND:                -1.193
REMARK  Name = 5316673
REMARK  10 active torsions:
REMARK  status: ('A' for Active; 'I' for Inactive)
REMARK    1  A    between atoms: O_2  and  C_15
REMARK    2  A    between atoms: O_2  and  C_17
REMARK    3  A    between atoms: O_3  and  C_11
REMARK    4  A    between atoms: O_4  and  C_12
REMARK    5  A    between atoms: O_5  and  C_13
REMARK    6  A    between atoms: O_8  and  C_23
REMARK    7  A    between atoms: O_9  and  C_28
REMARK    8  A    between atoms: O_10  and  C_31
REMARK    9  A    between atoms: C_14  and  C_16
REMARK   10  A    between atoms: C_18  and  C_22
REMARK                            x       y       z     vdW  Elec       q    Type
REMARK                         _______ _______ _______ _____ _____    ______ ____
ROOT
ATOM      1  O   UNL     1     -38.574  14.107  53.794  0.00  0.00    +0.000 OA
ATOM      2  O   UNL     1     -39.137  13.515  57.787  0.00  0.00    +0.000 OA
ATOM      3  C   UNL     1     -38.011  14.697  56.071  0.00  0.00    +0.000 A 
ATOM      4  C   UNL     1     -37.870  14.836  54.740  0.00  0.00    +0.000 A 
ATOM      5  C   UNL     1     -38.967  13.688  56.587  0.00  0.00    +0.000 A 
ATOM      6  C   UNL     1     -39.701  12.908  55.579  0.00  0.00    +0.000 A 
ATOM      7  C   UNL     1     -39.465  13.161  54.229  0.00  0.00    +0.000 A 
ATOM      8  C   UNL     1     -40.623  11.930  55.964  0.00  0.00    +0.000 A 
ATOM      9  C   UNL     1     -40.150  12.436  53.254  0.00  0.00    +0.000 A 
ATOM     10  C   UNL     1     -41.307  11.207  54.986  0.00  0.00    +0.000 A 
ATOM     11  C   UNL     1     -41.071  11.459  53.634  0.00  0.00    +0.000 A 
ENDROOT
BRANCH   4  12
ATOM     12  C   UNL     1     -36.950  15.819  54.140  0.00  0.00    +0.000 A 
ATOM     13  C   UNL     1     -35.601  15.501  53.974  0.00  0.00    +0.000 A 
ATOM     14  C   UNL     1     -37.426  17.066  53.739  0.00  0.00    +0.000 A 
ATOM     15  C   UNL     1     -34.730  16.432  53.405  0.00  0.00    +0.000 A 
ATOM     16  C   UNL     1     -36.556  17.997  53.170  0.00  0.00    +0.000 A 
ATOM     17  C   UNL     1     -35.208  17.679  53.003  0.00  0.00    +0.000 A 
BRANCH  17  18
ATOM     18  O   UNL     1     -34.359  18.586  52.449  0.00  0.00    +0.000 OA
ATOM     19  H   UNL     1     -33.530  18.136  52.210  0.00  0.00    +0.000 HD
ENDBRANCH  17  18
ENDBRANCH   4  12
BRANCH   8  20
ATOM     20  O   UNL     1     -40.890  11.646  57.269  0.00  0.00    +0.000 OA
ATOM     21  H   UNL     1     -41.819  11.856  57.463  0.00  0.00    +0.000 HD
ENDBRANCH   8  20
BRANCH  11  22
ATOM     22  O   UNL     1     -41.740  10.750  52.683  0.00  0.00    +0.000 OA
ATOM     23  H   UNL     1     -41.672   9.802  52.890  0.00  0.00    +0.000 HD
ENDBRANCH  11  22
BRANCH   3  24
ATOM     24  O   UNL     1     -37.319  15.462  56.985  0.00  0.00    +0.000 OA
BRANCH  24  30
ATOM     25  O   UNL     1     -36.127  14.210  58.610  0.00  0.00    +0.000 OA
ATOM     26  C   UNL     1     -35.136  16.901  58.482  0.00  0.00    +0.000 C 
ATOM     27  C   UNL     1     -35.264  16.159  59.811  0.00  0.00    +0.000 C 
ATOM     28  C   UNL     1     -34.973  15.920  57.319  0.00  0.00    +0.000 C 
ATOM     29  C   UNL     1     -36.362  15.090  59.714  0.00  0.00    +0.000 C 
ATOM     30  C   UNL     1     -36.076  14.865  57.338  0.00  0.00    +0.000 C 
ATOM     31  C   UNL     1     -36.429  14.223  60.969  0.00  0.00    +0.000 C 
BRANCH  26  32
ATOM     32  O   UNL     1     -34.011  17.777  58.540  0.00  0.00    +0.000 OA
ATOM     33  H   UNL     1     -34.329  18.647  58.835  0.00  0.00    +0.000 HD
ENDBRANCH  26  32
BRANCH  27  34
ATOM     34  O   UNL     1     -35.590  17.111  60.822  0.00  0.00    +0.000 OA
ATOM     35  H   UNL     1     -36.483  17.448  60.641  0.00  0.00    +0.000 HD
ENDBRANCH  27  34
BRANCH  28  36
ATOM     36  O   UNL     1     -33.720  15.243  57.427  0.00  0.00    +0.000 OA
ATOM     37  H   UNL     1     -33.895  14.289  57.360  0.00  0.00    +0.000 HD
ENDBRANCH  28  36
ENDBRANCH  24  30
ENDBRANCH   3  24
TORSDOF 9
ENDMDL
MODEL 8
REMARK VINA RESULT:    -6.547     21.516     24.640
REMARK INTER + INTRA:         -10.037
REMARK INTER:                  -8.943
REMARK INTRA:                  -1.094
REMARK UNBOUND:                -1.193
REMARK  Name = 5316673
REMARK  10 active torsions:
REMARK  status: ('A' for Active; 'I' for Inactive)
REMARK    1  A    between atoms: O_2  and  C_15
REMARK    2  A    between atoms: O_2  and  C_17
REMARK    3  A    between atoms: O_3  and  C_11
REMARK    4  A    between atoms: O_4  and  C_12
REMARK    5  A    between atoms: O_5  and  C_13
REMARK    6  A    between atoms: O_8  and  C_23
REMARK    7  A    between atoms: O_9  and  C_28
REMARK    8  A    between atoms: O_10  and  C_31
REMARK    9  A    between atoms: C_14  and  C_16
REMARK   10  A    between atoms: C_18  and  C_22
REMARK                            x       y       z     vdW  Elec       q    Type
REMARK                         _______ _______ _______ _____ _____    ______ ____
ROOT
ATOM      1  O   UNL     1     -38.466  17.317  52.399  0.00  0.00    +0.000 OA
ATOM      2  O   UNL     1     -40.296  19.285  55.464  0.00  0.00    +0.000 OA
ATOM      3  C   UNL     1     -38.511  17.904  54.745  0.00  0.00    +0.000 A 
ATOM      4  C   UNL     1     -37.962  17.274  53.690  0.00  0.00    +0.000 A 
ATOM      5  C   UNL     1     -39.751  18.691  54.542  0.00  0.00    +0.000 A 
ATOM      6  C   UNL     1     -40.288  18.722  53.173  0.00  0.00    +0.000 A 
ATOM      7  C   UNL     1     -39.614  18.031  52.169  0.00  0.00    +0.000 A 
ATOM      8  C   UNL     1     -41.454  19.434  52.879  0.00  0.00    +0.000 A 
ATOM      9  C   UNL     1     -40.102  18.047  50.863  0.00  0.00    +0.000 A 
ATOM     10  C   UNL     1     -41.940  19.448  51.571  0.00  0.00    +0.000 A 
ATOM     11  C   UNL     1     -41.266  18.756  50.565  0.00  0.00    +0.000 A 
ENDROOT
BRANCH   4  12
ATOM     12  C   UNL     1     -36.728  16.477  53.798  0.00  0.00    +0.000 A 
ATOM     13  C   UNL     1     -35.505  17.029  53.415  0.00  0.00    +0.000 A 
ATOM     14  C   UNL     1     -36.781  15.171  54.284  0.00  0.00    +0.000 A 
ATOM     15  C   UNL     1     -34.335  16.274  53.519  0.00  0.00    +0.000 A 
ATOM     16  C   UNL     1     -35.612  14.416  54.388  0.00  0.00    +0.000 A 
ATOM     17  C   UNL     1     -34.389  14.968  54.005  0.00  0.00    +0.000 A 
BRANCH  17  18
ATOM     18  O   UNL     1     -33.249  14.232  54.107  0.00  0.00    +0.000 OA
ATOM     19  H   UNL     1     -32.503  14.832  54.282  0.00  0.00    +0.000 HD
ENDBRANCH  17  18
ENDBRANCH   4  12
BRANCH   8  20
ATOM     20  O   UNL     1     -42.150  20.126  53.824  0.00  0.00    +0.000 OA
ATOM     21  H   UNL     1     -43.045  20.317  53.493  0.00  0.00    +0.000 HD
ENDBRANCH   8  20
BRANCH  11  22
ATOM     22  O   UNL     1     -41.745  18.772  49.290  0.00  0.00    +0.000 OA
ATOM     23  H   UNL     1     -42.408  19.479  49.211  0.00  0.00    +0.000 HD
ENDBRANCH  11  22
BRANCH   3  24
ATOM     24  O   UNL     1     -37.966  17.867  56.010  0.00  0.00    +0.000 OA
BRANCH  24  30
ATOM     25  O   UNL     1     -35.717  18.448  56.493  0.00  0.00    +0.000 OA
ATOM     26  C   UNL     1     -37.430  19.128  58.694  0.00  0.00    +0.000 C 
ATOM     27  C   UNL     1     -36.027  18.565  58.917  0.00  0.00    +0.000 C 
ATOM     28  C   UNL     1     -37.529  19.833  57.340  0.00  0.00    +0.000 C 
ATOM     29  C   UNL     1     -35.605  17.709  57.713  0.00  0.00    +0.000 C 
ATOM     30  C   UNL     1     -37.037  18.926  56.215  0.00  0.00    +0.000 C 
ATOM     31  C   UNL     1     -34.155  17.245  57.822  0.00  0.00    +0.000 C 
BRANCH  26  32
ATOM     32  O   UNL     1     -37.741  20.042  59.743  0.00  0.00    +0.000 OA
ATOM     33  H   UNL     1     -37.631  19.573  60.587  0.00  0.00    +0.000 HD
ENDBRANCH  26  32
BRANCH  27  34
ATOM     34  O   UNL     1     -36.049  17.773  60.102  0.00  0.00    +0.000 OA
ATOM     35  H   UNL     1     -35.408  17.051  59.994  0.00  0.00    +0.000 HD
ENDBRANCH  27  34
BRANCH  28  36
ATOM     36  O   UNL     1     -36.714  21.006  57.343  0.00  0.00    +0.000 OA
ATOM     37  H   UNL     1     -36.805  21.428  56.472  0.00  0.00    +0.000 HD
ENDBRANCH  28  36
ENDBRANCH  24  30
ENDBRANCH   3  24
TORSDOF 9
ENDMDL
MODEL 9
REMARK VINA RESULT:    -6.334      2.696      6.620
REMARK INTER + INTRA:          -9.748
REMARK INTER:                  -8.555
REMARK INTRA:                  -1.193
REMARK UNBOUND:                -1.193
REMARK  Name = 5316673
REMARK  10 active torsions:
REMARK  status: ('A' for Active; 'I' for Inactive)
REMARK    1  A    between atoms: O_2  and  C_15
REMARK    2  A    between atoms: O_2  and  C_17
REMARK    3  A    between atoms: O_3  and  C_11
REMARK    4  A    between atoms: O_4  and  C_12
REMARK    5  A    between atoms: O_5  and  C_13
REMARK    6  A    between atoms: O_8  and  C_23
REMARK    7  A    between atoms: O_9  and  C_28
REMARK    8  A    between atoms: O_10  and  C_31
REMARK    9  A    between atoms: C_14  and  C_16
REMARK   10  A    between atoms: C_18  and  C_22
REMARK                            x       y       z     vdW  Elec       q    Type
REMARK                         _______ _______ _______ _____ _____    ______ ____
ROOT
ATOM      1  O   UNL     1     -24.537  -4.914  61.622  0.00  0.00    +0.000 OA
ATOM      2  O   UNL     1     -22.805  -1.980  59.387  0.00  0.00    +0.000 OA
ATOM      3  C   UNL     1     -24.199  -3.893  59.457  0.00  0.00    +0.000 A 
ATOM      4  C   UNL     1     -24.734  -4.837  60.252  0.00  0.00    +0.000 A 
ATOM      5  C   UNL     1     -23.320  -2.862  60.060  0.00  0.00    +0.000 A 
ATOM      6  C   UNL     1     -23.104  -2.957  61.512  0.00  0.00    +0.000 A 
ATOM      7  C   UNL     1     -23.727  -3.983  62.220  0.00  0.00    +0.000 A 
ATOM      8  C   UNL     1     -22.290  -2.036  62.175  0.00  0.00    +0.000 A 
ATOM      9  C   UNL     1     -23.540  -4.093  63.597  0.00  0.00    +0.000 A 
ATOM     10  C   UNL     1     -22.104  -2.148  63.553  0.00  0.00    +0.000 A 
ATOM     11  C   UNL     1     -22.728  -3.176  64.263  0.00  0.00    +0.000 A 
ENDROOT
BRANCH   4  12
ATOM     12  C   UNL     1     -25.623  -5.894  59.739  0.00  0.00    +0.000 A 
ATOM     13  C   UNL     1     -26.991  -5.849  60.014  0.00  0.00    +0.000 A 
ATOM     14  C   UNL     1     -25.100  -6.938  58.978  0.00  0.00    +0.000 A 
ATOM     15  C   UNL     1     -27.834  -6.849  59.527  0.00  0.00    +0.000 A 
ATOM     16  C   UNL     1     -25.942  -7.938  58.491  0.00  0.00    +0.000 A 
ATOM     17  C   UNL     1     -27.309  -7.894  58.766  0.00  0.00    +0.000 A 
BRANCH  17  18
ATOM     18  O   UNL     1     -28.131  -8.869  58.291  0.00  0.00    +0.000 OA
ATOM     19  H   UNL     1     -28.852  -8.454  57.786  0.00  0.00    +0.000 HD
ENDBRANCH  17  18
ENDBRANCH   4  12
BRANCH   8  20
ATOM     20  O   UNL     1     -21.660  -1.015  61.530  0.00  0.00    +0.000 OA
ATOM     21  H   UNL     1     -21.197  -1.362  60.747  0.00  0.00    +0.000 HD
ENDBRANCH   8  20
BRANCH  11  22
ATOM     22  O   UNL     1     -22.543  -3.281  65.608  0.00  0.00    +0.000 OA
ATOM     23  H   UNL     1     -23.362  -3.018  66.061  0.00  0.00    +0.000 HD
ENDBRANCH  11  22
BRANCH   3  24
ATOM     24  O   UNL     1     -24.442  -3.825  58.101  0.00  0.00    +0.000 OA
BRANCH  24  30
ATOM     25  O   UNL     1     -26.673  -3.999  57.313  0.00  0.00    +0.000 OA
ATOM     26  C   UNL     1     -25.051  -2.547  55.442  0.00  0.00    +0.000 C 
ATOM     27  C   UNL     1     -26.126  -3.528  54.976  0.00  0.00    +0.000 C 
ATOM     28  C   UNL     1     -25.376  -1.997  56.832  0.00  0.00    +0.000 C 
ATOM     29  C   UNL     1     -26.364  -4.598  56.051  0.00  0.00    +0.000 C 
ATOM     30  C   UNL     1     -25.652  -3.131  57.816  0.00  0.00    +0.000 C 
ATOM     31  C   UNL     1     -27.532  -5.515  55.695  0.00  0.00    +0.000 C 
BRANCH  26  32
ATOM     32  O   UNL     1     -24.956  -1.475  54.506  0.00  0.00    +0.000 OA
ATOM     33  H   UNL     1     -24.116  -1.575  54.026  0.00  0.00    +0.000 HD
ENDBRANCH  26  32
BRANCH  27  34
ATOM     34  O   UNL     1     -25.679  -4.134  53.765  0.00  0.00    +0.000 OA
ATOM     35  H   UNL     1     -26.140  -3.705  53.025  0.00  0.00    +0.000 HD
ENDBRANCH  27  34
BRANCH  28  36
ATOM     36  O   UNL     1     -26.546  -1.179  56.770  0.00  0.00    +0.000 OA
ATOM     37  H   UNL     1     -26.835  -1.152  55.843  0.00  0.00    +0.000 HD
ENDBRANCH  28  36
ENDBRANCH  24  30
ENDBRANCH   3  24
TORSDOF 9
ENDMDL
MODEL 10
REMARK VINA RESULT:    -6.311      2.411      6.247
REMARK INTER + INTRA:          -9.718
REMARK INTER:                  -8.427
REMARK INTRA:                  -1.291
REMARK UNBOUND:                -1.193
REMARK  Name = 5316673
REMARK  10 active torsions:
REMARK  status: ('A' for Active; 'I' for Inactive)
REMARK    1  A    between atoms: O_2  and  C_15
REMARK    2  A    between atoms: O_2  and  C_17
REMARK    3  A    between atoms: O_3  and  C_11
REMARK    4  A    between atoms: O_4  and  C_12
REMARK    5  A    between atoms: O_5  and  C_13
REMARK    6  A    between atoms: O_8  and  C_23
REMARK    7  A    between atoms: O_9  and  C_28
REMARK    8  A    between atoms: O_10  and  C_31
REMARK    9  A    between atoms: C_14  and  C_16
REMARK   10  A    between atoms: C_18  and  C_22
REMARK                            x       y       z     vdW  Elec       q    Type
REMARK                         _______ _______ _______ _____ _____    ______ ____
ROOT
ATOM      1  O   UNL     1     -24.058  -2.486  59.601  0.00  0.00    +0.000 OA
ATOM      2  O   UNL     1     -25.830  -5.701  61.371  0.00  0.00    +0.000 OA
ATOM      3  C   UNL     1     -25.602  -4.341  59.446  0.00  0.00    +0.000 A 
ATOM      4  C   UNL     1     -24.985  -3.264  58.925  0.00  0.00    +0.000 A 
ATOM      5  C   UNL     1     -25.299  -4.732  60.844  0.00  0.00    +0.000 A 
ATOM      6  C   UNL     1     -24.325  -3.895  61.560  0.00  0.00    +0.000 A 
ATOM      7  C   UNL     1     -23.752  -2.811  60.898  0.00  0.00    +0.000 A 
ATOM      8  C   UNL     1     -23.974  -4.179  62.882  0.00  0.00    +0.000 A 
ATOM      9  C   UNL     1     -22.825  -2.004  61.554  0.00  0.00    +0.000 A 
ATOM     10  C   UNL     1     -23.045  -3.370  63.537  0.00  0.00    +0.000 A 
ATOM     11  C   UNL     1     -22.472  -2.283  62.874  0.00  0.00    +0.000 A 
ENDROOT
BRANCH   4  12
ATOM     12  C   UNL     1     -25.220  -2.808  57.544  0.00  0.00    +0.000 A 
ATOM     13  C   UNL     1     -24.171  -2.802  56.623  0.00  0.00    +0.000 A 
ATOM     14  C   UNL     1     -26.490  -2.383  57.156  0.00  0.00    +0.000 A 
ATOM     15  C   UNL     1     -24.394  -2.371  55.315  0.00  0.00    +0.000 A 
ATOM     16  C   UNL     1     -26.713  -1.952  55.848  0.00  0.00    +0.000 A 
ATOM     17  C   UNL     1     -25.665  -1.946  54.927  0.00  0.00    +0.000 A 
BRANCH  17  18
ATOM     18  O   UNL     1     -25.882  -1.527  53.651  0.00  0.00    +0.000 OA
ATOM     19  H   UNL     1     -26.420  -0.717  53.674  0.00  0.00    +0.000 HD
ENDBRANCH  17  18
ENDBRANCH   4  12
BRANCH   8  20
ATOM     20  O   UNL     1     -24.504  -5.227  63.574  0.00  0.00    +0.000 OA
ATOM     21  H   UNL     1     -24.752  -4.933  64.467  0.00  0.00    +0.000 HD
ENDBRANCH   8  20
BRANCH  11  22
ATOM     22  O   UNL     1     -21.566  -1.496  63.518  0.00  0.00    +0.000 OA
ATOM     23  H   UNL     1     -20.985  -1.080  62.859  0.00  0.00    +0.000 HD
ENDBRANCH  11  22
BRANCH   3  24
ATOM     24  O   UNL     1     -26.496  -5.113  58.735  0.00  0.00    +0.000 OA
BRANCH  24  30
ATOM     25  O   UNL     1     -25.373  -6.179  56.938  0.00  0.00    +0.000 OA
ATOM     26  C   UNL     1     -28.003  -7.277  57.278  0.00  0.00    +0.000 C 
ATOM     27  C   UNL     1     -27.401  -7.058  55.891  0.00  0.00    +0.000 C 
ATOM     28  C   UNL     1     -26.906  -7.456  58.330  0.00  0.00    +0.000 C 
ATOM     29  C   UNL     1     -26.365  -5.925  55.938  0.00  0.00    +0.000 C 
ATOM     30  C   UNL     1     -25.895  -6.314  58.263  0.00  0.00    +0.000 C 
ATOM     31  C   UNL     1     -25.630  -5.767  54.610  0.00  0.00    +0.000 C 
BRANCH  26  32
ATOM     32  O   UNL     1     -28.842  -8.430  57.249  0.00  0.00    +0.000 OA
ATOM     33  H   UNL     1     -29.651  -8.195  56.765  0.00  0.00    +0.000 HD
ENDBRANCH  26  32
BRANCH  27  34
ATOM     34  O   UNL     1     -28.459  -6.722  54.996  0.00  0.00    +0.000 OA
ATOM     35  H   UNL     1     -28.711  -5.798  55.160  0.00  0.00    +0.000 HD
ENDBRANCH  27  34
BRANCH  28  36
ATOM     36  O   UNL     1     -26.202  -8.677  58.094  0.00  0.00    +0.000 OA
ATOM     37  H   UNL     1     -25.294  -8.559  58.421  0.00  0.00    +0.000 HD
ENDBRANCH  28  36
ENDBRANCH  24  30
ENDBRANCH   3  24
TORSDOF 9
ENDMDL
