MODEL 1
REMARK VINA RESULT:      -6.9      0.000      0.000
REMARK  16 active torsions:
REMARK  status: ('A' for Active; 'I' for Inactive)
REMARK    1  A    between atoms: O_2  and  C_22 
REMARK    2  A    between atoms: O_2  and  C_26 
REMARK    3  A    between atoms: O_4  and  C_18 
REMARK    4  A    between atoms: O_5  and  C_19 
REMARK    5  A    between atoms: O_6  and  C_25 
REMARK    6  A    between atoms: O_6  and  C_29 
REMARK    7  A    between atoms: O_7  and  C_20 
REMARK    8  A    between atoms: O_8  and  C_21 
REMARK    9  A    between atoms: O_9  and  C_23 
REMARK   10  A    between atoms: O_10  and  C_24 
REMARK   11  A    between atoms: O_13  and  C_35 
REMARK   12  A    between atoms: O_14  and  C_40 
REMARK   13  A    between atoms: O_15  and  C_41 
REMARK   14  A    between atoms: O_16  and  C_43 
REMARK   15  A    between atoms: C_17  and  C_26 
REMARK   16  A    between atoms: C_30  and  C_33 
ROOT
HETATM    1  O   UNK     0       0.425   0.439 -28.051  0.00  0.00    -0.348 OA
HETATM    2  C   UNK     0       1.178  -0.370 -27.146  0.00  0.00     0.180 C 
HETATM    3  C   UNK     0       2.644   0.071 -27.146  0.00  0.00     0.180 C 
HETATM    4  C   UNK     0       3.223   0.030 -28.560  0.00  0.00     0.183 C 
HETATM    5  C   UNK     0       2.309   0.748 -29.553  0.00  0.00     0.205 C 
HETATM    6  C   UNK     0       0.858   0.294 -29.402  0.00  0.00     0.298 C 
ENDROOT
BRANCH   2   7
HETATM    7  C   UNK     0       0.544  -0.226 -25.765  0.00  0.00     0.205 C 
BRANCH   7   8
HETATM    8  O   UNK     0       0.705  -1.444 -25.053  0.00  0.00    -0.356 OA
BRANCH   8   9
HETATM    9  C   UNK     0       0.601  -1.242 -23.647  0.00  0.00     0.291 C 
HETATM   10  O   UNK     0       0.789  -2.452 -22.908  0.00  0.00    -0.351 OA
HETATM   11  C   UNK     0      -0.214  -3.446 -23.143  0.00  0.00     0.152 C 
HETATM   12  C   UNK     0      -1.609  -2.918 -22.780  0.00  0.00     0.178 C 
HETATM   13  C   UNK     0       0.168  -4.670 -22.315  0.00  0.00     0.042 C 
HETATM   14  C   UNK     0      -1.886  -1.611 -23.523  0.00  0.00     0.183 C 
HETATM   15  C   UNK     0      -0.749  -0.610 -23.314  0.00  0.00     0.204 C 
BRANCH  12  16
HETATM   16  O   UNK     0      -2.608  -3.863 -23.156  0.00  0.00    -0.390 OA
HETATM   17  H   UNK     0      -3.165  -3.453 -23.838  0.00  0.00     0.210 HD
ENDBRANCH  12  16
BRANCH  14  18
HETATM   18  O   UNK     0      -3.114  -1.057 -23.056  0.00  0.00    -0.390 OA
HETATM   19  H   UNK     0      -2.944  -0.648 -22.189  0.00  0.00     0.210 HD
ENDBRANCH  14  18
BRANCH  15  20
HETATM   20  O   UNK     0      -0.710  -0.195 -21.948  0.00  0.00    -0.388 OA
HETATM   21  H   UNK     0      -1.535  -0.478 -21.518  0.00  0.00     0.210 HD
ENDBRANCH  15  20
ENDBRANCH   8   9
ENDBRANCH   7   8
ENDBRANCH   2   7
BRANCH   6  22
HETATM   22  O   UNK     0       0.052   1.106 -30.255  0.00  0.00    -0.311 OA
BRANCH  22  23
HETATM   23  C   UNK     0      -0.869   0.353 -30.950  0.00  0.00     0.157 A 
HETATM   24  C   UNK     0      -2.128   0.152 -30.522  0.00  0.00     0.124 A 
HETATM   25  O   UNK     0      -3.069  -0.626 -31.179  0.00  0.00    -0.306 OA
HETATM   26  C   UNK     0      -2.712  -1.223 -32.361  0.00  0.00     0.096 A 
HETATM   27  C   UNK     0      -1.444  -1.090 -32.922  0.00  0.00     0.084 A 
HETATM   28  C   UNK     0      -3.683  -1.992 -33.004  0.00  0.00     0.075 A 
HETATM   29  C   UNK     0      -0.438  -0.277 -32.222  0.00  0.00     0.223 A 
HETATM   30  C   UNK     0      -1.136  -1.724 -34.129  0.00  0.00     0.085 A 
HETATM   31  O   UNK     0       0.694  -0.129 -32.663  0.00  0.00    -0.284 OA
HETATM   32  C   UNK     0      -2.110  -2.491 -34.771  0.00  0.00     0.074 A 
HETATM   33  C   UNK     0      -3.380  -2.625 -34.210  0.00  0.00     0.071 A 
BRANCH  24  34
HETATM   34  C   UNK     0      -2.640   0.733 -29.268  0.00  0.00     0.004 A 
HETATM   35  C   UNK     0      -2.906  -0.091 -28.174  0.00  0.00     0.053 A 
HETATM   36  C   UNK     0      -3.388   0.458 -26.987  0.00  0.00     0.099 A 
HETATM   37  C   UNK     0      -3.607   1.833 -26.892  0.00  0.00     0.098 A 
HETATM   38  C   UNK     0      -3.342   2.657 -27.986  0.00  0.00     0.040 A 
HETATM   39  C   UNK     0      -2.858   2.108 -29.173  0.00  0.00     0.017 A 
BRANCH  36  40
HETATM   40  O   UNK     0      -3.646  -0.357 -25.926  0.00  0.00    -0.358 OA
HETATM   41  H   UNK     0      -2.823  -0.781 -25.632  0.00  0.00     0.217 HD
ENDBRANCH  36  40
BRANCH  37  42
HETATM   42  O   UNK     0      -4.078   2.381 -25.738  0.00  0.00    -0.358 OA
HETATM   43  H   UNK     0      -3.414   2.287 -25.036  0.00  0.00     0.217 HD
ENDBRANCH  37  42
ENDBRANCH  24  34
BRANCH  30  44
HETATM   44  O   UNK     0       0.087  -1.627 -34.719  0.00  0.00    -0.360 OA
HETATM   45  H   UNK     0       0.236  -0.710 -35.010  0.00  0.00     0.217 HD
ENDBRANCH  30  44
BRANCH  33  46
HETATM   46  O   UNK     0      -4.326  -3.375 -34.839  0.00  0.00    -0.361 OA
HETATM   47  H   UNK     0      -3.903  -4.166 -35.214  0.00  0.00     0.217 HD
ENDBRANCH  33  46
ENDBRANCH  22  23
ENDBRANCH   6  22
BRANCH   3  48
HETATM   48  O   UNK     0       3.397  -0.797 -26.303  0.00  0.00    -0.390 OA
HETATM   49  H   UNK     0       3.991  -0.250 -25.761  0.00  0.00     0.210 HD
ENDBRANCH   3  48
BRANCH   5  50
HETATM   50  O   UNK     0       2.734   0.456 -30.884  0.00  0.00    -0.388 OA
HETATM   51  H   UNK     0       2.540  -0.479 -31.064  0.00  0.00     0.210 HD
ENDBRANCH   5  50
BRANCH   4  52
HETATM   52  O   UNK     0       4.498   0.675 -28.534  0.00  0.00    -0.390 OA
HETATM   53  H   UNK     0       4.341   1.632 -28.605  0.00  0.00     0.210 HD
ENDBRANCH   4  52
TORSDOF 16
ENDMDL
MODEL 2
REMARK VINA RESULT:      -6.9      3.492      9.489
REMARK  16 active torsions:
REMARK  status: ('A' for Active; 'I' for Inactive)
REMARK    1  A    between atoms: O_2  and  C_22 
REMARK    2  A    between atoms: O_2  and  C_26 
REMARK    3  A    between atoms: O_4  and  C_18 
REMARK    4  A    between atoms: O_5  and  C_19 
REMARK    5  A    between atoms: O_6  and  C_25 
REMARK    6  A    between atoms: O_6  and  C_29 
REMARK    7  A    between atoms: O_7  and  C_20 
REMARK    8  A    between atoms: O_8  and  C_21 
REMARK    9  A    between atoms: O_9  and  C_23 
REMARK   10  A    between atoms: O_10  and  C_24 
REMARK   11  A    between atoms: O_13  and  C_35 
REMARK   12  A    between atoms: O_14  and  C_40 
REMARK   13  A    between atoms: O_15  and  C_41 
REMARK   14  A    between atoms: O_16  and  C_43 
REMARK   15  A    between atoms: C_17  and  C_26 
REMARK   16  A    between atoms: C_30  and  C_33 
ROOT
HETATM    1  O   UNK     0      -3.089   2.917 -27.507  0.00  0.00    -0.348 OA
HETATM    2  C   UNK     0      -3.329   2.717 -28.902  0.00  0.00     0.180 C 
HETATM    3  C   UNK     0      -2.939   3.974 -29.683  0.00  0.00     0.180 C 
HETATM    4  C   UNK     0      -3.684   5.198 -29.149  0.00  0.00     0.183 C 
HETATM    5  C   UNK     0      -3.568   5.295 -27.627  0.00  0.00     0.205 C 
HETATM    6  C   UNK     0      -3.893   3.959 -26.959  0.00  0.00     0.298 C 
ENDROOT
BRANCH   2   7
HETATM    7  C   UNK     0      -2.512   1.504 -29.338  0.00  0.00     0.205 C 
BRANCH   7   8
HETATM    8  O   UNK     0      -3.222   0.811 -30.354  0.00  0.00    -0.356 OA
BRANCH   8   9
HETATM    9  C   UNK     0      -2.352   0.383 -31.397  0.00  0.00     0.291 C 
HETATM   10  O   UNK     0      -2.451   1.208 -32.562  0.00  0.00    -0.351 OA
HETATM   11  C   UNK     0      -3.731   1.169 -33.202  0.00  0.00     0.152 C 
HETATM   12  C   UNK     0      -4.084  -0.259 -33.641  0.00  0.00     0.178 C 
HETATM   13  C   UNK     0      -3.668   2.131 -34.386  0.00  0.00     0.042 C 
HETATM   14  C   UNK     0      -3.990  -1.213 -32.450  0.00  0.00     0.183 C 
HETATM   15  C   UNK     0      -2.640  -1.077 -31.744  0.00  0.00     0.204 C 
BRANCH  12  16
HETATM   16  O   UNK     0      -5.418  -0.306 -34.143  0.00  0.00    -0.390 OA
HETATM   17  H   UNK     0      -5.721  -1.229 -34.099  0.00  0.00     0.210 HD
ENDBRANCH  12  16
BRANCH  14  18
HETATM   18  O   UNK     0      -4.166  -2.553 -32.906  0.00  0.00    -0.390 OA
HETATM   19  H   UNK     0      -3.316  -2.856 -33.271  0.00  0.00     0.210 HD
ENDBRANCH  14  18
BRANCH  15  20
HETATM   20  O   UNK     0      -1.593  -1.535 -32.601  0.00  0.00    -0.388 OA
HETATM   21  H   UNK     0      -1.753  -2.472 -32.806  0.00  0.00     0.210 HD
ENDBRANCH  15  20
ENDBRANCH   8   9
ENDBRANCH   7   8
ENDBRANCH   2   7
BRANCH   6  22
HETATM   22  O   UNK     0      -3.625   4.089 -25.563  0.00  0.00    -0.311 OA
BRANCH  22  23
HETATM   23  C   UNK     0      -4.518   3.364 -24.806  0.00  0.00     0.157 A 
HETATM   24  C   UNK     0      -4.310   2.084 -24.449  0.00  0.00     0.124 A 
HETATM   25  O   UNK     0      -5.202   1.316 -23.716  0.00  0.00    -0.306 OA
HETATM   26  C   UNK     0      -6.374   1.894 -23.301  0.00  0.00     0.096 A 
HETATM   27  C   UNK     0      -6.711   3.213 -23.594  0.00  0.00     0.084 A 
HETATM   28  C   UNK     0      -7.247   1.099 -22.557  0.00  0.00     0.075 A 
HETATM   29  C   UNK     0      -5.775   4.029 -24.383  0.00  0.00     0.223 A 
HETATM   30  C   UNK     0      -7.922   3.749 -23.145  0.00  0.00     0.085 A 
HETATM   31  O   UNK     0      -6.019   5.192 -24.675  0.00  0.00    -0.284 OA
HETATM   32  C   UNK     0      -8.793   2.952 -22.401  0.00  0.00     0.074 A 
HETATM   33  C   UNK     0      -8.456   1.631 -22.107  0.00  0.00     0.071 A 
BRANCH  24  34
HETATM   34  C   UNK     0      -3.094   1.344 -24.831  0.00  0.00     0.004 A 
HETATM   35  C   UNK     0      -1.844   1.782 -24.394  0.00  0.00     0.053 A 
HETATM   36  C   UNK     0      -0.694   1.081 -24.753  0.00  0.00     0.099 A 
HETATM   37  C   UNK     0      -0.792  -0.059 -25.551  0.00  0.00     0.098 A 
HETATM   38  C   UNK     0      -2.042  -0.498 -25.988  0.00  0.00     0.040 A 
HETATM   39  C   UNK     0      -3.193   0.203 -25.628  0.00  0.00     0.017 A 
BRANCH  36  40
HETATM   40  O   UNK     0       0.522   1.520 -24.322  0.00  0.00    -0.358 OA
HETATM   41  H   UNK     0       1.225   1.095 -24.839  0.00  0.00     0.217 HD
ENDBRANCH  36  40
BRANCH  37  42
HETATM   42  O   UNK     0       0.324  -0.753 -25.908  0.00  0.00    -0.358 OA
HETATM   43  H   UNK     0       0.929  -0.812 -25.152  0.00  0.00     0.217 HD
ENDBRANCH  37  42
ENDBRANCH  24  34
BRANCH  30  44
HETATM   44  O   UNK     0      -8.298   5.031 -23.404  0.00  0.00    -0.360 OA
HETATM   45  H   UNK     0      -7.951   5.303 -24.271  0.00  0.00     0.217 HD
ENDBRANCH  30  44
BRANCH  33  46
HETATM   46  O   UNK     0      -9.309   0.857 -21.381  0.00  0.00    -0.361 OA
HETATM   47  H   UNK     0      -9.162  -0.076 -21.611  0.00  0.00     0.217 HD
ENDBRANCH  33  46
ENDBRANCH  22  23
ENDBRANCH   6  22
BRANCH   3  48
HETATM   48  O   UNK     0      -3.261   3.791 -31.060  0.00  0.00    -0.390 OA
HETATM   49  H   UNK     0      -4.043   4.333 -31.260  0.00  0.00     0.210 HD
ENDBRANCH   3  48
BRANCH   5  50
HETATM   50  O   UNK     0      -4.489   6.273 -27.144  0.00  0.00    -0.388 OA
HETATM   51  H   UNK     0      -4.795   6.799 -27.901  0.00  0.00     0.210 HD
ENDBRANCH   5  50
BRANCH   4  52
HETATM   52  O   UNK     0      -3.107   6.361 -29.745  0.00  0.00    -0.390 OA
HETATM   53  H   UNK     0      -2.225   6.482 -29.353  0.00  0.00     0.210 HD
ENDBRANCH   4  52
TORSDOF 16
ENDMDL
MODEL 3
REMARK VINA RESULT:      -6.9      1.515      1.880
REMARK  16 active torsions:
REMARK  status: ('A' for Active; 'I' for Inactive)
REMARK    1  A    between atoms: O_2  and  C_22 
REMARK    2  A    between atoms: O_2  and  C_26 
REMARK    3  A    between atoms: O_4  and  C_18 
REMARK    4  A    between atoms: O_5  and  C_19 
REMARK    5  A    between atoms: O_6  and  C_25 
REMARK    6  A    between atoms: O_6  and  C_29 
REMARK    7  A    between atoms: O_7  and  C_20 
REMARK    8  A    between atoms: O_8  and  C_21 
REMARK    9  A    between atoms: O_9  and  C_23 
REMARK   10  A    between atoms: O_10  and  C_24 
REMARK   11  A    between atoms: O_13  and  C_35 
REMARK   12  A    between atoms: O_14  and  C_40 
REMARK   13  A    between atoms: O_15  and  C_41 
REMARK   14  A    between atoms: O_16  and  C_43 
REMARK   15  A    between atoms: C_17  and  C_26 
REMARK   16  A    between atoms: C_30  and  C_33 
ROOT
HETATM    1  O   UNK     0      -0.107   0.364 -29.652  0.00  0.00    -0.348 OA
HETATM    2  C   UNK     0       0.418  -0.458 -28.607  0.00  0.00     0.180 C 
HETATM    3  C   UNK     0       1.899  -0.745 -28.864  0.00  0.00     0.180 C 
HETATM    4  C   UNK     0       2.099  -1.380 -30.240  0.00  0.00     0.183 C 
HETATM    5  C   UNK     0       1.375  -0.585 -31.327  0.00  0.00     0.205 C 
HETATM    6  C   UNK     0      -0.068  -0.279 -30.924  0.00  0.00     0.298 C 
ENDROOT
BRANCH   2   7
HETATM    7  C   UNK     0       0.205   0.283 -27.291  0.00  0.00     0.205 C 
BRANCH   7   8
HETATM    8  O   UNK     0       0.189  -0.658 -26.228  0.00  0.00    -0.356 OA
BRANCH   8   9
HETATM    9  C   UNK     0       0.062  -0.014 -24.964  0.00  0.00     0.291 C 
HETATM   10  O   UNK     0       0.509  -0.839 -23.884  0.00  0.00    -0.351 OA
HETATM   11  C   UNK     0      -0.265  -2.028 -23.695  0.00  0.00     0.152 C 
HETATM   12  C   UNK     0      -1.736  -1.690 -23.413  0.00  0.00     0.178 C 
HETATM   13  C   UNK     0       0.375  -2.799 -22.543  0.00  0.00     0.042 C 
HETATM   14  C   UNK     0      -2.291  -0.794 -24.521  0.00  0.00     0.183 C 
HETATM   15  C   UNK     0      -1.387   0.419 -24.749  0.00  0.00     0.204 C 
BRANCH  12  16
HETATM   16  O   UNK     0      -2.518  -2.881 -23.372  0.00  0.00    -0.390 OA
HETATM   17  H   UNK     0      -1.946  -3.603 -23.061  0.00  0.00     0.210 HD
ENDBRANCH  12  16
BRANCH  14  18
HETATM   18  O   UNK     0      -3.602  -0.363 -24.164  0.00  0.00    -0.390 OA
HETATM   19  H   UNK     0      -4.156  -0.406 -24.963  0.00  0.00     0.210 HD
ENDBRANCH  14  18
BRANCH  15  20
HETATM   20  O   UNK     0      -1.421   1.273 -23.605  0.00  0.00    -0.388 OA
HETATM   21  H   UNK     0      -0.656   1.062 -23.042  0.00  0.00     0.210 HD
ENDBRANCH  15  20
ENDBRANCH   8   9
ENDBRANCH   7   8
ENDBRANCH   2   7
BRANCH   6  22
HETATM   22  O   UNK     0      -0.628   0.580 -31.916  0.00  0.00    -0.311 OA
BRANCH  22  23
HETATM   23  C   UNK     0      -1.748   0.025 -32.494  0.00  0.00     0.157 A 
HETATM   24  C   UNK     0      -2.952   0.005 -31.893  0.00  0.00     0.124 A 
HETATM   25  O   UNK     0      -4.091  -0.573 -32.432  0.00  0.00    -0.306 OA
HETATM   26  C   UNK     0      -4.006  -1.152 -33.672  0.00  0.00     0.096 A 
HETATM   27  C   UNK     0      -2.823  -1.192 -34.407  0.00  0.00     0.084 A 
HETATM   28  C   UNK     0      -5.171  -1.717 -34.192  0.00  0.00     0.075 A 
HETATM   29  C   UNK     0      -1.608  -0.592 -33.835  0.00  0.00     0.223 A 
HETATM   30  C   UNK     0      -2.795  -1.797 -35.667  0.00  0.00     0.085 A 
HETATM   31  O   UNK     0      -0.540  -0.603 -34.431  0.00  0.00    -0.284 OA
HETATM   32  C   UNK     0      -3.963  -2.361 -36.185  0.00  0.00     0.074 A 
HETATM   33  C   UNK     0      -5.147  -2.321 -35.450  0.00  0.00     0.071 A 
BRANCH  24  34
HETATM   34  C   UNK     0      -3.181   0.589 -30.559  0.00  0.00     0.004 A 
HETATM   35  C   UNK     0      -3.552  -0.231 -29.493  0.00  0.00     0.053 A 
HETATM   36  C   UNK     0      -3.767   0.321 -28.230  0.00  0.00     0.099 A 
HETATM   37  C   UNK     0      -3.613   1.693 -28.033  0.00  0.00     0.098 A 
HETATM   38  C   UNK     0      -3.243   2.513 -29.099  0.00  0.00     0.040 A 
HETATM   39  C   UNK     0      -3.026   1.961 -30.361  0.00  0.00     0.017 A 
BRANCH  36  40
HETATM   40  O   UNK     0      -4.130  -0.490 -27.197  0.00  0.00    -0.358 OA
HETATM   41  H   UNK     0      -4.989  -0.900 -27.390  0.00  0.00     0.217 HD
ENDBRANCH  36  40
BRANCH  37  42
HETATM   42  O   UNK     0      -3.820   2.243 -26.805  0.00  0.00    -0.358 OA
HETATM   43  H   UNK     0      -4.767   2.406 -26.674  0.00  0.00     0.217 HD
ENDBRANCH  37  42
ENDBRANCH  24  34
BRANCH  30  44
HETATM   44  O   UNK     0      -1.667  -1.865 -36.425  0.00  0.00    -0.360 OA
HETATM   45  H   UNK     0      -1.002  -2.411 -35.971  0.00  0.00     0.217 HD
ENDBRANCH  30  44
BRANCH  33  46
HETATM   46  O   UNK     0      -6.283  -2.872 -35.959  0.00  0.00    -0.361 OA
HETATM   47  H   UNK     0      -6.291  -2.745 -36.923  0.00  0.00     0.217 HD
ENDBRANCH  33  46
ENDBRANCH  22  23
ENDBRANCH   6  22
BRANCH   3  48
HETATM   48  O   UNK     0       2.387  -1.631 -27.860  0.00  0.00    -0.390 OA
HETATM   49  H   UNK     0       1.785  -1.584 -27.099  0.00  0.00     0.210 HD
ENDBRANCH   3  48
BRANCH   5  50
HETATM   50  O   UNK     0       1.352  -1.346 -32.534  0.00  0.00    -0.388 OA
HETATM   51  H   UNK     0       1.484  -2.281 -32.304  0.00  0.00     0.210 HD
ENDBRANCH   5  50
BRANCH   4  52
HETATM   52  O   UNK     0       3.500  -1.399 -30.518  0.00  0.00    -0.390 OA
HETATM   53  H   UNK     0       3.754  -2.326 -30.669  0.00  0.00     0.210 HD
ENDBRANCH   4  52
TORSDOF 16
ENDMDL
MODEL 4
REMARK VINA RESULT:      -6.7      2.918      8.349
REMARK  16 active torsions:
REMARK  status: ('A' for Active; 'I' for Inactive)
REMARK    1  A    between atoms: O_2  and  C_22 
REMARK    2  A    between atoms: O_2  and  C_26 
REMARK    3  A    between atoms: O_4  and  C_18 
REMARK    4  A    between atoms: O_5  and  C_19 
REMARK    5  A    between atoms: O_6  and  C_25 
REMARK    6  A    between atoms: O_6  and  C_29 
REMARK    7  A    between atoms: O_7  and  C_20 
REMARK    8  A    between atoms: O_8  and  C_21 
REMARK    9  A    between atoms: O_9  and  C_23 
REMARK   10  A    between atoms: O_10  and  C_24 
REMARK   11  A    between atoms: O_13  and  C_35 
REMARK   12  A    between atoms: O_14  and  C_40 
REMARK   13  A    between atoms: O_15  and  C_41 
REMARK   14  A    between atoms: O_16  and  C_43 
REMARK   15  A    between atoms: C_17  and  C_26 
REMARK   16  A    between atoms: C_30  and  C_33 
ROOT
HETATM    1  O   UNK     0      -1.325   0.216 -25.771  0.00  0.00    -0.348 OA
HETATM    2  C   UNK     0      -0.003   0.205 -25.227  0.00  0.00     0.180 C 
HETATM    3  C   UNK     0       0.254  -1.122 -24.509  0.00  0.00     0.180 C 
HETATM    4  C   UNK     0      -0.804  -1.371 -23.434  0.00  0.00     0.183 C 
HETATM    5  C   UNK     0      -2.214  -1.176 -23.990  0.00  0.00     0.205 C 
HETATM    6  C   UNK     0      -2.330   0.138 -24.763  0.00  0.00     0.298 C 
ENDROOT
BRANCH   2   7
HETATM    7  C   UNK     0       0.970   0.421 -26.383  0.00  0.00     0.205 C 
BRANCH   7   8
HETATM    8  O   UNK     0       0.362  -0.020 -27.588  0.00  0.00    -0.356 OA
BRANCH   8   9
HETATM    9  C   UNK     0       0.963   0.587 -28.726  0.00  0.00     0.291 C 
HETATM   10  O   UNK     0       0.075   0.644 -29.847  0.00  0.00    -0.351 OA
HETATM   11  C   UNK     0      -0.309  -0.637 -30.357  0.00  0.00     0.152 C 
HETATM   12  C   UNK     0       0.919  -1.442 -30.806  0.00  0.00     0.178 C 
HETATM   13  C   UNK     0      -1.280  -0.387 -31.507  0.00  0.00     0.042 C 
HETATM   14  C   UNK     0       1.930  -1.540 -29.664  0.00  0.00     0.183 C 
HETATM   15  C   UNK     0       2.246  -0.157 -29.091  0.00  0.00     0.204 C 
BRANCH  12  16
HETATM   16  O   UNK     0       0.535  -2.765 -31.174  0.00  0.00    -0.390 OA
HETATM   17  H   UNK     0       1.134  -3.064 -31.879  0.00  0.00     0.210 HD
ENDBRANCH  12  16
BRANCH  14  18
HETATM   18  O   UNK     0       3.125  -2.151 -30.145  0.00  0.00    -0.390 OA
HETATM   19  H   UNK     0       3.377  -2.848 -29.515  0.00  0.00     0.210 HD
ENDBRANCH  14  18
BRANCH  15  20
HETATM   20  O   UNK     0       2.941   0.625 -30.064  0.00  0.00    -0.388 OA
HETATM   21  H   UNK     0       2.327   1.292 -30.417  0.00  0.00     0.210 HD
ENDBRANCH  15  20
ENDBRANCH   8   9
ENDBRANCH   7   8
ENDBRANCH   2   7
BRANCH   6  22
HETATM   22  O   UNK     0      -3.622   0.180 -25.368  0.00  0.00    -0.311 OA
BRANCH  22  23
HETATM   23  C   UNK     0      -4.357   1.255 -24.919  0.00  0.00     0.157 A 
HETATM   24  C   UNK     0      -4.141   2.517 -25.332  0.00  0.00     0.124 A 
HETATM   25  O   UNK     0      -4.840   3.624 -24.877  0.00  0.00    -0.306 OA
HETATM   26  C   UNK     0      -5.838   3.435 -23.956  0.00  0.00     0.096 A 
HETATM   27  C   UNK     0      -6.171   2.180 -23.451  0.00  0.00     0.084 A 
HETATM   28  C   UNK     0      -6.530   4.567 -23.525  0.00  0.00     0.075 A 
HETATM   29  C   UNK     0      -5.424   1.002 -23.920  0.00  0.00     0.223 A 
HETATM   30  C   UNK     0      -7.198   2.046 -22.512  0.00  0.00     0.085 A 
HETATM   31  O   UNK     0      -5.668  -0.124 -23.508  0.00  0.00    -0.284 OA
HETATM   32  C   UNK     0      -7.888   3.181 -22.082  0.00  0.00     0.074 A 
HETATM   33  C   UNK     0      -7.556   4.438 -22.588  0.00  0.00     0.071 A 
BRANCH  24  34
HETATM   34  C   UNK     0      -3.099   2.860 -26.316  0.00  0.00     0.004 A 
HETATM   35  C   UNK     0      -3.250   2.488 -27.652  0.00  0.00     0.053 A 
HETATM   36  C   UNK     0      -2.265   2.814 -28.583  0.00  0.00     0.099 A 
HETATM   37  C   UNK     0      -1.128   3.513 -28.180  0.00  0.00     0.098 A 
HETATM   38  C   UNK     0      -0.976   3.885 -26.844  0.00  0.00     0.040 A 
HETATM   39  C   UNK     0      -1.961   3.559 -25.913  0.00  0.00     0.017 A 
BRANCH  36  40
HETATM   40  O   UNK     0      -2.424   2.443 -29.885  0.00  0.00    -0.358 OA
HETATM   41  H   UNK     0      -2.095   1.538 -30.009  0.00  0.00     0.217 HD
ENDBRANCH  36  40
BRANCH  37  42
HETATM   42  O   UNK     0      -0.159   3.838 -29.080  0.00  0.00    -0.358 OA
HETATM   43  H   UNK     0       0.405   3.066 -29.248  0.00  0.00     0.217 HD
ENDBRANCH  37  42
ENDBRANCH  24  34
BRANCH  30  44
HETATM   44  O   UNK     0      -7.562   0.844 -21.987  0.00  0.00    -0.360 OA
HETATM   45  H   UNK     0      -8.532   0.781 -21.962  0.00  0.00     0.217 HD
ENDBRANCH  30  44
BRANCH  33  46
HETATM   46  O   UNK     0      -8.232   5.541 -22.166  0.00  0.00    -0.361 OA
HETATM   47  H   UNK     0      -9.187   5.375 -22.242  0.00  0.00     0.217 HD
ENDBRANCH  33  46
ENDBRANCH  22  23
ENDBRANCH   6  22
BRANCH   3  48
HETATM   48  O   UNK     0       1.543  -1.086 -23.902  0.00  0.00    -0.390 OA
HETATM   49  H   UNK     0       1.576  -0.316 -23.310  0.00  0.00     0.210 HD
ENDBRANCH   3  48
BRANCH   5  50
HETATM   50  O   UNK     0      -3.149  -1.146 -22.912  0.00  0.00    -0.388 OA
HETATM   51  H   UNK     0      -3.750  -1.902 -23.012  0.00  0.00     0.210 HD
ENDBRANCH   5  50
BRANCH   4  52
HETATM   52  O   UNK     0      -0.656  -2.716 -22.973  0.00  0.00    -0.390 OA
HETATM   53  H   UNK     0       0.204  -3.040 -23.291  0.00  0.00     0.210 HD
ENDBRANCH   4  52
TORSDOF 16
ENDMDL
MODEL 5
REMARK VINA RESULT:      -6.6      4.079      8.661
REMARK  16 active torsions:
REMARK  status: ('A' for Active; 'I' for Inactive)
REMARK    1  A    between atoms: O_2  and  C_22 
REMARK    2  A    between atoms: O_2  and  C_26 
REMARK    3  A    between atoms: O_4  and  C_18 
REMARK    4  A    between atoms: O_5  and  C_19 
REMARK    5  A    between atoms: O_6  and  C_25 
REMARK    6  A    between atoms: O_6  and  C_29 
REMARK    7  A    between atoms: O_7  and  C_20 
REMARK    8  A    between atoms: O_8  and  C_21 
REMARK    9  A    between atoms: O_9  and  C_23 
REMARK   10  A    between atoms: O_10  and  C_24 
REMARK   11  A    between atoms: O_13  and  C_35 
REMARK   12  A    between atoms: O_14  and  C_40 
REMARK   13  A    between atoms: O_15  and  C_41 
REMARK   14  A    between atoms: O_16  and  C_43 
REMARK   15  A    between atoms: C_17  and  C_26 
REMARK   16  A    between atoms: C_30  and  C_33 
ROOT
HETATM    1  O   UNK     0      -3.605   2.996 -25.374  0.00  0.00    -0.348 OA
HETATM    2  C   UNK     0      -4.589   3.723 -24.636  0.00  0.00     0.180 C 
HETATM    3  C   UNK     0      -5.311   4.707 -25.560  0.00  0.00     0.180 C 
HETATM    4  C   UNK     0      -4.313   5.640 -26.246  0.00  0.00     0.183 C 
HETATM    5  C   UNK     0      -3.164   4.853 -26.877  0.00  0.00     0.205 C 
HETATM    6  C   UNK     0      -2.579   3.839 -25.894  0.00  0.00     0.298 C 
ENDROOT
BRANCH   2   7
HETATM    7  C   UNK     0      -5.552   2.706 -24.030  0.00  0.00     0.205 C 
BRANCH   7   8
HETATM    8  O   UNK     0      -6.789   3.347 -23.755  0.00  0.00    -0.356 OA
BRANCH   8   9
HETATM    9  C   UNK     0      -6.971   3.550 -22.358  0.00  0.00     0.291 C 
HETATM   10  O   UNK     0      -7.296   2.340 -21.668  0.00  0.00    -0.351 OA
HETATM   11  C   UNK     0      -8.548   1.763 -22.054  0.00  0.00     0.152 C 
HETATM   12  C   UNK     0      -9.706   2.739 -21.803  0.00  0.00     0.178 C 
HETATM   13  C   UNK     0      -8.708   0.470 -21.259  0.00  0.00     0.042 C 
HETATM   14  C   UNK     0      -9.430   4.072 -22.500  0.00  0.00     0.183 C 
HETATM   15  C   UNK     0      -8.048   4.610 -22.127  0.00  0.00     0.204 C 
BRANCH  12  16
HETATM   16  O   UNK     0     -10.922   2.209 -22.325  0.00  0.00    -0.390 OA
HETATM   17  H   UNK     0     -11.382   2.924 -22.796  0.00  0.00     0.210 HD
ENDBRANCH  12  16
BRANCH  14  18
HETATM   18  O   UNK     0     -10.434   5.013 -22.127  0.00  0.00    -0.390 OA
HETATM   19  H   UNK     0     -10.550   4.957 -21.162  0.00  0.00     0.210 HD
ENDBRANCH  14  18
BRANCH  15  20
HETATM   20  O   UNK     0      -8.019   4.963 -20.743  0.00  0.00    -0.388 OA
HETATM   21  H   UNK     0      -7.223   5.497 -20.579  0.00  0.00     0.210 HD
ENDBRANCH  15  20
ENDBRANCH   8   9
ENDBRANCH   7   8
ENDBRANCH   2   7
BRANCH   6  22
HETATM   22  O   UNK     0      -1.618   3.051 -26.595  0.00  0.00    -0.311 OA
BRANCH  22  23
HETATM   23  C   UNK     0      -1.233   1.950 -25.862  0.00  0.00     0.157 A 
HETATM   24  C   UNK     0      -1.456   0.686 -26.264  0.00  0.00     0.124 A 
HETATM   25  O   UNK     0      -1.112  -0.443 -25.536  0.00  0.00    -0.306 OA
HETATM   26  C   UNK     0      -0.481  -0.277 -24.330  0.00  0.00     0.096 A 
HETATM   27  C   UNK     0      -0.182   0.977 -23.801  0.00  0.00     0.084 A 
HETATM   28  C   UNK     0      -0.138  -1.431 -23.626  0.00  0.00     0.075 A 
HETATM   29  C   UNK     0      -0.557   2.179 -24.562  0.00  0.00     0.223 A 
HETATM   30  C   UNK     0       0.462   1.086 -22.565  0.00  0.00     0.085 A 
HETATM   31  O   UNK     0      -0.325   3.306 -24.146  0.00  0.00    -0.284 OA
HETATM   32  C   UNK     0       0.804  -0.070 -21.863  0.00  0.00     0.074 A 
HETATM   33  C   UNK     0       0.505  -1.326 -22.392  0.00  0.00     0.071 A 
BRANCH  24  34
HETATM   34  C   UNK     0      -2.127   0.365 -27.536  0.00  0.00     0.004 A 
HETATM   35  C   UNK     0      -1.379   0.245 -28.708  0.00  0.00     0.053 A 
HETATM   36  C   UNK     0      -2.013  -0.059 -29.913  0.00  0.00     0.099 A 
HETATM   37  C   UNK     0      -3.395  -0.243 -29.946  0.00  0.00     0.098 A 
HETATM   38  C   UNK     0      -4.143  -0.123 -28.775  0.00  0.00     0.040 A 
HETATM   39  C   UNK     0      -3.509   0.181 -27.571  0.00  0.00     0.017 A 
BRANCH  36  40
HETATM   40  O   UNK     0      -1.272  -0.172 -31.051  0.00  0.00    -0.358 OA
HETATM   41  H   UNK     0      -0.347   0.057 -30.863  0.00  0.00     0.217 HD
ENDBRANCH  36  40
BRANCH  37  42
HETATM   42  O   UNK     0      -4.025  -0.541 -31.117  0.00  0.00    -0.358 OA
HETATM   43  H   UNK     0      -4.946  -0.788 -30.939  0.00  0.00     0.217 HD
ENDBRANCH  37  42
ENDBRANCH  24  34
BRANCH  30  44
HETATM   44  O   UNK     0       0.775   2.286 -22.004  0.00  0.00    -0.360 OA
HETATM   45  H   UNK     0       1.037   2.153 -21.077  0.00  0.00     0.217 HD
ENDBRANCH  30  44
BRANCH  33  46
HETATM   46  O   UNK     0       0.840  -2.451 -21.704  0.00  0.00    -0.361 OA
HETATM   47  H   UNK     0       0.871  -3.202 -22.321  0.00  0.00     0.217 HD
ENDBRANCH  33  46
ENDBRANCH  22  23
ENDBRANCH   6  22
BRANCH   3  48
HETATM   48  O   UNK     0      -6.231   5.483 -24.795  0.00  0.00    -0.390 OA
HETATM   49  H   UNK     0      -6.207   5.159 -23.878  0.00  0.00     0.210 HD
ENDBRANCH   3  48
BRANCH   5  50
HETATM   50  O   UNK     0      -2.127   5.754 -27.262  0.00  0.00    -0.388 OA
HETATM   51  H   UNK     0      -2.262   6.590 -26.784  0.00  0.00     0.210 HD
ENDBRANCH   5  50
BRANCH   4  52
HETATM   52  O   UNK     0      -5.011   6.361 -27.264  0.00  0.00    -0.390 OA
HETATM   53  H   UNK     0      -4.502   7.169 -27.448  0.00  0.00     0.210 HD
ENDBRANCH   4  52
TORSDOF 16
ENDMDL
MODEL 6
REMARK VINA RESULT:      -6.4      3.234      8.645
REMARK  16 active torsions:
REMARK  status: ('A' for Active; 'I' for Inactive)
REMARK    1  A    between atoms: O_2  and  C_22 
REMARK    2  A    between atoms: O_2  and  C_26 
REMARK    3  A    between atoms: O_4  and  C_18 
REMARK    4  A    between atoms: O_5  and  C_19 
REMARK    5  A    between atoms: O_6  and  C_25 
REMARK    6  A    between atoms: O_6  and  C_29 
REMARK    7  A    between atoms: O_7  and  C_20 
REMARK    8  A    between atoms: O_8  and  C_21 
REMARK    9  A    between atoms: O_9  and  C_23 
REMARK   10  A    between atoms: O_10  and  C_24 
REMARK   11  A    between atoms: O_13  and  C_35 
REMARK   12  A    between atoms: O_14  and  C_40 
REMARK   13  A    between atoms: O_15  and  C_41 
REMARK   14  A    between atoms: O_16  and  C_43 
REMARK   15  A    between atoms: C_17  and  C_26 
REMARK   16  A    between atoms: C_30  and  C_33 
ROOT
HETATM    1  O   UNK     0      -0.226  -0.716 -25.980  0.00  0.00    -0.348 OA
HETATM    2  C   UNK     0      -0.994   0.013 -26.940  0.00  0.00     0.180 C 
HETATM    3  C   UNK     0      -0.382  -0.154 -28.333  0.00  0.00     0.180 C 
HETATM    4  C   UNK     0       1.086   0.275 -28.336  0.00  0.00     0.183 C 
HETATM    5  C   UNK     0       1.855  -0.375 -27.186  0.00  0.00     0.205 C 
HETATM    6  C   UNK     0       1.108  -0.224 -25.861  0.00  0.00     0.298 C 
ENDROOT
BRANCH   2   7
HETATM    7  C   UNK     0      -2.423  -0.519 -26.883  0.00  0.00     0.205 C 
BRANCH   7   8
HETATM    8  O   UNK     0      -3.279   0.506 -26.404  0.00  0.00    -0.356 OA
BRANCH   8   9
HETATM    9  C   UNK     0      -2.946   0.883 -25.072  0.00  0.00     0.291 C 
HETATM   10  O   UNK     0      -3.971   0.539 -24.135  0.00  0.00    -0.351 OA
HETATM   11  C   UNK     0      -5.209   1.227 -24.341  0.00  0.00     0.152 C 
HETATM   12  C   UNK     0      -5.016   2.748 -24.247  0.00  0.00     0.178 C 
HETATM   13  C   UNK     0      -6.188   0.710 -23.290  0.00  0.00     0.042 C 
HETATM   14  C   UNK     0      -3.922   3.200 -25.214  0.00  0.00     0.183 C 
HETATM   15  C   UNK     0      -2.645   2.380 -25.018  0.00  0.00     0.204 C 
BRANCH  12  16
HETATM   16  O   UNK     0      -6.224   3.421 -24.597  0.00  0.00    -0.390 OA
HETATM   17  H   UNK     0      -6.536   3.901 -23.812  0.00  0.00     0.210 HD
ENDBRANCH  12  16
BRANCH  14  18
HETATM   18  O   UNK     0      -3.649   4.583 -25.001  0.00  0.00    -0.390 OA
HETATM   19  H   UNK     0      -2.698   4.724 -25.154  0.00  0.00     0.210 HD
ENDBRANCH  14  18
BRANCH  15  20
HETATM   20  O   UNK     0      -2.076   2.664 -23.739  0.00  0.00    -0.388 OA
HETATM   21  H   UNK     0      -2.510   2.099 -23.078  0.00  0.00     0.210 HD
ENDBRANCH  15  20
ENDBRANCH   8   9
ENDBRANCH   7   8
ENDBRANCH   2   7
BRANCH   6  22
HETATM   22  O   UNK     0       1.811  -0.975 -24.872  0.00  0.00    -0.311 OA
BRANCH  22  23
HETATM   23  C   UNK     0       1.763  -0.359 -23.640  0.00  0.00     0.157 A 
HETATM   24  C   UNK     0       1.184  -0.917 -22.562  0.00  0.00     0.124 A 
HETATM   25  O   UNK     0       1.091  -0.312 -21.318  0.00  0.00    -0.306 OA
HETATM   26  C   UNK     0       1.639   0.934 -21.154  0.00  0.00     0.096 A 
HETATM   27  C   UNK     0       2.276   1.620 -22.185  0.00  0.00     0.084 A 
HETATM   28  C   UNK     0       1.538   1.513 -19.888  0.00  0.00     0.075 A 
HETATM   29  C   UNK     0       2.366   0.989 -23.511  0.00  0.00     0.223 A 
HETATM   30  C   UNK     0       2.816   2.890 -21.960  0.00  0.00     0.085 A 
HETATM   31  O   UNK     0       2.909   1.546 -24.456  0.00  0.00    -0.284 OA
HETATM   32  C   UNK     0       2.713   3.466 -20.693  0.00  0.00     0.074 A 
HETATM   33  C   UNK     0       2.076   2.779 -19.660  0.00  0.00     0.071 A 
BRANCH  24  34
HETATM   34  C   UNK     0       0.555  -2.249 -22.601  0.00  0.00     0.004 A 
HETATM   35  C   UNK     0      -0.796  -2.374 -22.926  0.00  0.00     0.053 A 
HETATM   36  C   UNK     0      -1.391  -3.634 -22.964  0.00  0.00     0.099 A 
HETATM   37  C   UNK     0      -0.636  -4.771 -22.676  0.00  0.00     0.098 A 
HETATM   38  C   UNK     0       0.714  -4.647 -22.351  0.00  0.00     0.040 A 
HETATM   39  C   UNK     0       1.310  -3.387 -22.313  0.00  0.00     0.017 A 
BRANCH  36  40
HETATM   40  O   UNK     0      -2.712  -3.743 -23.281  0.00  0.00    -0.358 OA
HETATM   41  H   UNK     0      -3.099  -4.501 -22.814  0.00  0.00     0.217 HD
ENDBRANCH  36  40
BRANCH  37  42
HETATM   42  O   UNK     0      -1.206  -6.008 -22.711  0.00  0.00    -0.358 OA
HETATM   43  H   UNK     0      -0.590  -6.663 -22.349  0.00  0.00     0.217 HD
ENDBRANCH  37  42
ENDBRANCH  24  34
BRANCH  30  44
HETATM   44  O   UNK     0       3.447   3.603 -22.933  0.00  0.00    -0.360 OA
HETATM   45  H   UNK     0       3.469   3.082 -23.755  0.00  0.00     0.217 HD
ENDBRANCH  30  44
BRANCH  33  46
HETATM   46  O   UNK     0       1.979   3.346 -18.426  0.00  0.00    -0.361 OA
HETATM   47  H   UNK     0       2.631   4.064 -18.355  0.00  0.00     0.217 HD
ENDBRANCH  33  46
ENDBRANCH  22  23
ENDBRANCH   6  22
BRANCH   3  48
HETATM   48  O   UNK     0      -1.107   0.643 -29.265  0.00  0.00    -0.390 OA
HETATM   49  H   UNK     0      -1.237   0.118 -30.073  0.00  0.00     0.210 HD
ENDBRANCH   3  48
BRANCH   5  50
HETATM   50  O   UNK     0       3.131   0.252 -27.055  0.00  0.00    -0.388 OA
HETATM   51  H   UNK     0       3.700  -0.070 -27.774  0.00  0.00     0.210 HD
ENDBRANCH   5  50
BRANCH   4  52
HETATM   52  O   UNK     0       1.661  -0.127 -29.581  0.00  0.00    -0.390 OA
HETATM   53  H   UNK     0       2.620   0.019 -29.519  0.00  0.00     0.210 HD
ENDBRANCH   4  52
TORSDOF 16
ENDMDL
MODEL 7
REMARK VINA RESULT:      -6.3      4.924     10.415
REMARK  16 active torsions:
REMARK  status: ('A' for Active; 'I' for Inactive)
REMARK    1  A    between atoms: O_2  and  C_22 
REMARK    2  A    between atoms: O_2  and  C_26 
REMARK    3  A    between atoms: O_4  and  C_18 
REMARK    4  A    between atoms: O_5  and  C_19 
REMARK    5  A    between atoms: O_6  and  C_25 
REMARK    6  A    between atoms: O_6  and  C_29 
REMARK    7  A    between atoms: O_7  and  C_20 
REMARK    8  A    between atoms: O_8  and  C_21 
REMARK    9  A    between atoms: O_9  and  C_23 
REMARK   10  A    between atoms: O_10  and  C_24 
REMARK   11  A    between atoms: O_13  and  C_35 
REMARK   12  A    between atoms: O_14  and  C_40 
REMARK   13  A    between atoms: O_15  and  C_41 
REMARK   14  A    between atoms: O_16  and  C_43 
REMARK   15  A    between atoms: C_17  and  C_26 
REMARK   16  A    between atoms: C_30  and  C_33 
ROOT
HETATM    1  O   UNK     0       1.403   1.423 -23.802  0.00  0.00    -0.348 OA
HETATM    2  C   UNK     0       0.397   2.027 -24.618  0.00  0.00     0.180 C 
HETATM    3  C   UNK     0       1.022   3.112 -25.499  0.00  0.00     0.180 C 
HETATM    4  C   UNK     0       1.758   4.145 -24.646  0.00  0.00     0.183 C 
HETATM    5  C   UNK     0       2.701   3.471 -23.649  0.00  0.00     0.205 C 
HETATM    6  C   UNK     0       1.995   2.346 -22.891  0.00  0.00     0.298 C 
ENDROOT
BRANCH   2   7
HETATM    7  C   UNK     0      -0.243   0.921 -25.451  0.00  0.00     0.205 C 
BRANCH   7   8
HETATM    8  O   UNK     0      -1.559   0.685 -24.973  0.00  0.00    -0.356 OA
BRANCH   8   9
HETATM    9  C   UNK     0      -2.535   0.976 -25.967  0.00  0.00     0.291 C 
HETATM   10  O   UNK     0      -2.805   2.377 -26.073  0.00  0.00    -0.351 OA
HETATM   11  C   UNK     0      -3.390   2.952 -24.900  0.00  0.00     0.152 C 
HETATM   12  C   UNK     0      -4.722   2.271 -24.558  0.00  0.00     0.178 C 
HETATM   13  C   UNK     0      -3.566   4.444 -25.174  0.00  0.00     0.042 C 
HETATM   14  C   UNK     0      -4.524   0.759 -24.438  0.00  0.00     0.183 C 
HETATM   15  C   UNK     0      -3.818   0.200 -25.675  0.00  0.00     0.204 C 
BRANCH  12  16
HETATM   16  O   UNK     0      -5.218   2.753 -23.312  0.00  0.00    -0.390 OA
HETATM   17  H   UNK     0      -5.558   3.653 -23.454  0.00  0.00     0.210 HD
ENDBRANCH  12  16
BRANCH  14  18
HETATM   18  O   UNK     0      -5.793   0.130 -24.278  0.00  0.00    -0.390 OA
HETATM   19  H   UNK     0      -6.283   0.621 -23.595  0.00  0.00     0.210 HD
ENDBRANCH  14  18
BRANCH  15  20
HETATM   20  O   UNK     0      -4.668   0.319 -26.817  0.00  0.00    -0.388 OA
HETATM   21  H   UNK     0      -5.546  -0.029 -26.583  0.00  0.00     0.210 HD
ENDBRANCH  15  20
ENDBRANCH   8   9
ENDBRANCH   7   8
ENDBRANCH   2   7
BRANCH   6  22
HETATM   22  O   UNK     0       2.969   1.677 -22.091  0.00  0.00    -0.311 OA
BRANCH  22  23
HETATM   23  C   UNK     0       2.509   1.455 -20.812  0.00  0.00     0.157 A 
HETATM   24  C   UNK     0       1.861   0.334 -20.447  0.00  0.00     0.124 A 
HETATM   25  O   UNK     0       1.358   0.094 -19.178  0.00  0.00    -0.306 OA
HETATM   26  C   UNK     0       1.542   1.047 -18.210  0.00  0.00     0.096 A 
HETATM   27  C   UNK     0       2.203   2.250 -18.451  0.00  0.00     0.084 A 
HETATM   28  C   UNK     0       1.033   0.773 -16.941  0.00  0.00     0.075 A 
HETATM   29  C   UNK     0       2.728   2.516 -19.799  0.00  0.00     0.223 A 
HETATM   30  C   UNK     0       2.360   3.186 -17.426  0.00  0.00     0.085 A 
HETATM   31  O   UNK     0       3.312   3.557 -20.071  0.00  0.00    -0.284 OA
HETATM   32  C   UNK     0       1.850   2.909 -16.156  0.00  0.00     0.074 A 
HETATM   33  C   UNK     0       1.188   1.705 -15.914  0.00  0.00     0.071 A 
BRANCH  24  34
HETATM   34  C   UNK     0       1.595  -0.768 -21.389  0.00  0.00     0.004 A 
HETATM   35  C   UNK     0       0.359  -0.854 -22.031  0.00  0.00     0.053 A 
HETATM   36  C   UNK     0       0.107  -1.896 -22.923  0.00  0.00     0.099 A 
HETATM   37  C   UNK     0       1.089  -2.853 -23.173  0.00  0.00     0.098 A 
HETATM   38  C   UNK     0       2.325  -2.768 -22.531  0.00  0.00     0.040 A 
HETATM   39  C   UNK     0       2.577  -1.726 -21.640  0.00  0.00     0.017 A 
BRANCH  36  40
HETATM   40  O   UNK     0      -1.105  -1.970 -23.542  0.00  0.00    -0.358 OA
HETATM   41  H   UNK     0      -1.504  -2.840 -23.377  0.00  0.00     0.217 HD
ENDBRANCH  36  40
BRANCH  37  42
HETATM   42  O   UNK     0       0.855  -3.875 -24.042  0.00  0.00    -0.358 OA
HETATM   43  H   UNK     0      -0.070  -3.852 -24.333  0.00  0.00     0.217 HD
ENDBRANCH  37  42
ENDBRANCH  24  34
BRANCH  30  44
HETATM   44  O   UNK     0       2.997   4.376 -17.608  0.00  0.00    -0.360 OA
HETATM   45  H   UNK     0       2.606   4.840 -18.369  0.00  0.00     0.217 HD
ENDBRANCH  30  44
BRANCH  33  46
HETATM   46  O   UNK     0       0.692   1.439 -14.675  0.00  0.00    -0.361 OA
HETATM   47  H   UNK     0       1.097   0.620 -14.342  0.00  0.00     0.217 HD
ENDBRANCH  33  46
ENDBRANCH  22  23
ENDBRANCH   6  22
BRANCH   3  48
HETATM   48  O   UNK     0      -0.004   3.762 -26.244  0.00  0.00    -0.390 OA
HETATM   49  H   UNK     0      -0.051   3.342 -27.120  0.00  0.00     0.210 HD
ENDBRANCH   3  48
BRANCH   5  50
HETATM   50  O   UNK     0       3.156   4.435 -22.700  0.00  0.00    -0.388 OA
HETATM   51  H   UNK     0       2.584   4.379 -21.916  0.00  0.00     0.210 HD
ENDBRANCH   5  50
BRANCH   4  52
HETATM   52  O   UNK     0       2.514   4.983 -25.524  0.00  0.00    -0.390 OA
HETATM   53  H   UNK     0       3.442   4.694 -25.474  0.00  0.00     0.210 HD
ENDBRANCH   4  52
TORSDOF 16
ENDMDL
MODEL 8
REMARK VINA RESULT:      -6.3      3.374      8.954
REMARK  16 active torsions:
REMARK  status: ('A' for Active; 'I' for Inactive)
REMARK    1  A    between atoms: O_2  and  C_22 
REMARK    2  A    between atoms: O_2  and  C_26 
REMARK    3  A    between atoms: O_4  and  C_18 
REMARK    4  A    between atoms: O_5  and  C_19 
REMARK    5  A    between atoms: O_6  and  C_25 
REMARK    6  A    between atoms: O_6  and  C_29 
REMARK    7  A    between atoms: O_7  and  C_20 
REMARK    8  A    between atoms: O_8  and  C_21 
REMARK    9  A    between atoms: O_9  and  C_23 
REMARK   10  A    between atoms: O_10  and  C_24 
REMARK   11  A    between atoms: O_13  and  C_35 
REMARK   12  A    between atoms: O_14  and  C_40 
REMARK   13  A    between atoms: O_15  and  C_41 
REMARK   14  A    between atoms: O_16  and  C_43 
REMARK   15  A    between atoms: C_17  and  C_26 
REMARK   16  A    between atoms: C_30  and  C_33 
ROOT
HETATM    1  O   UNK     0      -3.210   2.862 -27.603  0.00  0.00    -0.348 OA
HETATM    2  C   UNK     0      -3.499   2.697 -28.993  0.00  0.00     0.180 C 
HETATM    3  C   UNK     0      -2.976   3.901 -29.780  0.00  0.00     0.180 C 
HETATM    4  C   UNK     0      -3.557   5.203 -29.230  0.00  0.00     0.183 C 
HETATM    5  C   UNK     0      -3.402   5.281 -27.711  0.00  0.00     0.205 C 
HETATM    6  C   UNK     0      -3.872   3.992 -27.038  0.00  0.00     0.298 C 
ENDROOT
BRANCH   2   7
HETATM    7  C   UNK     0      -2.843   1.396 -29.446  0.00  0.00     0.205 C 
BRANCH   7   8
HETATM    8  O   UNK     0      -1.640   1.701 -30.136  0.00  0.00    -0.356 OA
BRANCH   8   9
HETATM    9  C   UNK     0      -0.511   1.112 -29.499  0.00  0.00     0.291 C 
HETATM   10  O   UNK     0       0.724   1.689 -29.933  0.00  0.00    -0.351 OA
HETATM   11  C   UNK     0       1.016   1.477 -31.318  0.00  0.00     0.152 C 
HETATM   12  C   UNK     0       1.091  -0.022 -31.642  0.00  0.00     0.178 C 
HETATM   13  C   UNK     0       2.332   2.192 -31.612  0.00  0.00     0.042 C 
HETATM   14  C   UNK     0      -0.194  -0.721 -31.196  0.00  0.00     0.183 C 
HETATM   15  C   UNK     0      -0.514  -0.397 -29.735  0.00  0.00     0.204 C 
BRANCH  12  16
HETATM   16  O   UNK     0       1.236  -0.217 -33.047  0.00  0.00    -0.390 OA
HETATM   17  H   UNK     0       1.706   0.554 -33.408  0.00  0.00     0.210 HD
ENDBRANCH  12  16
BRANCH  14  18
HETATM   18  O   UNK     0      -0.043  -2.129 -31.359  0.00  0.00    -0.390 OA
HETATM   19  H   UNK     0      -0.909  -2.542 -31.194  0.00  0.00     0.210 HD
ENDBRANCH  14  18
BRANCH  15  20
HETATM   20  O   UNK     0       0.475  -0.974 -28.880  0.00  0.00    -0.388 OA
HETATM   21  H   UNK     0       1.309  -1.039 -29.376  0.00  0.00     0.210 HD
ENDBRANCH  15  20
ENDBRANCH   8   9
ENDBRANCH   7   8
ENDBRANCH   2   7
BRANCH   6  22
HETATM   22  O   UNK     0      -3.564   4.084 -25.647  0.00  0.00    -0.311 OA
BRANCH  22  23
HETATM   23  C   UNK     0      -4.453   3.362 -24.882  0.00  0.00     0.157 A 
HETATM   24  C   UNK     0      -4.246   2.081 -24.528  0.00  0.00     0.124 A 
HETATM   25  O   UNK     0      -5.133   1.316 -23.787  0.00  0.00    -0.306 OA
HETATM   26  C   UNK     0      -6.299   1.897 -23.361  0.00  0.00     0.096 A 
HETATM   27  C   UNK     0      -6.634   3.218 -23.649  0.00  0.00     0.084 A 
HETATM   28  C   UNK     0      -7.168   1.106 -22.608  0.00  0.00     0.075 A 
HETATM   29  C   UNK     0      -5.702   4.031 -24.447  0.00  0.00     0.223 A 
HETATM   30  C   UNK     0      -7.838   3.759 -23.189  0.00  0.00     0.085 A 
HETATM   31  O   UNK     0      -5.945   5.195 -24.736  0.00  0.00    -0.284 OA
HETATM   32  C   UNK     0      -8.705   2.964 -22.437  0.00  0.00     0.074 A 
HETATM   33  C   UNK     0      -8.371   1.641 -22.147  0.00  0.00     0.071 A 
BRANCH  24  34
HETATM   34  C   UNK     0      -3.037   1.336 -24.922  0.00  0.00     0.004 A 
HETATM   35  C   UNK     0      -1.782   1.757 -24.479  0.00  0.00     0.053 A 
HETATM   36  C   UNK     0      -0.638   1.051 -24.850  0.00  0.00     0.099 A 
HETATM   37  C   UNK     0      -0.747  -0.076 -25.665  0.00  0.00     0.098 A 
HETATM   38  C   UNK     0      -2.001  -0.497 -26.108  0.00  0.00     0.040 A 
HETATM   39  C   UNK     0      -3.145   0.208 -25.736  0.00  0.00     0.017 A 
BRANCH  36  40
HETATM   40  O   UNK     0       0.582   1.474 -24.413  0.00  0.00    -0.358 OA
HETATM   41  H   UNK     0       0.718   2.400 -24.671  0.00  0.00     0.217 HD
ENDBRANCH  36  40
BRANCH  37  42
HETATM   42  O   UNK     0       0.363  -0.773 -26.033  0.00  0.00    -0.358 OA
HETATM   43  H   UNK     0       0.102  -1.592 -26.484  0.00  0.00     0.217 HD
ENDBRANCH  37  42
ENDBRANCH  24  34
BRANCH  30  44
HETATM   44  O   UNK     0      -8.213   5.042 -23.443  0.00  0.00    -0.360 OA
HETATM   45  H   UNK     0      -7.531   5.652 -23.111  0.00  0.00     0.217 HD
ENDBRANCH  30  44
BRANCH  33  46
HETATM   46  O   UNK     0      -9.219   0.871 -21.413  0.00  0.00    -0.361 OA
HETATM   47  H   UNK     0      -9.138   1.115 -20.475  0.00  0.00     0.217 HD
ENDBRANCH  33  46
ENDBRANCH  22  23
ENDBRANCH   6  22
BRANCH   3  48
HETATM   48  O   UNK     0      -3.344   3.763 -31.150  0.00  0.00    -0.390 OA
HETATM   49  H   UNK     0      -2.550   3.913 -31.691  0.00  0.00     0.210 HD
ENDBRANCH   3  48
BRANCH   5  50
HETATM   50  O   UNK     0      -4.188   6.361 -27.209  0.00  0.00    -0.388 OA
HETATM   51  H   UNK     0      -3.665   6.826 -26.534  0.00  0.00     0.210 HD
ENDBRANCH   5  50
BRANCH   4  52
HETATM   52  O   UNK     0      -2.856   6.291 -29.836  0.00  0.00    -0.390 OA
HETATM   53  H   UNK     0      -2.165   6.575 -29.213  0.00  0.00     0.210 HD
ENDBRANCH   4  52
TORSDOF 16
ENDMDL
MODEL 9
REMARK VINA RESULT:      -6.2      1.898      9.076
REMARK  16 active torsions:
REMARK  status: ('A' for Active; 'I' for Inactive)
REMARK    1  A    between atoms: O_2  and  C_22 
REMARK    2  A    between atoms: O_2  and  C_26 
REMARK    3  A    between atoms: O_4  and  C_18 
REMARK    4  A    between atoms: O_5  and  C_19 
REMARK    5  A    between atoms: O_6  and  C_25 
REMARK    6  A    between atoms: O_6  and  C_29 
REMARK    7  A    between atoms: O_7  and  C_20 
REMARK    8  A    between atoms: O_8  and  C_21 
REMARK    9  A    between atoms: O_9  and  C_23 
REMARK   10  A    between atoms: O_10  and  C_24 
REMARK   11  A    between atoms: O_13  and  C_35 
REMARK   12  A    between atoms: O_14  and  C_40 
REMARK   13  A    between atoms: O_15  and  C_41 
REMARK   14  A    between atoms: O_16  and  C_43 
REMARK   15  A    between atoms: C_17  and  C_26 
REMARK   16  A    between atoms: C_30  and  C_33 
ROOT
HETATM    1  O   UNK     0      -1.258   0.454 -27.866  0.00  0.00    -0.348 OA
HETATM    2  C   UNK     0      -2.250  -0.100 -28.732  0.00  0.00     0.180 C 
HETATM    3  C   UNK     0      -3.648   0.252 -28.217  0.00  0.00     0.180 C 
HETATM    4  C   UNK     0      -3.828  -0.216 -26.773  0.00  0.00     0.183 C 
HETATM    5  C   UNK     0      -2.660   0.233 -25.895  0.00  0.00     0.205 C 
HETATM    6  C   UNK     0      -1.317  -0.090 -26.549  0.00  0.00     0.298 C 
ENDROOT
BRANCH   2   7
HETATM    7  C   UNK     0      -2.004   0.460 -30.129  0.00  0.00     0.205 C 
BRANCH   7   8
HETATM    8  O   UNK     0      -2.769  -0.283 -31.067  0.00  0.00    -0.356 OA
BRANCH   8   9
HETATM    9  C   UNK     0      -2.077  -0.432 -32.302  0.00  0.00     0.291 C 
HETATM   10  O   UNK     0      -2.664   0.342 -33.353  0.00  0.00    -0.351 OA
HETATM   11  C   UNK     0      -3.993  -0.056 -33.703  0.00  0.00     0.152 C 
HETATM   12  C   UNK     0      -4.026  -1.521 -34.162  0.00  0.00     0.178 C 
HETATM   13  C   UNK     0      -4.471   0.896 -34.796  0.00  0.00     0.042 C 
HETATM   14  C   UNK     0      -3.402  -2.421 -33.095  0.00  0.00     0.183 C 
HETATM   15  C   UNK     0      -2.019  -1.909 -32.687  0.00  0.00     0.204 C 
BRANCH  12  16
HETATM   16  O   UNK     0      -5.372  -1.944 -34.367  0.00  0.00    -0.390 OA
HETATM   17  H   UNK     0      -5.940  -1.434 -33.765  0.00  0.00     0.210 HD
ENDBRANCH  12  16
BRANCH  14  18
HETATM   18  O   UNK     0      -3.298  -3.749 -33.602  0.00  0.00    -0.390 OA
HETATM   19  H   UNK     0      -4.037  -4.265 -33.235  0.00  0.00     0.210 HD
ENDBRANCH  14  18
BRANCH  15  20
HETATM   20  O   UNK     0      -1.110  -2.038 -33.782  0.00  0.00    -0.388 OA
HETATM   21  H   UNK     0      -1.157  -2.951 -34.113  0.00  0.00     0.210 HD
ENDBRANCH  15  20
ENDBRANCH   8   9
ENDBRANCH   7   8
ENDBRANCH   2   7
BRANCH   6  22
HETATM   22  O   UNK     0      -0.287   0.484 -25.745  0.00  0.00    -0.311 OA
BRANCH  22  23
HETATM   23  C   UNK     0       0.704  -0.430 -25.462  0.00  0.00     0.157 A 
HETATM   24  C   UNK     0       1.758  -0.644 -26.270  0.00  0.00     0.124 A 
HETATM   25  O   UNK     0       2.755  -1.578 -26.032  0.00  0.00    -0.306 OA
HETATM   26  C   UNK     0       2.687  -2.329 -24.887  0.00  0.00     0.096 A 
HETATM   27  C   UNK     0       1.655  -2.202 -23.961  0.00  0.00     0.084 A 
HETATM   28  C   UNK     0       3.710  -3.253 -24.671  0.00  0.00     0.075 A 
HETATM   29  C   UNK     0       0.587  -1.222 -24.215  0.00  0.00     0.223 A 
HETATM   30  C   UNK     0       1.636  -2.997 -22.811  0.00  0.00     0.085 A 
HETATM   31  O   UNK     0      -0.348  -1.071 -23.440  0.00  0.00    -0.284 OA
HETATM   32  C   UNK     0       2.661  -3.920 -22.597  0.00  0.00     0.074 A 
HETATM   33  C   UNK     0       3.695  -4.048 -23.524  0.00  0.00     0.071 A 
BRANCH  24  34
HETATM   34  C   UNK     0       1.952   0.093 -27.532  0.00  0.00     0.004 A 
HETATM   35  C   UNK     0       1.747  -0.549 -28.753  0.00  0.00     0.053 A 
HETATM   36  C   UNK     0       1.929   0.148 -29.948  0.00  0.00     0.099 A 
HETATM   37  C   UNK     0       2.316   1.488 -29.921  0.00  0.00     0.098 A 
HETATM   38  C   UNK     0       2.521   2.130 -28.700  0.00  0.00     0.040 A 
HETATM   39  C   UNK     0       2.338   1.433 -27.506  0.00  0.00     0.017 A 
BRANCH  36  40
HETATM   40  O   UNK     0       1.728  -0.491 -31.135  0.00  0.00    -0.358 OA
HETATM   41  H   UNK     0       0.876  -0.218 -31.512  0.00  0.00     0.217 HD
ENDBRANCH  36  40
BRANCH  37  42
HETATM   42  O   UNK     0       2.496   2.179 -31.081  0.00  0.00    -0.358 OA
HETATM   43  H   UNK     0       3.300   1.869 -31.525  0.00  0.00     0.217 HD
ENDBRANCH  37  42
ENDBRANCH  24  34
BRANCH  30  44
HETATM   44  O   UNK     0       0.651  -2.912 -21.875  0.00  0.00    -0.360 OA
HETATM   45  H   UNK     0       0.721  -3.664 -21.261  0.00  0.00     0.217 HD
ENDBRANCH  30  44
BRANCH  33  46
HETATM   46  O   UNK     0       4.692  -4.950 -23.311  0.00  0.00    -0.361 OA
HETATM   47  H   UNK     0       4.960  -5.332 -24.164  0.00  0.00     0.217 HD
ENDBRANCH  33  46
ENDBRANCH  22  23
ENDBRANCH   6  22
BRANCH   3  48
HETATM   48  O   UNK     0      -4.626  -0.376 -29.042  0.00  0.00    -0.390 OA
HETATM   49  H   UNK     0      -5.286  -0.791 -28.462  0.00  0.00     0.210 HD
ENDBRANCH   3  48
BRANCH   5  50
HETATM   50  O   UNK     0      -2.722  -0.445 -24.640  0.00  0.00    -0.388 OA
HETATM   51  H   UNK     0      -3.061   0.179 -23.977  0.00  0.00     0.210 HD
ENDBRANCH   5  50
BRANCH   4  52
HETATM   52  O   UNK     0      -5.043   0.348 -26.274  0.00  0.00    -0.390 OA
HETATM   53  H   UNK     0      -5.763   0.045 -26.853  0.00  0.00     0.210 HD
ENDBRANCH   4  52
TORSDOF 16
ENDMDL
MODEL 10
REMARK VINA RESULT:      -6.2      3.351      8.824
REMARK  16 active torsions:
REMARK  status: ('A' for Active; 'I' for Inactive)
REMARK    1  A    between atoms: O_2  and  C_22 
REMARK    2  A    between atoms: O_2  and  C_26 
REMARK    3  A    between atoms: O_4  and  C_18 
REMARK    4  A    between atoms: O_5  and  C_19 
REMARK    5  A    between atoms: O_6  and  C_25 
REMARK    6  A    between atoms: O_6  and  C_29 
REMARK    7  A    between atoms: O_7  and  C_20 
REMARK    8  A    between atoms: O_8  and  C_21 
REMARK    9  A    between atoms: O_9  and  C_23 
REMARK   10  A    between atoms: O_10  and  C_24 
REMARK   11  A    between atoms: O_13  and  C_35 
REMARK   12  A    between atoms: O_14  and  C_40 
REMARK   13  A    between atoms: O_15  and  C_41 
REMARK   14  A    between atoms: O_16  and  C_43 
REMARK   15  A    between atoms: C_17  and  C_26 
REMARK   16  A    between atoms: C_30  and  C_33 
ROOT
HETATM    1  O   UNK     0       0.765  -0.770 -25.895  0.00  0.00    -0.348 OA
HETATM    2  C   UNK     0       0.350   0.031 -27.003  0.00  0.00     0.180 C 
HETATM    3  C   UNK     0       1.144  -0.357 -28.253  0.00  0.00     0.180 C 
HETATM    4  C   UNK     0       2.647  -0.240 -28.000  0.00  0.00     0.183 C 
HETATM    5  C   UNK     0       3.047  -0.952 -26.708  0.00  0.00     0.205 C 
HETATM    6  C   UNK     0       2.132  -0.557 -25.549  0.00  0.00     0.298 C 
ENDROOT
BRANCH   2   7
HETATM    7  C   UNK     0      -1.147  -0.189 -27.193  0.00  0.00     0.205 C 
BRANCH   7   8
HETATM    8  O   UNK     0      -1.695   0.926 -27.880  0.00  0.00    -0.356 OA
BRANCH   8   9
HETATM    9  C   UNK     0      -3.110   0.987 -27.730  0.00  0.00     0.291 C 
HETATM   10  O   UNK     0      -3.587   2.328 -27.588  0.00  0.00    -0.351 OA
HETATM   11  C   UNK     0      -3.130   2.990 -26.404  0.00  0.00     0.152 C 
HETATM   12  C   UNK     0      -3.568   2.230 -25.144  0.00  0.00     0.178 C 
HETATM   13  C   UNK     0      -3.695   4.409 -26.440  0.00  0.00     0.042 C 
HETATM   14  C   UNK     0      -3.105   0.775 -25.221  0.00  0.00     0.183 C 
HETATM   15  C   UNK     0      -3.540   0.132 -26.539  0.00  0.00     0.204 C 
BRANCH  12  16
HETATM   16  O   UNK     0      -2.984   2.820 -23.984  0.00  0.00    -0.390 OA
HETATM   17  H   UNK     0      -3.045   2.175 -23.259  0.00  0.00     0.210 HD
ENDBRANCH  12  16
BRANCH  14  18
HETATM   18  O   UNK     0      -3.653   0.049 -24.123  0.00  0.00    -0.390 OA
HETATM   19  H   UNK     0      -3.334  -0.868 -24.184  0.00  0.00     0.210 HD
ENDBRANCH  14  18
BRANCH  15  20
HETATM   20  O   UNK     0      -4.963   0.015 -26.578  0.00  0.00    -0.388 OA
HETATM   21  H   UNK     0      -5.294   0.544 -27.325  0.00  0.00     0.210 HD
ENDBRANCH  15  20
ENDBRANCH   8   9
ENDBRANCH   7   8
ENDBRANCH   2   7
BRANCH   6  22
HETATM   22  O   UNK     0       2.474  -1.365 -24.423  0.00  0.00    -0.311 OA
BRANCH  22  23
HETATM   23  C   UNK     0       2.286  -0.688 -23.238  0.00  0.00     0.157 A 
HETATM   24  C   UNK     0       1.346  -1.030 -22.338  0.00  0.00     0.124 A 
HETATM   25  O   UNK     0       1.108  -0.352 -21.152  0.00  0.00    -0.306 OA
HETATM   26  C   UNK     0       1.890   0.733 -20.851  0.00  0.00     0.096 A 
HETATM   27  C   UNK     0       2.905   1.188 -21.690  0.00  0.00     0.084 A 
HETATM   28  C   UNK     0       1.634   1.389 -19.647  0.00  0.00     0.075 A 
HETATM   29  C   UNK     0       3.153   0.481 -22.956  0.00  0.00     0.223 A 
HETATM   30  C   UNK     0       3.671   2.301 -21.332  0.00  0.00     0.085 A 
HETATM   31  O   UNK     0       4.027   0.838 -23.735  0.00  0.00    -0.284 OA
HETATM   32  C   UNK     0       3.412   2.955 -20.126  0.00  0.00     0.074 A 
HETATM   33  C   UNK     0       2.396   2.499 -19.285  0.00  0.00     0.071 A 
BRANCH  24  34
HETATM   34  C   UNK     0       0.436  -2.172 -22.538  0.00  0.00     0.004 A 
HETATM   35  C   UNK     0      -0.862  -1.958 -23.002  0.00  0.00     0.053 A 
HETATM   36  C   UNK     0      -1.723  -3.039 -23.194  0.00  0.00     0.099 A 
HETATM   37  C   UNK     0      -1.286  -4.334 -22.919  0.00  0.00     0.098 A 
HETATM   38  C   UNK     0       0.012  -4.549 -22.454  0.00  0.00     0.040 A 
HETATM   39  C   UNK     0       0.872  -3.469 -22.265  0.00  0.00     0.017 A 
BRANCH  36  40
HETATM   40  O   UNK     0      -2.989  -2.816 -23.646  0.00  0.00    -0.358 OA
HETATM   41  H   UNK     0      -3.627  -3.020 -22.943  0.00  0.00     0.217 HD
ENDBRANCH  36  40
BRANCH  37  42
HETATM   42  O   UNK     0      -2.117  -5.398 -23.102  0.00  0.00    -0.358 OA
HETATM   43  H   UNK     0      -3.039  -5.115 -22.998  0.00  0.00     0.217 HD
ENDBRANCH  37  42
ENDBRANCH  24  34
BRANCH  30  44
HETATM   44  O   UNK     0       4.672   2.787 -22.116  0.00  0.00    -0.360 OA
HETATM   45  H   UNK     0       5.391   2.133 -22.167  0.00  0.00     0.217 HD
ENDBRANCH  30  44
BRANCH  33  46
HETATM   46  O   UNK     0       2.148   3.141 -18.111  0.00  0.00    -0.361 OA
HETATM   47  H   UNK     0       1.249   3.510 -18.137  0.00  0.00     0.217 HD
ENDBRANCH  33  46
ENDBRANCH  22  23
ENDBRANCH   6  22
BRANCH   3  48
HETATM   48  O   UNK     0       0.779   0.505 -29.328  0.00  0.00    -0.390 OA
HETATM   49  H   UNK     0       1.404   0.357 -30.058  0.00  0.00     0.210 HD
ENDBRANCH   3  48
BRANCH   5  50
HETATM   50  O   UNK     0       4.385  -0.594 -26.364  0.00  0.00    -0.388 OA
HETATM   51  H   UNK     0       4.616   0.214 -26.851  0.00  0.00     0.210 HD
ENDBRANCH   5  50
BRANCH   4  52
HETATM   52  O   UNK     0       3.328  -0.839 -29.104  0.00  0.00    -0.390 OA
HETATM   53  H   UNK     0       2.864  -0.568 -29.914  0.00  0.00     0.210 HD
ENDBRANCH   4  52
TORSDOF 16
ENDMDL
