REMARK VINA RESULT:      -6.6      4.079      8.661
REMARK  16 active torsions:
REMARK  status: ('A' for Active; 'I' for Inactive)
REMARK    1  A    between atoms: O_2  and  C_22 
REMARK    2  A    between atoms: O_2  and  C_26 
REMARK    3  A    between atoms: O_4  and  C_18 
REMARK    4  A    between atoms: O_5  and  C_19 
REMARK    5  A    between atoms: O_6  and  C_25 
REMARK    6  A    between atoms: O_6  and  C_29 
REMARK    7  A    between atoms: O_7  and  C_20 
REMARK    8  A    between atoms: O_8  and  C_21 
REMARK    9  A    between atoms: O_9  and  C_23 
REMARK   10  A    between atoms: O_10  and  C_24 
REMARK   11  A    between atoms: O_13  and  C_35 
REMARK   12  A    between atoms: O_14  and  C_40 
REMARK   13  A    between atoms: O_15  and  C_41 
REMARK   14  A    between atoms: O_16  and  C_43 
REMARK   15  A    between atoms: C_17  and  C_26 
REMARK   16  A    between atoms: C_30  and  C_33 
ROOT
HETATM    1  O   UNK     0      -3.605   2.996 -25.374  0.00  0.00    -0.348 OA
HETATM    2  C   UNK     0      -4.589   3.723 -24.636  0.00  0.00     0.180 C 
HETATM    3  C   UNK     0      -5.311   4.707 -25.560  0.00  0.00     0.180 C 
HETATM    4  C   UNK     0      -4.313   5.640 -26.246  0.00  0.00     0.183 C 
HETATM    5  C   UNK     0      -3.164   4.853 -26.877  0.00  0.00     0.205 C 
HETATM    6  C   UNK     0      -2.579   3.839 -25.894  0.00  0.00     0.298 C 
ENDROOT
BRANCH   2   7
HETATM    7  C   UNK     0      -5.552   2.706 -24.030  0.00  0.00     0.205 C 
BRANCH   7   8
HETATM    8  O   UNK     0      -6.789   3.347 -23.755  0.00  0.00    -0.356 OA
BRANCH   8   9
HETATM    9  C   UNK     0      -6.971   3.550 -22.358  0.00  0.00     0.291 C 
HETATM   10  O   UNK     0      -7.296   2.340 -21.668  0.00  0.00    -0.351 OA
HETATM   11  C   UNK     0      -8.548   1.763 -22.054  0.00  0.00     0.152 C 
HETATM   12  C   UNK     0      -9.706   2.739 -21.803  0.00  0.00     0.178 C 
HETATM   13  C   UNK     0      -8.708   0.470 -21.259  0.00  0.00     0.042 C 
HETATM   14  C   UNK     0      -9.430   4.072 -22.500  0.00  0.00     0.183 C 
HETATM   15  C   UNK     0      -8.048   4.610 -22.127  0.00  0.00     0.204 C 
BRANCH  12  16
HETATM   16  O   UNK     0     -10.922   2.209 -22.325  0.00  0.00    -0.390 OA
HETATM   17  H   UNK     0     -11.382   2.924 -22.796  0.00  0.00     0.210 HD
ENDBRANCH  12  16
BRANCH  14  18
HETATM   18  O   UNK     0     -10.434   5.013 -22.127  0.00  0.00    -0.390 OA
HETATM   19  H   UNK     0     -10.550   4.957 -21.162  0.00  0.00     0.210 HD
ENDBRANCH  14  18
BRANCH  15  20
HETATM   20  O   UNK     0      -8.019   4.963 -20.743  0.00  0.00    -0.388 OA
HETATM   21  H   UNK     0      -7.223   5.497 -20.579  0.00  0.00     0.210 HD
ENDBRANCH  15  20
ENDBRANCH   8   9
ENDBRANCH   7   8
ENDBRANCH   2   7
BRANCH   6  22
HETATM   22  O   UNK     0      -1.618   3.051 -26.595  0.00  0.00    -0.311 OA
BRANCH  22  23
HETATM   23  C   UNK     0      -1.233   1.950 -25.862  0.00  0.00     0.157 A 
HETATM   24  C   UNK     0      -1.456   0.686 -26.264  0.00  0.00     0.124 A 
HETATM   25  O   UNK     0      -1.112  -0.443 -25.536  0.00  0.00    -0.306 OA
HETATM   26  C   UNK     0      -0.481  -0.277 -24.330  0.00  0.00     0.096 A 
HETATM   27  C   UNK     0      -0.182   0.977 -23.801  0.00  0.00     0.084 A 
HETATM   28  C   UNK     0      -0.138  -1.431 -23.626  0.00  0.00     0.075 A 
HETATM   29  C   UNK     0      -0.557   2.179 -24.562  0.00  0.00     0.223 A 
HETATM   30  C   UNK     0       0.462   1.086 -22.565  0.00  0.00     0.085 A 
HETATM   31  O   UNK     0      -0.325   3.306 -24.146  0.00  0.00    -0.284 OA
HETATM   32  C   UNK     0       0.804  -0.070 -21.863  0.00  0.00     0.074 A 
HETATM   33  C   UNK     0       0.505  -1.326 -22.392  0.00  0.00     0.071 A 
BRANCH  24  34
HETATM   34  C   UNK     0      -2.127   0.365 -27.536  0.00  0.00     0.004 A 
HETATM   35  C   UNK     0      -1.379   0.245 -28.708  0.00  0.00     0.053 A 
HETATM   36  C   UNK     0      -2.013  -0.059 -29.913  0.00  0.00     0.099 A 
HETATM   37  C   UNK     0      -3.395  -0.243 -29.946  0.00  0.00     0.098 A 
HETATM   38  C   UNK     0      -4.143  -0.123 -28.775  0.00  0.00     0.040 A 
HETATM   39  C   UNK     0      -3.509   0.181 -27.571  0.00  0.00     0.017 A 
BRANCH  36  40
HETATM   40  O   UNK     0      -1.272  -0.172 -31.051  0.00  0.00    -0.358 OA
HETATM   41  H   UNK     0      -0.347   0.057 -30.863  0.00  0.00     0.217 HD
ENDBRANCH  36  40
BRANCH  37  42
HETATM   42  O   UNK     0      -4.025  -0.541 -31.117  0.00  0.00    -0.358 OA
HETATM   43  H   UNK     0      -4.946  -0.788 -30.939  0.00  0.00     0.217 HD
ENDBRANCH  37  42
ENDBRANCH  24  34
BRANCH  30  44
HETATM   44  O   UNK     0       0.775   2.286 -22.004  0.00  0.00    -0.360 OA
HETATM   45  H   UNK     0       1.037   2.153 -21.077  0.00  0.00     0.217 HD
ENDBRANCH  30  44
BRANCH  33  46
HETATM   46  O   UNK     0       0.840  -2.451 -21.704  0.00  0.00    -0.361 OA
HETATM   47  H   UNK     0       0.871  -3.202 -22.321  0.00  0.00     0.217 HD
ENDBRANCH  33  46
ENDBRANCH  22  23
ENDBRANCH   6  22
BRANCH   3  48
HETATM   48  O   UNK     0      -6.231   5.483 -24.795  0.00  0.00    -0.390 OA
HETATM   49  H   UNK     0      -6.207   5.159 -23.878  0.00  0.00     0.210 HD
ENDBRANCH   3  48
BRANCH   5  50
HETATM   50  O   UNK     0      -2.127   5.754 -27.262  0.00  0.00    -0.388 OA
HETATM   51  H   UNK     0      -2.262   6.590 -26.784  0.00  0.00     0.210 HD
ENDBRANCH   5  50
BRANCH   4  52
HETATM   52  O   UNK     0      -5.011   6.361 -27.264  0.00  0.00    -0.390 OA
HETATM   53  H   UNK     0      -4.502   7.169 -27.448  0.00  0.00     0.210 HD
ENDBRANCH   4  52
TORSDOF 16
