REMARK VINA RESULT:      -6.9      1.515      1.880
REMARK  16 active torsions:
REMARK  status: ('A' for Active; 'I' for Inactive)
REMARK    1  A    between atoms: O_2  and  C_22 
REMARK    2  A    between atoms: O_2  and  C_26 
REMARK    3  A    between atoms: O_4  and  C_18 
REMARK    4  A    between atoms: O_5  and  C_19 
REMARK    5  A    between atoms: O_6  and  C_25 
REMARK    6  A    between atoms: O_6  and  C_29 
REMARK    7  A    between atoms: O_7  and  C_20 
REMARK    8  A    between atoms: O_8  and  C_21 
REMARK    9  A    between atoms: O_9  and  C_23 
REMARK   10  A    between atoms: O_10  and  C_24 
REMARK   11  A    between atoms: O_13  and  C_35 
REMARK   12  A    between atoms: O_14  and  C_40 
REMARK   13  A    between atoms: O_15  and  C_41 
REMARK   14  A    between atoms: O_16  and  C_43 
REMARK   15  A    between atoms: C_17  and  C_26 
REMARK   16  A    between atoms: C_30  and  C_33 
ROOT
HETATM    1  O   UNK     0      -0.107   0.364 -29.652  0.00  0.00    -0.348 OA
HETATM    2  C   UNK     0       0.418  -0.458 -28.607  0.00  0.00     0.180 C 
HETATM    3  C   UNK     0       1.899  -0.745 -28.864  0.00  0.00     0.180 C 
HETATM    4  C   UNK     0       2.099  -1.380 -30.240  0.00  0.00     0.183 C 
HETATM    5  C   UNK     0       1.375  -0.585 -31.327  0.00  0.00     0.205 C 
HETATM    6  C   UNK     0      -0.068  -0.279 -30.924  0.00  0.00     0.298 C 
ENDROOT
BRANCH   2   7
HETATM    7  C   UNK     0       0.205   0.283 -27.291  0.00  0.00     0.205 C 
BRANCH   7   8
HETATM    8  O   UNK     0       0.189  -0.658 -26.228  0.00  0.00    -0.356 OA
BRANCH   8   9
HETATM    9  C   UNK     0       0.062  -0.014 -24.964  0.00  0.00     0.291 C 
HETATM   10  O   UNK     0       0.509  -0.839 -23.884  0.00  0.00    -0.351 OA
HETATM   11  C   UNK     0      -0.265  -2.028 -23.695  0.00  0.00     0.152 C 
HETATM   12  C   UNK     0      -1.736  -1.690 -23.413  0.00  0.00     0.178 C 
HETATM   13  C   UNK     0       0.375  -2.799 -22.543  0.00  0.00     0.042 C 
HETATM   14  C   UNK     0      -2.291  -0.794 -24.521  0.00  0.00     0.183 C 
HETATM   15  C   UNK     0      -1.387   0.419 -24.749  0.00  0.00     0.204 C 
BRANCH  12  16
HETATM   16  O   UNK     0      -2.518  -2.881 -23.372  0.00  0.00    -0.390 OA
HETATM   17  H   UNK     0      -1.946  -3.603 -23.061  0.00  0.00     0.210 HD
ENDBRANCH  12  16
BRANCH  14  18
HETATM   18  O   UNK     0      -3.602  -0.363 -24.164  0.00  0.00    -0.390 OA
HETATM   19  H   UNK     0      -4.156  -0.406 -24.963  0.00  0.00     0.210 HD
ENDBRANCH  14  18
BRANCH  15  20
HETATM   20  O   UNK     0      -1.421   1.273 -23.605  0.00  0.00    -0.388 OA
HETATM   21  H   UNK     0      -0.656   1.062 -23.042  0.00  0.00     0.210 HD
ENDBRANCH  15  20
ENDBRANCH   8   9
ENDBRANCH   7   8
ENDBRANCH   2   7
BRANCH   6  22
HETATM   22  O   UNK     0      -0.628   0.580 -31.916  0.00  0.00    -0.311 OA
BRANCH  22  23
HETATM   23  C   UNK     0      -1.748   0.025 -32.494  0.00  0.00     0.157 A 
HETATM   24  C   UNK     0      -2.952   0.005 -31.893  0.00  0.00     0.124 A 
HETATM   25  O   UNK     0      -4.091  -0.573 -32.432  0.00  0.00    -0.306 OA
HETATM   26  C   UNK     0      -4.006  -1.152 -33.672  0.00  0.00     0.096 A 
HETATM   27  C   UNK     0      -2.823  -1.192 -34.407  0.00  0.00     0.084 A 
HETATM   28  C   UNK     0      -5.171  -1.717 -34.192  0.00  0.00     0.075 A 
HETATM   29  C   UNK     0      -1.608  -0.592 -33.835  0.00  0.00     0.223 A 
HETATM   30  C   UNK     0      -2.795  -1.797 -35.667  0.00  0.00     0.085 A 
HETATM   31  O   UNK     0      -0.540  -0.603 -34.431  0.00  0.00    -0.284 OA
HETATM   32  C   UNK     0      -3.963  -2.361 -36.185  0.00  0.00     0.074 A 
HETATM   33  C   UNK     0      -5.147  -2.321 -35.450  0.00  0.00     0.071 A 
BRANCH  24  34
HETATM   34  C   UNK     0      -3.181   0.589 -30.559  0.00  0.00     0.004 A 
HETATM   35  C   UNK     0      -3.552  -0.231 -29.493  0.00  0.00     0.053 A 
HETATM   36  C   UNK     0      -3.767   0.321 -28.230  0.00  0.00     0.099 A 
HETATM   37  C   UNK     0      -3.613   1.693 -28.033  0.00  0.00     0.098 A 
HETATM   38  C   UNK     0      -3.243   2.513 -29.099  0.00  0.00     0.040 A 
HETATM   39  C   UNK     0      -3.026   1.961 -30.361  0.00  0.00     0.017 A 
BRANCH  36  40
HETATM   40  O   UNK     0      -4.130  -0.490 -27.197  0.00  0.00    -0.358 OA
HETATM   41  H   UNK     0      -4.989  -0.900 -27.390  0.00  0.00     0.217 HD
ENDBRANCH  36  40
BRANCH  37  42
HETATM   42  O   UNK     0      -3.820   2.243 -26.805  0.00  0.00    -0.358 OA
HETATM   43  H   UNK     0      -4.767   2.406 -26.674  0.00  0.00     0.217 HD
ENDBRANCH  37  42
ENDBRANCH  24  34
BRANCH  30  44
HETATM   44  O   UNK     0      -1.667  -1.865 -36.425  0.00  0.00    -0.360 OA
HETATM   45  H   UNK     0      -1.002  -2.411 -35.971  0.00  0.00     0.217 HD
ENDBRANCH  30  44
BRANCH  33  46
HETATM   46  O   UNK     0      -6.283  -2.872 -35.959  0.00  0.00    -0.361 OA
HETATM   47  H   UNK     0      -6.291  -2.745 -36.923  0.00  0.00     0.217 HD
ENDBRANCH  33  46
ENDBRANCH  22  23
ENDBRANCH   6  22
BRANCH   3  48
HETATM   48  O   UNK     0       2.387  -1.631 -27.860  0.00  0.00    -0.390 OA
HETATM   49  H   UNK     0       1.785  -1.584 -27.099  0.00  0.00     0.210 HD
ENDBRANCH   3  48
BRANCH   5  50
HETATM   50  O   UNK     0       1.352  -1.346 -32.534  0.00  0.00    -0.388 OA
HETATM   51  H   UNK     0       1.484  -2.281 -32.304  0.00  0.00     0.210 HD
ENDBRANCH   5  50
BRANCH   4  52
HETATM   52  O   UNK     0       3.500  -1.399 -30.518  0.00  0.00    -0.390 OA
HETATM   53  H   UNK     0       3.754  -2.326 -30.669  0.00  0.00     0.210 HD
ENDBRANCH   4  52
TORSDOF 16
