REMARK VINA RESULT:      -6.2      3.351      8.824
REMARK  16 active torsions:
REMARK  status: ('A' for Active; 'I' for Inactive)
REMARK    1  A    between atoms: O_2  and  C_22 
REMARK    2  A    between atoms: O_2  and  C_26 
REMARK    3  A    between atoms: O_4  and  C_18 
REMARK    4  A    between atoms: O_5  and  C_19 
REMARK    5  A    between atoms: O_6  and  C_25 
REMARK    6  A    between atoms: O_6  and  C_29 
REMARK    7  A    between atoms: O_7  and  C_20 
REMARK    8  A    between atoms: O_8  and  C_21 
REMARK    9  A    between atoms: O_9  and  C_23 
REMARK   10  A    between atoms: O_10  and  C_24 
REMARK   11  A    between atoms: O_13  and  C_35 
REMARK   12  A    between atoms: O_14  and  C_40 
REMARK   13  A    between atoms: O_15  and  C_41 
REMARK   14  A    between atoms: O_16  and  C_43 
REMARK   15  A    between atoms: C_17  and  C_26 
REMARK   16  A    between atoms: C_30  and  C_33 
ROOT
HETATM    1  O   UNK     0       0.765  -0.770 -25.895  0.00  0.00    -0.348 OA
HETATM    2  C   UNK     0       0.350   0.031 -27.003  0.00  0.00     0.180 C 
HETATM    3  C   UNK     0       1.144  -0.357 -28.253  0.00  0.00     0.180 C 
HETATM    4  C   UNK     0       2.647  -0.240 -28.000  0.00  0.00     0.183 C 
HETATM    5  C   UNK     0       3.047  -0.952 -26.708  0.00  0.00     0.205 C 
HETATM    6  C   UNK     0       2.132  -0.557 -25.549  0.00  0.00     0.298 C 
ENDROOT
BRANCH   2   7
HETATM    7  C   UNK     0      -1.147  -0.189 -27.193  0.00  0.00     0.205 C 
BRANCH   7   8
HETATM    8  O   UNK     0      -1.695   0.926 -27.880  0.00  0.00    -0.356 OA
BRANCH   8   9
HETATM    9  C   UNK     0      -3.110   0.987 -27.730  0.00  0.00     0.291 C 
HETATM   10  O   UNK     0      -3.587   2.328 -27.588  0.00  0.00    -0.351 OA
HETATM   11  C   UNK     0      -3.130   2.990 -26.404  0.00  0.00     0.152 C 
HETATM   12  C   UNK     0      -3.568   2.230 -25.144  0.00  0.00     0.178 C 
HETATM   13  C   UNK     0      -3.695   4.409 -26.440  0.00  0.00     0.042 C 
HETATM   14  C   UNK     0      -3.105   0.775 -25.221  0.00  0.00     0.183 C 
HETATM   15  C   UNK     0      -3.540   0.132 -26.539  0.00  0.00     0.204 C 
BRANCH  12  16
HETATM   16  O   UNK     0      -2.984   2.820 -23.984  0.00  0.00    -0.390 OA
HETATM   17  H   UNK     0      -3.045   2.175 -23.259  0.00  0.00     0.210 HD
ENDBRANCH  12  16
BRANCH  14  18
HETATM   18  O   UNK     0      -3.653   0.049 -24.123  0.00  0.00    -0.390 OA
HETATM   19  H   UNK     0      -3.334  -0.868 -24.184  0.00  0.00     0.210 HD
ENDBRANCH  14  18
BRANCH  15  20
HETATM   20  O   UNK     0      -4.963   0.015 -26.578  0.00  0.00    -0.388 OA
HETATM   21  H   UNK     0      -5.294   0.544 -27.325  0.00  0.00     0.210 HD
ENDBRANCH  15  20
ENDBRANCH   8   9
ENDBRANCH   7   8
ENDBRANCH   2   7
BRANCH   6  22
HETATM   22  O   UNK     0       2.474  -1.365 -24.423  0.00  0.00    -0.311 OA
BRANCH  22  23
HETATM   23  C   UNK     0       2.286  -0.688 -23.238  0.00  0.00     0.157 A 
HETATM   24  C   UNK     0       1.346  -1.030 -22.338  0.00  0.00     0.124 A 
HETATM   25  O   UNK     0       1.108  -0.352 -21.152  0.00  0.00    -0.306 OA
HETATM   26  C   UNK     0       1.890   0.733 -20.851  0.00  0.00     0.096 A 
HETATM   27  C   UNK     0       2.905   1.188 -21.690  0.00  0.00     0.084 A 
HETATM   28  C   UNK     0       1.634   1.389 -19.647  0.00  0.00     0.075 A 
HETATM   29  C   UNK     0       3.153   0.481 -22.956  0.00  0.00     0.223 A 
HETATM   30  C   UNK     0       3.671   2.301 -21.332  0.00  0.00     0.085 A 
HETATM   31  O   UNK     0       4.027   0.838 -23.735  0.00  0.00    -0.284 OA
HETATM   32  C   UNK     0       3.412   2.955 -20.126  0.00  0.00     0.074 A 
HETATM   33  C   UNK     0       2.396   2.499 -19.285  0.00  0.00     0.071 A 
BRANCH  24  34
HETATM   34  C   UNK     0       0.436  -2.172 -22.538  0.00  0.00     0.004 A 
HETATM   35  C   UNK     0      -0.862  -1.958 -23.002  0.00  0.00     0.053 A 
HETATM   36  C   UNK     0      -1.723  -3.039 -23.194  0.00  0.00     0.099 A 
HETATM   37  C   UNK     0      -1.286  -4.334 -22.919  0.00  0.00     0.098 A 
HETATM   38  C   UNK     0       0.012  -4.549 -22.454  0.00  0.00     0.040 A 
HETATM   39  C   UNK     0       0.872  -3.469 -22.265  0.00  0.00     0.017 A 
BRANCH  36  40
HETATM   40  O   UNK     0      -2.989  -2.816 -23.646  0.00  0.00    -0.358 OA
HETATM   41  H   UNK     0      -3.627  -3.020 -22.943  0.00  0.00     0.217 HD
ENDBRANCH  36  40
BRANCH  37  42
HETATM   42  O   UNK     0      -2.117  -5.398 -23.102  0.00  0.00    -0.358 OA
HETATM   43  H   UNK     0      -3.039  -5.115 -22.998  0.00  0.00     0.217 HD
ENDBRANCH  37  42
ENDBRANCH  24  34
BRANCH  30  44
HETATM   44  O   UNK     0       4.672   2.787 -22.116  0.00  0.00    -0.360 OA
HETATM   45  H   UNK     0       5.391   2.133 -22.167  0.00  0.00     0.217 HD
ENDBRANCH  30  44
BRANCH  33  46
HETATM   46  O   UNK     0       2.148   3.141 -18.111  0.00  0.00    -0.361 OA
HETATM   47  H   UNK     0       1.249   3.510 -18.137  0.00  0.00     0.217 HD
ENDBRANCH  33  46
ENDBRANCH  22  23
ENDBRANCH   6  22
BRANCH   3  48
HETATM   48  O   UNK     0       0.779   0.505 -29.328  0.00  0.00    -0.390 OA
HETATM   49  H   UNK     0       1.404   0.357 -30.058  0.00  0.00     0.210 HD
ENDBRANCH   3  48
BRANCH   5  50
HETATM   50  O   UNK     0       4.385  -0.594 -26.364  0.00  0.00    -0.388 OA
HETATM   51  H   UNK     0       4.616   0.214 -26.851  0.00  0.00     0.210 HD
ENDBRANCH   5  50
BRANCH   4  52
HETATM   52  O   UNK     0       3.328  -0.839 -29.104  0.00  0.00    -0.390 OA
HETATM   53  H   UNK     0       2.864  -0.568 -29.914  0.00  0.00     0.210 HD
ENDBRANCH   4  52
TORSDOF 16
