REMARK VINA RESULT:      -6.3      3.374      8.954
REMARK  16 active torsions:
REMARK  status: ('A' for Active; 'I' for Inactive)
REMARK    1  A    between atoms: O_2  and  C_22 
REMARK    2  A    between atoms: O_2  and  C_26 
REMARK    3  A    between atoms: O_4  and  C_18 
REMARK    4  A    between atoms: O_5  and  C_19 
REMARK    5  A    between atoms: O_6  and  C_25 
REMARK    6  A    between atoms: O_6  and  C_29 
REMARK    7  A    between atoms: O_7  and  C_20 
REMARK    8  A    between atoms: O_8  and  C_21 
REMARK    9  A    between atoms: O_9  and  C_23 
REMARK   10  A    between atoms: O_10  and  C_24 
REMARK   11  A    between atoms: O_13  and  C_35 
REMARK   12  A    between atoms: O_14  and  C_40 
REMARK   13  A    between atoms: O_15  and  C_41 
REMARK   14  A    between atoms: O_16  and  C_43 
REMARK   15  A    between atoms: C_17  and  C_26 
REMARK   16  A    between atoms: C_30  and  C_33 
ROOT
HETATM    1  O   UNK     0      -3.210   2.862 -27.603  0.00  0.00    -0.348 OA
HETATM    2  C   UNK     0      -3.499   2.697 -28.993  0.00  0.00     0.180 C 
HETATM    3  C   UNK     0      -2.976   3.901 -29.780  0.00  0.00     0.180 C 
HETATM    4  C   UNK     0      -3.557   5.203 -29.230  0.00  0.00     0.183 C 
HETATM    5  C   UNK     0      -3.402   5.281 -27.711  0.00  0.00     0.205 C 
HETATM    6  C   UNK     0      -3.872   3.992 -27.038  0.00  0.00     0.298 C 
ENDROOT
BRANCH   2   7
HETATM    7  C   UNK     0      -2.843   1.396 -29.446  0.00  0.00     0.205 C 
BRANCH   7   8
HETATM    8  O   UNK     0      -1.640   1.701 -30.136  0.00  0.00    -0.356 OA
BRANCH   8   9
HETATM    9  C   UNK     0      -0.511   1.112 -29.499  0.00  0.00     0.291 C 
HETATM   10  O   UNK     0       0.724   1.689 -29.933  0.00  0.00    -0.351 OA
HETATM   11  C   UNK     0       1.016   1.477 -31.318  0.00  0.00     0.152 C 
HETATM   12  C   UNK     0       1.091  -0.022 -31.642  0.00  0.00     0.178 C 
HETATM   13  C   UNK     0       2.332   2.192 -31.612  0.00  0.00     0.042 C 
HETATM   14  C   UNK     0      -0.194  -0.721 -31.196  0.00  0.00     0.183 C 
HETATM   15  C   UNK     0      -0.514  -0.397 -29.735  0.00  0.00     0.204 C 
BRANCH  12  16
HETATM   16  O   UNK     0       1.236  -0.217 -33.047  0.00  0.00    -0.390 OA
HETATM   17  H   UNK     0       1.706   0.554 -33.408  0.00  0.00     0.210 HD
ENDBRANCH  12  16
BRANCH  14  18
HETATM   18  O   UNK     0      -0.043  -2.129 -31.359  0.00  0.00    -0.390 OA
HETATM   19  H   UNK     0      -0.909  -2.542 -31.194  0.00  0.00     0.210 HD
ENDBRANCH  14  18
BRANCH  15  20
HETATM   20  O   UNK     0       0.475  -0.974 -28.880  0.00  0.00    -0.388 OA
HETATM   21  H   UNK     0       1.309  -1.039 -29.376  0.00  0.00     0.210 HD
ENDBRANCH  15  20
ENDBRANCH   8   9
ENDBRANCH   7   8
ENDBRANCH   2   7
BRANCH   6  22
HETATM   22  O   UNK     0      -3.564   4.084 -25.647  0.00  0.00    -0.311 OA
BRANCH  22  23
HETATM   23  C   UNK     0      -4.453   3.362 -24.882  0.00  0.00     0.157 A 
HETATM   24  C   UNK     0      -4.246   2.081 -24.528  0.00  0.00     0.124 A 
HETATM   25  O   UNK     0      -5.133   1.316 -23.787  0.00  0.00    -0.306 OA
HETATM   26  C   UNK     0      -6.299   1.897 -23.361  0.00  0.00     0.096 A 
HETATM   27  C   UNK     0      -6.634   3.218 -23.649  0.00  0.00     0.084 A 
HETATM   28  C   UNK     0      -7.168   1.106 -22.608  0.00  0.00     0.075 A 
HETATM   29  C   UNK     0      -5.702   4.031 -24.447  0.00  0.00     0.223 A 
HETATM   30  C   UNK     0      -7.838   3.759 -23.189  0.00  0.00     0.085 A 
HETATM   31  O   UNK     0      -5.945   5.195 -24.736  0.00  0.00    -0.284 OA
HETATM   32  C   UNK     0      -8.705   2.964 -22.437  0.00  0.00     0.074 A 
HETATM   33  C   UNK     0      -8.371   1.641 -22.147  0.00  0.00     0.071 A 
BRANCH  24  34
HETATM   34  C   UNK     0      -3.037   1.336 -24.922  0.00  0.00     0.004 A 
HETATM   35  C   UNK     0      -1.782   1.757 -24.479  0.00  0.00     0.053 A 
HETATM   36  C   UNK     0      -0.638   1.051 -24.850  0.00  0.00     0.099 A 
HETATM   37  C   UNK     0      -0.747  -0.076 -25.665  0.00  0.00     0.098 A 
HETATM   38  C   UNK     0      -2.001  -0.497 -26.108  0.00  0.00     0.040 A 
HETATM   39  C   UNK     0      -3.145   0.208 -25.736  0.00  0.00     0.017 A 
BRANCH  36  40
HETATM   40  O   UNK     0       0.582   1.474 -24.413  0.00  0.00    -0.358 OA
HETATM   41  H   UNK     0       0.718   2.400 -24.671  0.00  0.00     0.217 HD
ENDBRANCH  36  40
BRANCH  37  42
HETATM   42  O   UNK     0       0.363  -0.773 -26.033  0.00  0.00    -0.358 OA
HETATM   43  H   UNK     0       0.102  -1.592 -26.484  0.00  0.00     0.217 HD
ENDBRANCH  37  42
ENDBRANCH  24  34
BRANCH  30  44
HETATM   44  O   UNK     0      -8.213   5.042 -23.443  0.00  0.00    -0.360 OA
HETATM   45  H   UNK     0      -7.531   5.652 -23.111  0.00  0.00     0.217 HD
ENDBRANCH  30  44
BRANCH  33  46
HETATM   46  O   UNK     0      -9.219   0.871 -21.413  0.00  0.00    -0.361 OA
HETATM   47  H   UNK     0      -9.138   1.115 -20.475  0.00  0.00     0.217 HD
ENDBRANCH  33  46
ENDBRANCH  22  23
ENDBRANCH   6  22
BRANCH   3  48
HETATM   48  O   UNK     0      -3.344   3.763 -31.150  0.00  0.00    -0.390 OA
HETATM   49  H   UNK     0      -2.550   3.913 -31.691  0.00  0.00     0.210 HD
ENDBRANCH   3  48
BRANCH   5  50
HETATM   50  O   UNK     0      -4.188   6.361 -27.209  0.00  0.00    -0.388 OA
HETATM   51  H   UNK     0      -3.665   6.826 -26.534  0.00  0.00     0.210 HD
ENDBRANCH   5  50
BRANCH   4  52
HETATM   52  O   UNK     0      -2.856   6.291 -29.836  0.00  0.00    -0.390 OA
HETATM   53  H   UNK     0      -2.165   6.575 -29.213  0.00  0.00     0.210 HD
ENDBRANCH   4  52
TORSDOF 16
