REMARK VINA RESULT:      -6.2      1.898      9.076
REMARK  16 active torsions:
REMARK  status: ('A' for Active; 'I' for Inactive)
REMARK    1  A    between atoms: O_2  and  C_22 
REMARK    2  A    between atoms: O_2  and  C_26 
REMARK    3  A    between atoms: O_4  and  C_18 
REMARK    4  A    between atoms: O_5  and  C_19 
REMARK    5  A    between atoms: O_6  and  C_25 
REMARK    6  A    between atoms: O_6  and  C_29 
REMARK    7  A    between atoms: O_7  and  C_20 
REMARK    8  A    between atoms: O_8  and  C_21 
REMARK    9  A    between atoms: O_9  and  C_23 
REMARK   10  A    between atoms: O_10  and  C_24 
REMARK   11  A    between atoms: O_13  and  C_35 
REMARK   12  A    between atoms: O_14  and  C_40 
REMARK   13  A    between atoms: O_15  and  C_41 
REMARK   14  A    between atoms: O_16  and  C_43 
REMARK   15  A    between atoms: C_17  and  C_26 
REMARK   16  A    between atoms: C_30  and  C_33 
ROOT
HETATM    1  O   UNK     0      -1.258   0.454 -27.866  0.00  0.00    -0.348 OA
HETATM    2  C   UNK     0      -2.250  -0.100 -28.732  0.00  0.00     0.180 C 
HETATM    3  C   UNK     0      -3.648   0.252 -28.217  0.00  0.00     0.180 C 
HETATM    4  C   UNK     0      -3.828  -0.216 -26.773  0.00  0.00     0.183 C 
HETATM    5  C   UNK     0      -2.660   0.233 -25.895  0.00  0.00     0.205 C 
HETATM    6  C   UNK     0      -1.317  -0.090 -26.549  0.00  0.00     0.298 C 
ENDROOT
BRANCH   2   7
HETATM    7  C   UNK     0      -2.004   0.460 -30.129  0.00  0.00     0.205 C 
BRANCH   7   8
HETATM    8  O   UNK     0      -2.769  -0.283 -31.067  0.00  0.00    -0.356 OA
BRANCH   8   9
HETATM    9  C   UNK     0      -2.077  -0.432 -32.302  0.00  0.00     0.291 C 
HETATM   10  O   UNK     0      -2.664   0.342 -33.353  0.00  0.00    -0.351 OA
HETATM   11  C   UNK     0      -3.993  -0.056 -33.703  0.00  0.00     0.152 C 
HETATM   12  C   UNK     0      -4.026  -1.521 -34.162  0.00  0.00     0.178 C 
HETATM   13  C   UNK     0      -4.471   0.896 -34.796  0.00  0.00     0.042 C 
HETATM   14  C   UNK     0      -3.402  -2.421 -33.095  0.00  0.00     0.183 C 
HETATM   15  C   UNK     0      -2.019  -1.909 -32.687  0.00  0.00     0.204 C 
BRANCH  12  16
HETATM   16  O   UNK     0      -5.372  -1.944 -34.367  0.00  0.00    -0.390 OA
HETATM   17  H   UNK     0      -5.940  -1.434 -33.765  0.00  0.00     0.210 HD
ENDBRANCH  12  16
BRANCH  14  18
HETATM   18  O   UNK     0      -3.298  -3.749 -33.602  0.00  0.00    -0.390 OA
HETATM   19  H   UNK     0      -4.037  -4.265 -33.235  0.00  0.00     0.210 HD
ENDBRANCH  14  18
BRANCH  15  20
HETATM   20  O   UNK     0      -1.110  -2.038 -33.782  0.00  0.00    -0.388 OA
HETATM   21  H   UNK     0      -1.157  -2.951 -34.113  0.00  0.00     0.210 HD
ENDBRANCH  15  20
ENDBRANCH   8   9
ENDBRANCH   7   8
ENDBRANCH   2   7
BRANCH   6  22
HETATM   22  O   UNK     0      -0.287   0.484 -25.745  0.00  0.00    -0.311 OA
BRANCH  22  23
HETATM   23  C   UNK     0       0.704  -0.430 -25.462  0.00  0.00     0.157 A 
HETATM   24  C   UNK     0       1.758  -0.644 -26.270  0.00  0.00     0.124 A 
HETATM   25  O   UNK     0       2.755  -1.578 -26.032  0.00  0.00    -0.306 OA
HETATM   26  C   UNK     0       2.687  -2.329 -24.887  0.00  0.00     0.096 A 
HETATM   27  C   UNK     0       1.655  -2.202 -23.961  0.00  0.00     0.084 A 
HETATM   28  C   UNK     0       3.710  -3.253 -24.671  0.00  0.00     0.075 A 
HETATM   29  C   UNK     0       0.587  -1.222 -24.215  0.00  0.00     0.223 A 
HETATM   30  C   UNK     0       1.636  -2.997 -22.811  0.00  0.00     0.085 A 
HETATM   31  O   UNK     0      -0.348  -1.071 -23.440  0.00  0.00    -0.284 OA
HETATM   32  C   UNK     0       2.661  -3.920 -22.597  0.00  0.00     0.074 A 
HETATM   33  C   UNK     0       3.695  -4.048 -23.524  0.00  0.00     0.071 A 
BRANCH  24  34
HETATM   34  C   UNK     0       1.952   0.093 -27.532  0.00  0.00     0.004 A 
HETATM   35  C   UNK     0       1.747  -0.549 -28.753  0.00  0.00     0.053 A 
HETATM   36  C   UNK     0       1.929   0.148 -29.948  0.00  0.00     0.099 A 
HETATM   37  C   UNK     0       2.316   1.488 -29.921  0.00  0.00     0.098 A 
HETATM   38  C   UNK     0       2.521   2.130 -28.700  0.00  0.00     0.040 A 
HETATM   39  C   UNK     0       2.338   1.433 -27.506  0.00  0.00     0.017 A 
BRANCH  36  40
HETATM   40  O   UNK     0       1.728  -0.491 -31.135  0.00  0.00    -0.358 OA
HETATM   41  H   UNK     0       0.876  -0.218 -31.512  0.00  0.00     0.217 HD
ENDBRANCH  36  40
BRANCH  37  42
HETATM   42  O   UNK     0       2.496   2.179 -31.081  0.00  0.00    -0.358 OA
HETATM   43  H   UNK     0       3.300   1.869 -31.525  0.00  0.00     0.217 HD
ENDBRANCH  37  42
ENDBRANCH  24  34
BRANCH  30  44
HETATM   44  O   UNK     0       0.651  -2.912 -21.875  0.00  0.00    -0.360 OA
HETATM   45  H   UNK     0       0.721  -3.664 -21.261  0.00  0.00     0.217 HD
ENDBRANCH  30  44
BRANCH  33  46
HETATM   46  O   UNK     0       4.692  -4.950 -23.311  0.00  0.00    -0.361 OA
HETATM   47  H   UNK     0       4.960  -5.332 -24.164  0.00  0.00     0.217 HD
ENDBRANCH  33  46
ENDBRANCH  22  23
ENDBRANCH   6  22
BRANCH   3  48
HETATM   48  O   UNK     0      -4.626  -0.376 -29.042  0.00  0.00    -0.390 OA
HETATM   49  H   UNK     0      -5.286  -0.791 -28.462  0.00  0.00     0.210 HD
ENDBRANCH   3  48
BRANCH   5  50
HETATM   50  O   UNK     0      -2.722  -0.445 -24.640  0.00  0.00    -0.388 OA
HETATM   51  H   UNK     0      -3.061   0.179 -23.977  0.00  0.00     0.210 HD
ENDBRANCH   5  50
BRANCH   4  52
HETATM   52  O   UNK     0      -5.043   0.348 -26.274  0.00  0.00    -0.390 OA
HETATM   53  H   UNK     0      -5.763   0.045 -26.853  0.00  0.00     0.210 HD
ENDBRANCH   4  52
TORSDOF 16
