REMARK VINA RESULT:      -6.3      4.924     10.415
REMARK  16 active torsions:
REMARK  status: ('A' for Active; 'I' for Inactive)
REMARK    1  A    between atoms: O_2  and  C_22 
REMARK    2  A    between atoms: O_2  and  C_26 
REMARK    3  A    between atoms: O_4  and  C_18 
REMARK    4  A    between atoms: O_5  and  C_19 
REMARK    5  A    between atoms: O_6  and  C_25 
REMARK    6  A    between atoms: O_6  and  C_29 
REMARK    7  A    between atoms: O_7  and  C_20 
REMARK    8  A    between atoms: O_8  and  C_21 
REMARK    9  A    between atoms: O_9  and  C_23 
REMARK   10  A    between atoms: O_10  and  C_24 
REMARK   11  A    between atoms: O_13  and  C_35 
REMARK   12  A    between atoms: O_14  and  C_40 
REMARK   13  A    between atoms: O_15  and  C_41 
REMARK   14  A    between atoms: O_16  and  C_43 
REMARK   15  A    between atoms: C_17  and  C_26 
REMARK   16  A    between atoms: C_30  and  C_33 
ROOT
HETATM    1  O   UNK     0       1.403   1.423 -23.802  0.00  0.00    -0.348 OA
HETATM    2  C   UNK     0       0.397   2.027 -24.618  0.00  0.00     0.180 C 
HETATM    3  C   UNK     0       1.022   3.112 -25.499  0.00  0.00     0.180 C 
HETATM    4  C   UNK     0       1.758   4.145 -24.646  0.00  0.00     0.183 C 
HETATM    5  C   UNK     0       2.701   3.471 -23.649  0.00  0.00     0.205 C 
HETATM    6  C   UNK     0       1.995   2.346 -22.891  0.00  0.00     0.298 C 
ENDROOT
BRANCH   2   7
HETATM    7  C   UNK     0      -0.243   0.921 -25.451  0.00  0.00     0.205 C 
BRANCH   7   8
HETATM    8  O   UNK     0      -1.559   0.685 -24.973  0.00  0.00    -0.356 OA
BRANCH   8   9
HETATM    9  C   UNK     0      -2.535   0.976 -25.967  0.00  0.00     0.291 C 
HETATM   10  O   UNK     0      -2.805   2.377 -26.073  0.00  0.00    -0.351 OA
HETATM   11  C   UNK     0      -3.390   2.952 -24.900  0.00  0.00     0.152 C 
HETATM   12  C   UNK     0      -4.722   2.271 -24.558  0.00  0.00     0.178 C 
HETATM   13  C   UNK     0      -3.566   4.444 -25.174  0.00  0.00     0.042 C 
HETATM   14  C   UNK     0      -4.524   0.759 -24.438  0.00  0.00     0.183 C 
HETATM   15  C   UNK     0      -3.818   0.200 -25.675  0.00  0.00     0.204 C 
BRANCH  12  16
HETATM   16  O   UNK     0      -5.218   2.753 -23.312  0.00  0.00    -0.390 OA
HETATM   17  H   UNK     0      -5.558   3.653 -23.454  0.00  0.00     0.210 HD
ENDBRANCH  12  16
BRANCH  14  18
HETATM   18  O   UNK     0      -5.793   0.130 -24.278  0.00  0.00    -0.390 OA
HETATM   19  H   UNK     0      -6.283   0.621 -23.595  0.00  0.00     0.210 HD
ENDBRANCH  14  18
BRANCH  15  20
HETATM   20  O   UNK     0      -4.668   0.319 -26.817  0.00  0.00    -0.388 OA
HETATM   21  H   UNK     0      -5.546  -0.029 -26.583  0.00  0.00     0.210 HD
ENDBRANCH  15  20
ENDBRANCH   8   9
ENDBRANCH   7   8
ENDBRANCH   2   7
BRANCH   6  22
HETATM   22  O   UNK     0       2.969   1.677 -22.091  0.00  0.00    -0.311 OA
BRANCH  22  23
HETATM   23  C   UNK     0       2.509   1.455 -20.812  0.00  0.00     0.157 A 
HETATM   24  C   UNK     0       1.861   0.334 -20.447  0.00  0.00     0.124 A 
HETATM   25  O   UNK     0       1.358   0.094 -19.178  0.00  0.00    -0.306 OA
HETATM   26  C   UNK     0       1.542   1.047 -18.210  0.00  0.00     0.096 A 
HETATM   27  C   UNK     0       2.203   2.250 -18.451  0.00  0.00     0.084 A 
HETATM   28  C   UNK     0       1.033   0.773 -16.941  0.00  0.00     0.075 A 
HETATM   29  C   UNK     0       2.728   2.516 -19.799  0.00  0.00     0.223 A 
HETATM   30  C   UNK     0       2.360   3.186 -17.426  0.00  0.00     0.085 A 
HETATM   31  O   UNK     0       3.312   3.557 -20.071  0.00  0.00    -0.284 OA
HETATM   32  C   UNK     0       1.850   2.909 -16.156  0.00  0.00     0.074 A 
HETATM   33  C   UNK     0       1.188   1.705 -15.914  0.00  0.00     0.071 A 
BRANCH  24  34
HETATM   34  C   UNK     0       1.595  -0.768 -21.389  0.00  0.00     0.004 A 
HETATM   35  C   UNK     0       0.359  -0.854 -22.031  0.00  0.00     0.053 A 
HETATM   36  C   UNK     0       0.107  -1.896 -22.923  0.00  0.00     0.099 A 
HETATM   37  C   UNK     0       1.089  -2.853 -23.173  0.00  0.00     0.098 A 
HETATM   38  C   UNK     0       2.325  -2.768 -22.531  0.00  0.00     0.040 A 
HETATM   39  C   UNK     0       2.577  -1.726 -21.640  0.00  0.00     0.017 A 
BRANCH  36  40
HETATM   40  O   UNK     0      -1.105  -1.970 -23.542  0.00  0.00    -0.358 OA
HETATM   41  H   UNK     0      -1.504  -2.840 -23.377  0.00  0.00     0.217 HD
ENDBRANCH  36  40
BRANCH  37  42
HETATM   42  O   UNK     0       0.855  -3.875 -24.042  0.00  0.00    -0.358 OA
HETATM   43  H   UNK     0      -0.070  -3.852 -24.333  0.00  0.00     0.217 HD
ENDBRANCH  37  42
ENDBRANCH  24  34
BRANCH  30  44
HETATM   44  O   UNK     0       2.997   4.376 -17.608  0.00  0.00    -0.360 OA
HETATM   45  H   UNK     0       2.606   4.840 -18.369  0.00  0.00     0.217 HD
ENDBRANCH  30  44
BRANCH  33  46
HETATM   46  O   UNK     0       0.692   1.439 -14.675  0.00  0.00    -0.361 OA
HETATM   47  H   UNK     0       1.097   0.620 -14.342  0.00  0.00     0.217 HD
ENDBRANCH  33  46
ENDBRANCH  22  23
ENDBRANCH   6  22
BRANCH   3  48
HETATM   48  O   UNK     0      -0.004   3.762 -26.244  0.00  0.00    -0.390 OA
HETATM   49  H   UNK     0      -0.051   3.342 -27.120  0.00  0.00     0.210 HD
ENDBRANCH   3  48
BRANCH   5  50
HETATM   50  O   UNK     0       3.156   4.435 -22.700  0.00  0.00    -0.388 OA
HETATM   51  H   UNK     0       2.584   4.379 -21.916  0.00  0.00     0.210 HD
ENDBRANCH   5  50
BRANCH   4  52
HETATM   52  O   UNK     0       2.514   4.983 -25.524  0.00  0.00    -0.390 OA
HETATM   53  H   UNK     0       3.442   4.694 -25.474  0.00  0.00     0.210 HD
ENDBRANCH   4  52
TORSDOF 16
