REMARK VINA RESULT:      -6.4      3.234      8.645
REMARK  16 active torsions:
REMARK  status: ('A' for Active; 'I' for Inactive)
REMARK    1  A    between atoms: O_2  and  C_22 
REMARK    2  A    between atoms: O_2  and  C_26 
REMARK    3  A    between atoms: O_4  and  C_18 
REMARK    4  A    between atoms: O_5  and  C_19 
REMARK    5  A    between atoms: O_6  and  C_25 
REMARK    6  A    between atoms: O_6  and  C_29 
REMARK    7  A    between atoms: O_7  and  C_20 
REMARK    8  A    between atoms: O_8  and  C_21 
REMARK    9  A    between atoms: O_9  and  C_23 
REMARK   10  A    between atoms: O_10  and  C_24 
REMARK   11  A    between atoms: O_13  and  C_35 
REMARK   12  A    between atoms: O_14  and  C_40 
REMARK   13  A    between atoms: O_15  and  C_41 
REMARK   14  A    between atoms: O_16  and  C_43 
REMARK   15  A    between atoms: C_17  and  C_26 
REMARK   16  A    between atoms: C_30  and  C_33 
ROOT
HETATM    1  O   UNK     0      -0.226  -0.716 -25.980  0.00  0.00    -0.348 OA
HETATM    2  C   UNK     0      -0.994   0.013 -26.940  0.00  0.00     0.180 C 
HETATM    3  C   UNK     0      -0.382  -0.154 -28.333  0.00  0.00     0.180 C 
HETATM    4  C   UNK     0       1.086   0.275 -28.336  0.00  0.00     0.183 C 
HETATM    5  C   UNK     0       1.855  -0.375 -27.186  0.00  0.00     0.205 C 
HETATM    6  C   UNK     0       1.108  -0.224 -25.861  0.00  0.00     0.298 C 
ENDROOT
BRANCH   2   7
HETATM    7  C   UNK     0      -2.423  -0.519 -26.883  0.00  0.00     0.205 C 
BRANCH   7   8
HETATM    8  O   UNK     0      -3.279   0.506 -26.404  0.00  0.00    -0.356 OA
BRANCH   8   9
HETATM    9  C   UNK     0      -2.946   0.883 -25.072  0.00  0.00     0.291 C 
HETATM   10  O   UNK     0      -3.971   0.539 -24.135  0.00  0.00    -0.351 OA
HETATM   11  C   UNK     0      -5.209   1.227 -24.341  0.00  0.00     0.152 C 
HETATM   12  C   UNK     0      -5.016   2.748 -24.247  0.00  0.00     0.178 C 
HETATM   13  C   UNK     0      -6.188   0.710 -23.290  0.00  0.00     0.042 C 
HETATM   14  C   UNK     0      -3.922   3.200 -25.214  0.00  0.00     0.183 C 
HETATM   15  C   UNK     0      -2.645   2.380 -25.018  0.00  0.00     0.204 C 
BRANCH  12  16
HETATM   16  O   UNK     0      -6.224   3.421 -24.597  0.00  0.00    -0.390 OA
HETATM   17  H   UNK     0      -6.536   3.901 -23.812  0.00  0.00     0.210 HD
ENDBRANCH  12  16
BRANCH  14  18
HETATM   18  O   UNK     0      -3.649   4.583 -25.001  0.00  0.00    -0.390 OA
HETATM   19  H   UNK     0      -2.698   4.724 -25.154  0.00  0.00     0.210 HD
ENDBRANCH  14  18
BRANCH  15  20
HETATM   20  O   UNK     0      -2.076   2.664 -23.739  0.00  0.00    -0.388 OA
HETATM   21  H   UNK     0      -2.510   2.099 -23.078  0.00  0.00     0.210 HD
ENDBRANCH  15  20
ENDBRANCH   8   9
ENDBRANCH   7   8
ENDBRANCH   2   7
BRANCH   6  22
HETATM   22  O   UNK     0       1.811  -0.975 -24.872  0.00  0.00    -0.311 OA
BRANCH  22  23
HETATM   23  C   UNK     0       1.763  -0.359 -23.640  0.00  0.00     0.157 A 
HETATM   24  C   UNK     0       1.184  -0.917 -22.562  0.00  0.00     0.124 A 
HETATM   25  O   UNK     0       1.091  -0.312 -21.318  0.00  0.00    -0.306 OA
HETATM   26  C   UNK     0       1.639   0.934 -21.154  0.00  0.00     0.096 A 
HETATM   27  C   UNK     0       2.276   1.620 -22.185  0.00  0.00     0.084 A 
HETATM   28  C   UNK     0       1.538   1.513 -19.888  0.00  0.00     0.075 A 
HETATM   29  C   UNK     0       2.366   0.989 -23.511  0.00  0.00     0.223 A 
HETATM   30  C   UNK     0       2.816   2.890 -21.960  0.00  0.00     0.085 A 
HETATM   31  O   UNK     0       2.909   1.546 -24.456  0.00  0.00    -0.284 OA
HETATM   32  C   UNK     0       2.713   3.466 -20.693  0.00  0.00     0.074 A 
HETATM   33  C   UNK     0       2.076   2.779 -19.660  0.00  0.00     0.071 A 
BRANCH  24  34
HETATM   34  C   UNK     0       0.555  -2.249 -22.601  0.00  0.00     0.004 A 
HETATM   35  C   UNK     0      -0.796  -2.374 -22.926  0.00  0.00     0.053 A 
HETATM   36  C   UNK     0      -1.391  -3.634 -22.964  0.00  0.00     0.099 A 
HETATM   37  C   UNK     0      -0.636  -4.771 -22.676  0.00  0.00     0.098 A 
HETATM   38  C   UNK     0       0.714  -4.647 -22.351  0.00  0.00     0.040 A 
HETATM   39  C   UNK     0       1.310  -3.387 -22.313  0.00  0.00     0.017 A 
BRANCH  36  40
HETATM   40  O   UNK     0      -2.712  -3.743 -23.281  0.00  0.00    -0.358 OA
HETATM   41  H   UNK     0      -3.099  -4.501 -22.814  0.00  0.00     0.217 HD
ENDBRANCH  36  40
BRANCH  37  42
HETATM   42  O   UNK     0      -1.206  -6.008 -22.711  0.00  0.00    -0.358 OA
HETATM   43  H   UNK     0      -0.590  -6.663 -22.349  0.00  0.00     0.217 HD
ENDBRANCH  37  42
ENDBRANCH  24  34
BRANCH  30  44
HETATM   44  O   UNK     0       3.447   3.603 -22.933  0.00  0.00    -0.360 OA
HETATM   45  H   UNK     0       3.469   3.082 -23.755  0.00  0.00     0.217 HD
ENDBRANCH  30  44
BRANCH  33  46
HETATM   46  O   UNK     0       1.979   3.346 -18.426  0.00  0.00    -0.361 OA
HETATM   47  H   UNK     0       2.631   4.064 -18.355  0.00  0.00     0.217 HD
ENDBRANCH  33  46
ENDBRANCH  22  23
ENDBRANCH   6  22
BRANCH   3  48
HETATM   48  O   UNK     0      -1.107   0.643 -29.265  0.00  0.00    -0.390 OA
HETATM   49  H   UNK     0      -1.237   0.118 -30.073  0.00  0.00     0.210 HD
ENDBRANCH   3  48
BRANCH   5  50
HETATM   50  O   UNK     0       3.131   0.252 -27.055  0.00  0.00    -0.388 OA
HETATM   51  H   UNK     0       3.700  -0.070 -27.774  0.00  0.00     0.210 HD
ENDBRANCH   5  50
BRANCH   4  52
HETATM   52  O   UNK     0       1.661  -0.127 -29.581  0.00  0.00    -0.390 OA
HETATM   53  H   UNK     0       2.620   0.019 -29.519  0.00  0.00     0.210 HD
ENDBRANCH   4  52
TORSDOF 16
