REMARK VINA RESULT:      -6.7      2.918      8.349
REMARK  16 active torsions:
REMARK  status: ('A' for Active; 'I' for Inactive)
REMARK    1  A    between atoms: O_2  and  C_22 
REMARK    2  A    between atoms: O_2  and  C_26 
REMARK    3  A    between atoms: O_4  and  C_18 
REMARK    4  A    between atoms: O_5  and  C_19 
REMARK    5  A    between atoms: O_6  and  C_25 
REMARK    6  A    between atoms: O_6  and  C_29 
REMARK    7  A    between atoms: O_7  and  C_20 
REMARK    8  A    between atoms: O_8  and  C_21 
REMARK    9  A    between atoms: O_9  and  C_23 
REMARK   10  A    between atoms: O_10  and  C_24 
REMARK   11  A    between atoms: O_13  and  C_35 
REMARK   12  A    between atoms: O_14  and  C_40 
REMARK   13  A    between atoms: O_15  and  C_41 
REMARK   14  A    between atoms: O_16  and  C_43 
REMARK   15  A    between atoms: C_17  and  C_26 
REMARK   16  A    between atoms: C_30  and  C_33 
ROOT
HETATM    1  O   UNK     0      -1.325   0.216 -25.771  0.00  0.00    -0.348 OA
HETATM    2  C   UNK     0      -0.003   0.205 -25.227  0.00  0.00     0.180 C 
HETATM    3  C   UNK     0       0.254  -1.122 -24.509  0.00  0.00     0.180 C 
HETATM    4  C   UNK     0      -0.804  -1.371 -23.434  0.00  0.00     0.183 C 
HETATM    5  C   UNK     0      -2.214  -1.176 -23.990  0.00  0.00     0.205 C 
HETATM    6  C   UNK     0      -2.330   0.138 -24.763  0.00  0.00     0.298 C 
ENDROOT
BRANCH   2   7
HETATM    7  C   UNK     0       0.970   0.421 -26.383  0.00  0.00     0.205 C 
BRANCH   7   8
HETATM    8  O   UNK     0       0.362  -0.020 -27.588  0.00  0.00    -0.356 OA
BRANCH   8   9
HETATM    9  C   UNK     0       0.963   0.587 -28.726  0.00  0.00     0.291 C 
HETATM   10  O   UNK     0       0.075   0.644 -29.847  0.00  0.00    -0.351 OA
HETATM   11  C   UNK     0      -0.309  -0.637 -30.357  0.00  0.00     0.152 C 
HETATM   12  C   UNK     0       0.919  -1.442 -30.806  0.00  0.00     0.178 C 
HETATM   13  C   UNK     0      -1.280  -0.387 -31.507  0.00  0.00     0.042 C 
HETATM   14  C   UNK     0       1.930  -1.540 -29.664  0.00  0.00     0.183 C 
HETATM   15  C   UNK     0       2.246  -0.157 -29.091  0.00  0.00     0.204 C 
BRANCH  12  16
HETATM   16  O   UNK     0       0.535  -2.765 -31.174  0.00  0.00    -0.390 OA
HETATM   17  H   UNK     0       1.134  -3.064 -31.879  0.00  0.00     0.210 HD
ENDBRANCH  12  16
BRANCH  14  18
HETATM   18  O   UNK     0       3.125  -2.151 -30.145  0.00  0.00    -0.390 OA
HETATM   19  H   UNK     0       3.377  -2.848 -29.515  0.00  0.00     0.210 HD
ENDBRANCH  14  18
BRANCH  15  20
HETATM   20  O   UNK     0       2.941   0.625 -30.064  0.00  0.00    -0.388 OA
HETATM   21  H   UNK     0       2.327   1.292 -30.417  0.00  0.00     0.210 HD
ENDBRANCH  15  20
ENDBRANCH   8   9
ENDBRANCH   7   8
ENDBRANCH   2   7
BRANCH   6  22
HETATM   22  O   UNK     0      -3.622   0.180 -25.368  0.00  0.00    -0.311 OA
BRANCH  22  23
HETATM   23  C   UNK     0      -4.357   1.255 -24.919  0.00  0.00     0.157 A 
HETATM   24  C   UNK     0      -4.141   2.517 -25.332  0.00  0.00     0.124 A 
HETATM   25  O   UNK     0      -4.840   3.624 -24.877  0.00  0.00    -0.306 OA
HETATM   26  C   UNK     0      -5.838   3.435 -23.956  0.00  0.00     0.096 A 
HETATM   27  C   UNK     0      -6.171   2.180 -23.451  0.00  0.00     0.084 A 
HETATM   28  C   UNK     0      -6.530   4.567 -23.525  0.00  0.00     0.075 A 
HETATM   29  C   UNK     0      -5.424   1.002 -23.920  0.00  0.00     0.223 A 
HETATM   30  C   UNK     0      -7.198   2.046 -22.512  0.00  0.00     0.085 A 
HETATM   31  O   UNK     0      -5.668  -0.124 -23.508  0.00  0.00    -0.284 OA
HETATM   32  C   UNK     0      -7.888   3.181 -22.082  0.00  0.00     0.074 A 
HETATM   33  C   UNK     0      -7.556   4.438 -22.588  0.00  0.00     0.071 A 
BRANCH  24  34
HETATM   34  C   UNK     0      -3.099   2.860 -26.316  0.00  0.00     0.004 A 
HETATM   35  C   UNK     0      -3.250   2.488 -27.652  0.00  0.00     0.053 A 
HETATM   36  C   UNK     0      -2.265   2.814 -28.583  0.00  0.00     0.099 A 
HETATM   37  C   UNK     0      -1.128   3.513 -28.180  0.00  0.00     0.098 A 
HETATM   38  C   UNK     0      -0.976   3.885 -26.844  0.00  0.00     0.040 A 
HETATM   39  C   UNK     0      -1.961   3.559 -25.913  0.00  0.00     0.017 A 
BRANCH  36  40
HETATM   40  O   UNK     0      -2.424   2.443 -29.885  0.00  0.00    -0.358 OA
HETATM   41  H   UNK     0      -2.095   1.538 -30.009  0.00  0.00     0.217 HD
ENDBRANCH  36  40
BRANCH  37  42
HETATM   42  O   UNK     0      -0.159   3.838 -29.080  0.00  0.00    -0.358 OA
HETATM   43  H   UNK     0       0.405   3.066 -29.248  0.00  0.00     0.217 HD
ENDBRANCH  37  42
ENDBRANCH  24  34
BRANCH  30  44
HETATM   44  O   UNK     0      -7.562   0.844 -21.987  0.00  0.00    -0.360 OA
HETATM   45  H   UNK     0      -8.532   0.781 -21.962  0.00  0.00     0.217 HD
ENDBRANCH  30  44
BRANCH  33  46
HETATM   46  O   UNK     0      -8.232   5.541 -22.166  0.00  0.00    -0.361 OA
HETATM   47  H   UNK     0      -9.187   5.375 -22.242  0.00  0.00     0.217 HD
ENDBRANCH  33  46
ENDBRANCH  22  23
ENDBRANCH   6  22
BRANCH   3  48
HETATM   48  O   UNK     0       1.543  -1.086 -23.902  0.00  0.00    -0.390 OA
HETATM   49  H   UNK     0       1.576  -0.316 -23.310  0.00  0.00     0.210 HD
ENDBRANCH   3  48
BRANCH   5  50
HETATM   50  O   UNK     0      -3.149  -1.146 -22.912  0.00  0.00    -0.388 OA
HETATM   51  H   UNK     0      -3.750  -1.902 -23.012  0.00  0.00     0.210 HD
ENDBRANCH   5  50
BRANCH   4  52
HETATM   52  O   UNK     0      -0.656  -2.716 -22.973  0.00  0.00    -0.390 OA
HETATM   53  H   UNK     0       0.204  -3.040 -23.291  0.00  0.00     0.210 HD
ENDBRANCH   4  52
TORSDOF 16
