REMARK VINA RESULT:      -6.9      3.492      9.489
REMARK  16 active torsions:
REMARK  status: ('A' for Active; 'I' for Inactive)
REMARK    1  A    between atoms: O_2  and  C_22 
REMARK    2  A    between atoms: O_2  and  C_26 
REMARK    3  A    between atoms: O_4  and  C_18 
REMARK    4  A    between atoms: O_5  and  C_19 
REMARK    5  A    between atoms: O_6  and  C_25 
REMARK    6  A    between atoms: O_6  and  C_29 
REMARK    7  A    between atoms: O_7  and  C_20 
REMARK    8  A    between atoms: O_8  and  C_21 
REMARK    9  A    between atoms: O_9  and  C_23 
REMARK   10  A    between atoms: O_10  and  C_24 
REMARK   11  A    between atoms: O_13  and  C_35 
REMARK   12  A    between atoms: O_14  and  C_40 
REMARK   13  A    between atoms: O_15  and  C_41 
REMARK   14  A    between atoms: O_16  and  C_43 
REMARK   15  A    between atoms: C_17  and  C_26 
REMARK   16  A    between atoms: C_30  and  C_33 
ROOT
HETATM    1  O   UNK     0      -3.089   2.917 -27.507  0.00  0.00    -0.348 OA
HETATM    2  C   UNK     0      -3.329   2.717 -28.902  0.00  0.00     0.180 C 
HETATM    3  C   UNK     0      -2.939   3.974 -29.683  0.00  0.00     0.180 C 
HETATM    4  C   UNK     0      -3.684   5.198 -29.149  0.00  0.00     0.183 C 
HETATM    5  C   UNK     0      -3.568   5.295 -27.627  0.00  0.00     0.205 C 
HETATM    6  C   UNK     0      -3.893   3.959 -26.959  0.00  0.00     0.298 C 
ENDROOT
BRANCH   2   7
HETATM    7  C   UNK     0      -2.512   1.504 -29.338  0.00  0.00     0.205 C 
BRANCH   7   8
HETATM    8  O   UNK     0      -3.222   0.811 -30.354  0.00  0.00    -0.356 OA
BRANCH   8   9
HETATM    9  C   UNK     0      -2.352   0.383 -31.397  0.00  0.00     0.291 C 
HETATM   10  O   UNK     0      -2.451   1.208 -32.562  0.00  0.00    -0.351 OA
HETATM   11  C   UNK     0      -3.731   1.169 -33.202  0.00  0.00     0.152 C 
HETATM   12  C   UNK     0      -4.084  -0.259 -33.641  0.00  0.00     0.178 C 
HETATM   13  C   UNK     0      -3.668   2.131 -34.386  0.00  0.00     0.042 C 
HETATM   14  C   UNK     0      -3.990  -1.213 -32.450  0.00  0.00     0.183 C 
HETATM   15  C   UNK     0      -2.640  -1.077 -31.744  0.00  0.00     0.204 C 
BRANCH  12  16
HETATM   16  O   UNK     0      -5.418  -0.306 -34.143  0.00  0.00    -0.390 OA
HETATM   17  H   UNK     0      -5.721  -1.229 -34.099  0.00  0.00     0.210 HD
ENDBRANCH  12  16
BRANCH  14  18
HETATM   18  O   UNK     0      -4.166  -2.553 -32.906  0.00  0.00    -0.390 OA
HETATM   19  H   UNK     0      -3.316  -2.856 -33.271  0.00  0.00     0.210 HD
ENDBRANCH  14  18
BRANCH  15  20
HETATM   20  O   UNK     0      -1.593  -1.535 -32.601  0.00  0.00    -0.388 OA
HETATM   21  H   UNK     0      -1.753  -2.472 -32.806  0.00  0.00     0.210 HD
ENDBRANCH  15  20
ENDBRANCH   8   9
ENDBRANCH   7   8
ENDBRANCH   2   7
BRANCH   6  22
HETATM   22  O   UNK     0      -3.625   4.089 -25.563  0.00  0.00    -0.311 OA
BRANCH  22  23
HETATM   23  C   UNK     0      -4.518   3.364 -24.806  0.00  0.00     0.157 A 
HETATM   24  C   UNK     0      -4.310   2.084 -24.449  0.00  0.00     0.124 A 
HETATM   25  O   UNK     0      -5.202   1.316 -23.716  0.00  0.00    -0.306 OA
HETATM   26  C   UNK     0      -6.374   1.894 -23.301  0.00  0.00     0.096 A 
HETATM   27  C   UNK     0      -6.711   3.213 -23.594  0.00  0.00     0.084 A 
HETATM   28  C   UNK     0      -7.247   1.099 -22.557  0.00  0.00     0.075 A 
HETATM   29  C   UNK     0      -5.775   4.029 -24.383  0.00  0.00     0.223 A 
HETATM   30  C   UNK     0      -7.922   3.749 -23.145  0.00  0.00     0.085 A 
HETATM   31  O   UNK     0      -6.019   5.192 -24.675  0.00  0.00    -0.284 OA
HETATM   32  C   UNK     0      -8.793   2.952 -22.401  0.00  0.00     0.074 A 
HETATM   33  C   UNK     0      -8.456   1.631 -22.107  0.00  0.00     0.071 A 
BRANCH  24  34
HETATM   34  C   UNK     0      -3.094   1.344 -24.831  0.00  0.00     0.004 A 
HETATM   35  C   UNK     0      -1.844   1.782 -24.394  0.00  0.00     0.053 A 
HETATM   36  C   UNK     0      -0.694   1.081 -24.753  0.00  0.00     0.099 A 
HETATM   37  C   UNK     0      -0.792  -0.059 -25.551  0.00  0.00     0.098 A 
HETATM   38  C   UNK     0      -2.042  -0.498 -25.988  0.00  0.00     0.040 A 
HETATM   39  C   UNK     0      -3.193   0.203 -25.628  0.00  0.00     0.017 A 
BRANCH  36  40
HETATM   40  O   UNK     0       0.522   1.520 -24.322  0.00  0.00    -0.358 OA
HETATM   41  H   UNK     0       1.225   1.095 -24.839  0.00  0.00     0.217 HD
ENDBRANCH  36  40
BRANCH  37  42
HETATM   42  O   UNK     0       0.324  -0.753 -25.908  0.00  0.00    -0.358 OA
HETATM   43  H   UNK     0       0.929  -0.812 -25.152  0.00  0.00     0.217 HD
ENDBRANCH  37  42
ENDBRANCH  24  34
BRANCH  30  44
HETATM   44  O   UNK     0      -8.298   5.031 -23.404  0.00  0.00    -0.360 OA
HETATM   45  H   UNK     0      -7.951   5.303 -24.271  0.00  0.00     0.217 HD
ENDBRANCH  30  44
BRANCH  33  46
HETATM   46  O   UNK     0      -9.309   0.857 -21.381  0.00  0.00    -0.361 OA
HETATM   47  H   UNK     0      -9.162  -0.076 -21.611  0.00  0.00     0.217 HD
ENDBRANCH  33  46
ENDBRANCH  22  23
ENDBRANCH   6  22
BRANCH   3  48
HETATM   48  O   UNK     0      -3.261   3.791 -31.060  0.00  0.00    -0.390 OA
HETATM   49  H   UNK     0      -4.043   4.333 -31.260  0.00  0.00     0.210 HD
ENDBRANCH   3  48
BRANCH   5  50
HETATM   50  O   UNK     0      -4.489   6.273 -27.144  0.00  0.00    -0.388 OA
HETATM   51  H   UNK     0      -4.795   6.799 -27.901  0.00  0.00     0.210 HD
ENDBRANCH   5  50
BRANCH   4  52
HETATM   52  O   UNK     0      -3.107   6.361 -29.745  0.00  0.00    -0.390 OA
HETATM   53  H   UNK     0      -2.225   6.482 -29.353  0.00  0.00     0.210 HD
ENDBRANCH   4  52
TORSDOF 16
