MODEL 1
REMARK VINA RESULT:      -8.4      0.000      0.000
REMARK  12 active torsions:
REMARK  status: ('A' for Active; 'I' for Inactive)
REMARK    1  A    between atoms: O_1  and  C_10 
REMARK    2  A    between atoms: O_2  and  C_17 
REMARK    3  A    between atoms: O_3  and  C_20 
REMARK    4  A    between atoms: O_4  and  C_27 
REMARK    5  A    between atoms: O_6  and  C_29 
REMARK    6  A    between atoms: O_7  and  C_28 
REMARK    7  A    between atoms: O_8  and  C_33 
REMARK    8  A    between atoms: C_11  and  C_20 
REMARK    9  A    between atoms: C_20  and  C_28 
REMARK   10  A    between atoms: C_28  and  C_31 
REMARK   11  A    between atoms: C_31  and  C_32 
REMARK   12  A    between atoms: C_32  and  C_33 
ROOT
HETATM    1  O   UNK     0      22.167  26.947  71.795  0.00  0.00    -0.384 OA
HETATM    2  H   UNK     0      22.311  26.815  72.743  0.00  0.00     0.211 HD
ENDROOT
BRANCH   1   3
HETATM    3  C   UNK     0      21.786  28.312  71.508  0.00  0.00     0.090 C 
HETATM    4  C   UNK     0      20.250  28.392  71.311  0.00  0.00    -0.000 C 
HETATM    5  C   UNK     0      20.075  27.517  70.042  0.00  0.00     0.034 C 
HETATM    6  C   UNK     0      19.566  27.823  72.562  0.00  0.00     0.045 C 
HETATM    7  C   UNK     0      19.745  29.840  71.056  0.00  0.00     0.019 C 
HETATM    8  C   UNK     0      21.286  27.901  69.161  0.00  0.00     0.012 C 
HETATM    9  C   UNK     0      22.307  28.592  70.091  0.00  0.00     0.044 C 
HETATM   10  C   UNK     0      19.988  28.588  73.833  0.00  0.00     0.128 C 
HETATM   11  C   UNK     0      21.543  28.717  74.033  0.00  0.00     0.055 C 
HETATM   12  C   UNK     0      21.961  29.621  75.275  0.00  0.00    -0.021 C 
HETATM   13  C   UNK     0      22.225  29.124  72.709  0.00  0.00    -0.034 C 
HETATM   14  C   UNK     0      23.450  30.056  75.150  0.00  0.00     0.071 C 
HETATM   15  C   UNK     0      21.744  28.863  76.637  0.00  0.00     0.045 C 
HETATM   16  C   UNK     0      21.099  30.914  75.326  0.00  0.00     0.017 C 
HETATM   17  C   UNK     0      24.482  28.933  75.354  0.00  0.00     0.047 C 
HETATM   18  C   UNK     0      23.713  30.720  73.814  0.00  0.00     0.154 C 
HETATM   19  C   UNK     0      24.016  27.836  76.306  0.00  0.00     0.147 C 
HETATM   20  C   UNK     0      23.015  28.357  77.327  0.00  0.00     0.147 C 
HETATM   21  O   UNK     0      24.427  31.716  73.710  0.00  0.00    -0.293 OA
HETATM   22  C   UNK     0      23.163  30.076  72.605  0.00  0.00     0.057 C 
BRANCH   5  23
HETATM   23  C   UNK     0      18.747  27.640  69.308  0.00  0.00     0.084 C 
HETATM   24  C   UNK     0      17.605  27.815  70.322  0.00  0.00     0.049 C 
BRANCH  23  25
HETATM   25  O   UNK     0      18.785  28.823  68.498  0.00  0.00    -0.387 OA
HETATM   26  H   UNK     0      18.592  29.594  69.057  0.00  0.00     0.210 HD
ENDBRANCH  23  25
BRANCH  23  27
HETATM   27  C   UNK     0      18.475  26.426  68.379  0.00  0.00     0.152 C 
BRANCH  27  28
HETATM   28  O   UNK     0      17.651  26.836  67.282  0.00  0.00    -0.393 OA
HETATM   29  H   UNK     0      17.325  26.031  66.846  0.00  0.00     0.210 HD
ENDBRANCH  27  28
BRANCH  27  30
HETATM   30  C   UNK     0      17.793  25.235  69.078  0.00  0.00     0.037 C 
BRANCH  30  31
HETATM   31  C   UNK     0      18.815  24.203  69.589  0.00  0.00     0.040 C 
BRANCH  31  32
HETATM   32  C   UNK     0      18.640  23.809  71.071  0.00  0.00     0.051 C 
HETATM   33  C   UNK     0      19.843  24.308  71.880  0.00  0.00     0.045 C 
HETATM   34  C   UNK     0      17.344  24.355  71.675  0.00  0.00     0.045 C 
BRANCH  32  35
HETATM   35  O   UNK     0      18.614  22.383  71.158  0.00  0.00    -0.391 OA
HETATM   36  H   UNK     0      17.790  22.114  71.596  0.00  0.00     0.210 HD
ENDBRANCH  32  35
ENDBRANCH  31  32
ENDBRANCH  30  31
ENDBRANCH  27  30
ENDBRANCH  23  27
ENDBRANCH   5  23
BRANCH  10  37
HETATM   37  O   UNK     0      19.394  27.920  74.942  0.00  0.00    -0.395 OA
HETATM   38  H   UNK     0      18.441  28.112  74.928  0.00  0.00     0.210 HD
ENDBRANCH  10  37
BRANCH  19  39
HETATM   39  O   UNK     0      25.154  27.284  76.961  0.00  0.00    -0.393 OA
HETATM   40  H   UNK     0      25.181  27.630  77.869  0.00  0.00     0.210 HD
ENDBRANCH  19  39
BRANCH  20  41
HETATM   41  O   UNK     0      23.589  29.423  78.086  0.00  0.00    -0.393 OA
HETATM   42  H   UNK     0      22.878  30.055  78.290  0.00  0.00     0.210 HD
ENDBRANCH  20  41
ENDBRANCH   1   3
TORSDOF 12
ENDMDL
MODEL 2
REMARK VINA RESULT:      -8.3      3.677      6.351
REMARK  12 active torsions:
REMARK  status: ('A' for Active; 'I' for Inactive)
REMARK    1  A    between atoms: O_1  and  C_10 
REMARK    2  A    between atoms: O_2  and  C_17 
REMARK    3  A    between atoms: O_3  and  C_20 
REMARK    4  A    between atoms: O_4  and  C_27 
REMARK    5  A    between atoms: O_6  and  C_29 
REMARK    6  A    between atoms: O_7  and  C_28 
REMARK    7  A    between atoms: O_8  and  C_33 
REMARK    8  A    between atoms: C_11  and  C_20 
REMARK    9  A    between atoms: C_20  and  C_28 
REMARK   10  A    between atoms: C_28  and  C_31 
REMARK   11  A    between atoms: C_31  and  C_32 
REMARK   12  A    between atoms: C_32  and  C_33 
ROOT
HETATM    1  O   UNK     0      15.787  28.958  75.148  0.00  0.00    -0.384 OA
HETATM    2  H   UNK     0      15.264  28.203  75.453  0.00  0.00     0.211 HD
ENDROOT
BRANCH   1   3
HETATM    3  C   UNK     0      17.170  28.588  74.946  0.00  0.00     0.090 C 
HETATM    4  C   UNK     0      17.245  27.328  74.045  0.00  0.00    -0.000 C 
HETATM    5  C   UNK     0      16.546  26.282  74.953  0.00  0.00     0.034 C 
HETATM    6  C   UNK     0      16.498  27.618  72.736  0.00  0.00     0.045 C 
HETATM    7  C   UNK     0      18.703  26.895  73.727  0.00  0.00     0.019 C 
HETATM    8  C   UNK     0      17.070  26.615  76.369  0.00  0.00     0.012 C 
HETATM    9  C   UNK     0      17.649  28.046  76.300  0.00  0.00     0.044 C 
HETATM   10  C   UNK     0      17.093  28.839  72.005  0.00  0.00     0.128 C 
HETATM   11  C   UNK     0      17.225  30.131  72.893  0.00  0.00     0.055 C 
HETATM   12  C   UNK     0      17.962  31.341  72.165  0.00  0.00    -0.021 C 
HETATM   13  C   UNK     0      17.821  29.779  74.273  0.00  0.00    -0.034 C 
HETATM   14  C   UNK     0      18.440  32.390  73.210  0.00  0.00     0.071 C 
HETATM   15  C   UNK     0      17.023  32.036  71.110  0.00  0.00     0.045 C 
HETATM   16  C   UNK     0      19.218  30.837  71.400  0.00  0.00     0.017 C 
HETATM   17  C   UNK     0      17.320  33.203  73.884  0.00  0.00     0.047 C 
HETATM   18  C   UNK     0      19.283  31.740  74.288  0.00  0.00     0.154 C 
HETATM   19  C   UNK     0      16.095  33.413  73.000  0.00  0.00     0.147 C 
HETATM   20  C   UNK     0      16.453  33.398  71.520  0.00  0.00     0.147 C 
HETATM   21  O   UNK     0      20.298  32.273  74.732  0.00  0.00    -0.293 OA
HETATM   22  C   UNK     0      18.797  30.475  74.872  0.00  0.00     0.057 C 
BRANCH   5  23
HETATM   23  C   UNK     0      16.741  24.819  74.580  0.00  0.00     0.084 C 
HETATM   24  C   UNK     0      18.111  24.331  75.077  0.00  0.00     0.049 C 
BRANCH  23  25
HETATM   25  O   UNK     0      15.740  24.043  75.253  0.00  0.00    -0.387 OA
HETATM   26  H   UNK     0      15.274  24.612  75.888  0.00  0.00     0.210 HD
ENDBRANCH  23  25
BRANCH  23  27
HETATM   27  C   UNK     0      16.594  24.577  73.053  0.00  0.00     0.152 C 
BRANCH  27  28
HETATM   28  O   UNK     0      15.379  23.867  72.794  0.00  0.00    -0.393 OA
HETATM   29  H   UNK     0      14.910  24.341  72.086  0.00  0.00     0.210 HD
ENDBRANCH  27  28
BRANCH  27  30
HETATM   30  C   UNK     0      17.759  23.791  72.422  0.00  0.00     0.037 C 
BRANCH  30  31
HETATM   31  C   UNK     0      17.645  23.721  70.888  0.00  0.00     0.040 C 
BRANCH  31  32
HETATM   32  C   UNK     0      18.804  24.401  70.128  0.00  0.00     0.051 C 
HETATM   33  C   UNK     0      18.272  25.614  69.358  0.00  0.00     0.045 C 
HETATM   34  C   UNK     0      19.941  24.832  71.058  0.00  0.00     0.045 C 
BRANCH  32  35
HETATM   35  O   UNK     0      19.326  23.471  69.178  0.00  0.00    -0.391 OA
HETATM   36  H   UNK     0      18.923  23.652  68.312  0.00  0.00     0.210 HD
ENDBRANCH  32  35
ENDBRANCH  31  32
ENDBRANCH  30  31
ENDBRANCH  27  30
ENDBRANCH  23  27
ENDBRANCH   5  23
BRANCH  10  37
HETATM   37  O   UNK     0      16.269  29.092  70.871  0.00  0.00    -0.395 OA
HETATM   38  H   UNK     0      16.160  30.055  70.794  0.00  0.00     0.210 HD
ENDBRANCH  10  37
BRANCH  19  39
HETATM   39  O   UNK     0      15.483  34.650  73.351  0.00  0.00    -0.393 OA
HETATM   40  H   UNK     0      15.110  34.564  74.244  0.00  0.00     0.210 HD
ENDBRANCH  19  39
BRANCH  20  41
HETATM   41  O   UNK     0      17.419  34.411  71.232  0.00  0.00    -0.393 OA
HETATM   42  H   UNK     0      17.083  34.933  70.485  0.00  0.00     0.210 HD
ENDBRANCH  20  41
ENDBRANCH   1   3
TORSDOF 12
ENDMDL
MODEL 3
REMARK VINA RESULT:      -8.2      2.160      8.244
REMARK  12 active torsions:
REMARK  status: ('A' for Active; 'I' for Inactive)
REMARK    1  A    between atoms: O_1  and  C_10 
REMARK    2  A    between atoms: O_2  and  C_17 
REMARK    3  A    between atoms: O_3  and  C_20 
REMARK    4  A    between atoms: O_4  and  C_27 
REMARK    5  A    between atoms: O_6  and  C_29 
REMARK    6  A    between atoms: O_7  and  C_28 
REMARK    7  A    between atoms: O_8  and  C_33 
REMARK    8  A    between atoms: C_11  and  C_20 
REMARK    9  A    between atoms: C_20  and  C_28 
REMARK   10  A    between atoms: C_28  and  C_31 
REMARK   11  A    between atoms: C_31  and  C_32 
REMARK   12  A    between atoms: C_32  and  C_33 
ROOT
HETATM    1  O   UNK     0      19.650  26.009  75.283  0.00  0.00    -0.384 OA
HETATM    2  H   UNK     0      19.451  25.276  75.883  0.00  0.00     0.211 HD
ENDROOT
BRANCH   1   3
HETATM    3  C   UNK     0      18.580  26.981  75.272  0.00  0.00     0.090 C 
HETATM    4  C   UNK     0      19.176  28.412  75.296  0.00  0.00    -0.000 C 
HETATM    5  C   UNK     0      19.874  28.411  76.681  0.00  0.00     0.034 C 
HETATM    6  C   UNK     0      20.140  28.560  74.111  0.00  0.00     0.045 C 
HETATM    7  C   UNK     0      18.092  29.524  75.226  0.00  0.00     0.019 C 
HETATM    8  C   UNK     0      18.882  27.652  77.593  0.00  0.00     0.012 C 
HETATM    9  C   UNK     0      17.924  26.882  76.657  0.00  0.00     0.044 C 
HETATM   10  C   UNK     0      19.428  28.295  72.768  0.00  0.00     0.128 C 
HETATM   11  C   UNK     0      18.638  26.935  72.705  0.00  0.00     0.055 C 
HETATM   12  C   UNK     0      17.801  26.738  71.364  0.00  0.00    -0.021 C 
HETATM   13  C   UNK     0      17.810  26.732  73.991  0.00  0.00    -0.034 C 
HETATM   14  C   UNK     0      16.731  25.625  71.555  0.00  0.00     0.071 C 
HETATM   15  C   UNK     0      18.735  26.371  70.152  0.00  0.00     0.045 C 
HETATM   16  C   UNK     0      17.052  28.047  70.988  0.00  0.00     0.017 C 
HETATM   17  C   UNK     0      17.285  24.193  71.667  0.00  0.00     0.047 C 
HETATM   18  C   UNK     0      15.862  25.905  72.764  0.00  0.00     0.154 C 
HETATM   19  C   UNK     0      18.581  23.973  70.894  0.00  0.00     0.147 C 
HETATM   20  C   UNK     0      18.695  24.909  69.698  0.00  0.00     0.147 C 
HETATM   21  O   UNK     0      14.648  25.716  72.753  0.00  0.00    -0.293 OA
HETATM   22  C   UNK     0      16.532  26.326  74.010  0.00  0.00     0.057 C 
BRANCH   5  23
HETATM   23  C   UNK     0      20.274  29.768  77.243  0.00  0.00     0.084 C 
HETATM   24  C   UNK     0      20.953  30.607  76.148  0.00  0.00     0.049 C 
BRANCH  23  25
HETATM   25  O   UNK     0      19.084  30.463  77.639  0.00  0.00    -0.387 OA
HETATM   26  H   UNK     0      19.137  31.381  77.327  0.00  0.00     0.210 HD
ENDBRANCH  23  25
BRANCH  23  27
HETATM   27  C   UNK     0      21.196  29.641  78.486  0.00  0.00     0.152 C 
BRANCH  27  28
HETATM   28  O   UNK     0      21.882  30.878  78.703  0.00  0.00    -0.393 OA
HETATM   29  H   UNK     0      21.314  31.590  78.363  0.00  0.00     0.210 HD
ENDBRANCH  27  28
BRANCH  27  30
HETATM   30  C   UNK     0      22.245  28.517  78.383  0.00  0.00     0.037 C 
BRANCH  30  31
HETATM   31  C   UNK     0      23.619  29.048  77.934  0.00  0.00     0.040 C 
BRANCH  31  32
HETATM   32  C   UNK     0      24.260  28.263  76.771  0.00  0.00     0.051 C 
HETATM   33  C   UNK     0      23.206  27.365  76.114  0.00  0.00     0.045 C 
HETATM   34  C   UNK     0      24.890  29.181  75.720  0.00  0.00     0.045 C 
BRANCH  32  35
HETATM   35  O   UNK     0      25.282  27.420  77.306  0.00  0.00    -0.391 OA
HETATM   36  H   UNK     0      25.555  26.789  76.620  0.00  0.00     0.210 HD
ENDBRANCH  32  35
ENDBRANCH  31  32
ENDBRANCH  30  31
ENDBRANCH  27  30
ENDBRANCH  23  27
ENDBRANCH   5  23
BRANCH  10  37
HETATM   37  O   UNK     0      20.422  28.344  71.749  0.00  0.00    -0.395 OA
HETATM   38  H   UNK     0      20.620  27.430  71.483  0.00  0.00     0.210 HD
ENDBRANCH  10  37
BRANCH  19  39
HETATM   39  O   UNK     0      18.636  22.614  70.469  0.00  0.00    -0.393 OA
HETATM   40  H   UNK     0      18.201  22.066  71.144  0.00  0.00     0.210 HD
ENDBRANCH  19  39
BRANCH  20  41
HETATM   41  O   UNK     0      17.585  24.726  68.816  0.00  0.00    -0.393 OA
HETATM   42  H   UNK     0      16.781  24.979  69.299  0.00  0.00     0.210 HD
ENDBRANCH  20  41
ENDBRANCH   1   3
TORSDOF 12
ENDMDL
MODEL 4
REMARK VINA RESULT:      -8.1      3.193      5.854
REMARK  12 active torsions:
REMARK  status: ('A' for Active; 'I' for Inactive)
REMARK    1  A    between atoms: O_1  and  C_10 
REMARK    2  A    between atoms: O_2  and  C_17 
REMARK    3  A    between atoms: O_3  and  C_20 
REMARK    4  A    between atoms: O_4  and  C_27 
REMARK    5  A    between atoms: O_6  and  C_29 
REMARK    6  A    between atoms: O_7  and  C_28 
REMARK    7  A    between atoms: O_8  and  C_33 
REMARK    8  A    between atoms: C_11  and  C_20 
REMARK    9  A    between atoms: C_20  and  C_28 
REMARK   10  A    between atoms: C_28  and  C_31 
REMARK   11  A    between atoms: C_31  and  C_32 
REMARK   12  A    between atoms: C_32  and  C_33 
ROOT
HETATM    1  O   UNK     0      21.366  29.927  77.124  0.00  0.00    -0.384 OA
HETATM    2  H   UNK     0      22.194  30.391  76.932  0.00  0.00     0.211 HD
ENDROOT
BRANCH   1   3
HETATM    3  C   UNK     0      21.493  28.508  76.880  0.00  0.00     0.090 C 
HETATM    4  C   UNK     0      20.126  27.935  76.425  0.00  0.00    -0.000 C 
HETATM    5  C   UNK     0      19.273  28.177  77.698  0.00  0.00     0.034 C 
HETATM    6  C   UNK     0      19.650  28.720  75.196  0.00  0.00     0.045 C 
HETATM    7  C   UNK     0      20.186  26.420  76.083  0.00  0.00     0.019 C 
HETATM    8  C   UNK     0      20.240  27.842  78.858  0.00  0.00     0.012 C 
HETATM    9  C   UNK     0      21.666  27.869  78.265  0.00  0.00     0.044 C 
HETATM   10  C   UNK     0      20.676  28.644  74.046  0.00  0.00     0.128 C 
HETATM   11  C   UNK     0      22.144  29.039  74.452  0.00  0.00     0.055 C 
HETATM   12  C   UNK     0      23.213  28.829  73.291  0.00  0.00    -0.021 C 
HETATM   13  C   UNK     0      22.533  28.369  75.787  0.00  0.00    -0.034 C 
HETATM   14  C   UNK     0      24.653  28.812  73.880  0.00  0.00     0.071 C 
HETATM   15  C   UNK     0      23.102  29.953  72.196  0.00  0.00     0.045 C 
HETATM   16  C   UNK     0      22.984  27.467  72.576  0.00  0.00     0.017 C 
HETATM   17  C   UNK     0      25.168  30.169  74.393  0.00  0.00     0.047 C 
HETATM   18  C   UNK     0      24.775  27.794  74.994  0.00  0.00     0.154 C 
HETATM   19  C   UNK     0      24.591  31.368  73.648  0.00  0.00     0.147 C 
HETATM   20  C   UNK     0      24.206  31.016  72.218  0.00  0.00     0.147 C 
HETATM   21  O   UNK     0      25.764  27.075  75.116  0.00  0.00    -0.293 OA
HETATM   22  C   UNK     0      23.702  27.751  76.007  0.00  0.00     0.057 C 
BRANCH   5  23
HETATM   23  C   UNK     0      17.956  27.420  77.790  0.00  0.00     0.084 C 
HETATM   24  C   UNK     0      18.187  26.047  78.442  0.00  0.00     0.049 C 
BRANCH  23  25
HETATM   25  O   UNK     0      17.069  28.156  78.643  0.00  0.00    -0.387 OA
HETATM   26  H   UNK     0      17.555  28.436  79.436  0.00  0.00     0.210 HD
ENDBRANCH  23  25
BRANCH  23  27
HETATM   27  C   UNK     0      17.273  27.261  76.404  0.00  0.00     0.152 C 
BRANCH  27  28
HETATM   28  O   UNK     0      16.287  28.285  76.234  0.00  0.00    -0.393 OA
HETATM   29  H   UNK     0      16.357  28.606  75.319  0.00  0.00     0.210 HD
ENDBRANCH  27  28
BRANCH  27  30
HETATM   30  C   UNK     0      16.594  25.895  76.187  0.00  0.00     0.037 C 
BRANCH  30  31
HETATM   31  C   UNK     0      16.882  25.323  74.787  0.00  0.00     0.040 C 
BRANCH  31  32
HETATM   32  C   UNK     0      15.710  25.447  73.790  0.00  0.00     0.051 C 
HETATM   33  C   UNK     0      15.964  26.624  72.843  0.00  0.00     0.045 C 
HETATM   34  C   UNK     0      15.490  24.165  72.982  0.00  0.00     0.045 C 
BRANCH  32  35
HETATM   35  O   UNK     0      14.519  25.725  74.528  0.00  0.00    -0.391 OA
HETATM   36  H   UNK     0      14.768  26.077  75.399  0.00  0.00     0.210 HD
ENDBRANCH  32  35
ENDBRANCH  31  32
ENDBRANCH  30  31
ENDBRANCH  27  30
ENDBRANCH  23  27
ENDBRANCH   5  23
BRANCH  10  37
HETATM   37  O   UNK     0      20.200  29.489  73.002  0.00  0.00    -0.395 OA
HETATM   38  H   UNK     0      20.324  30.410  73.287  0.00  0.00     0.210 HD
ENDBRANCH  10  37
BRANCH  19  39
HETATM   39  O   UNK     0      25.551  32.420  73.660  0.00  0.00    -0.393 OA
HETATM   40  H   UNK     0      25.657  32.726  74.576  0.00  0.00     0.210 HD
ENDBRANCH  19  39
BRANCH  20  41
HETATM   41  O   UNK     0      25.341  30.522  71.504  0.00  0.00    -0.393 OA
HETATM   42  H   UNK     0      26.135  30.900  71.918  0.00  0.00     0.210 HD
ENDBRANCH  20  41
ENDBRANCH   1   3
TORSDOF 12
ENDMDL
MODEL 5
REMARK VINA RESULT:      -8.1      3.145      6.280
REMARK  12 active torsions:
REMARK  status: ('A' for Active; 'I' for Inactive)
REMARK    1  A    between atoms: O_1  and  C_10 
REMARK    2  A    between atoms: O_2  and  C_17 
REMARK    3  A    between atoms: O_3  and  C_20 
REMARK    4  A    between atoms: O_4  and  C_27 
REMARK    5  A    between atoms: O_6  and  C_29 
REMARK    6  A    between atoms: O_7  and  C_28 
REMARK    7  A    between atoms: O_8  and  C_33 
REMARK    8  A    between atoms: C_11  and  C_20 
REMARK    9  A    between atoms: C_20  and  C_28 
REMARK   10  A    between atoms: C_28  and  C_31 
REMARK   11  A    between atoms: C_31  and  C_32 
REMARK   12  A    between atoms: C_32  and  C_33 
ROOT
HETATM    1  O   UNK     0      18.705  27.025  72.086  0.00  0.00    -0.384 OA
HETATM    2  H   UNK     0      18.368  27.224  71.200  0.00  0.00     0.211 HD
ENDROOT
BRANCH   1   3
HETATM    3  C   UNK     0      19.027  25.622  72.220  0.00  0.00     0.090 C 
HETATM    4  C   UNK     0      20.560  25.425  72.093  0.00  0.00    -0.000 C 
HETATM    5  C   UNK     0      20.789  25.882  70.628  0.00  0.00     0.034 C 
HETATM    6  C   UNK     0      21.254  26.308  73.139  0.00  0.00     0.045 C 
HETATM    7  C   UNK     0      21.001  23.948  72.285  0.00  0.00     0.019 C 
HETATM    8  C   UNK     0      19.572  25.306  69.868  0.00  0.00     0.012 C 
HETATM    9  C   UNK     0      18.510  24.960  70.934  0.00  0.00     0.044 C 
HETATM   10  C   UNK     0      20.783  25.967  74.568  0.00  0.00     0.128 C 
HETATM   11  C   UNK     0      19.221  25.965  74.758  0.00  0.00     0.055 C 
HETATM   12  C   UNK     0      18.748  25.482  76.200  0.00  0.00    -0.021 C 
HETATM   13  C   UNK     0      18.537  25.216  73.595  0.00  0.00    -0.034 C 
HETATM   14  C   UNK     0      17.242  25.090  76.171  0.00  0.00     0.071 C 
HETATM   15  C   UNK     0      18.983  26.597  77.286  0.00  0.00     0.045 C 
HETATM   16  C   UNK     0      19.550  24.228  76.648  0.00  0.00     0.017 C 
HETATM   17  C   UNK     0      16.261  26.265  76.012  0.00  0.00     0.047 C 
HETATM   18  C   UNK     0      16.965  24.075  75.081  0.00  0.00     0.154 C 
HETATM   19  C   UNK     0      16.765  27.573  76.612  0.00  0.00     0.147 C 
HETATM   20  C   UNK     0      17.729  27.334  77.766  0.00  0.00     0.147 C 
HETATM   21  O   UNK     0      16.208  23.122  75.255  0.00  0.00    -0.293 OA
HETATM   22  C   UNK     0      17.558  24.313  73.751  0.00  0.00     0.057 C 
BRANCH   5  23
HETATM   23  C   UNK     0      22.119  25.496  69.995  0.00  0.00     0.084 C 
HETATM   24  C   UNK     0      23.262  25.737  70.994  0.00  0.00     0.049 C 
BRANCH  23  25
HETATM   25  O   UNK     0      22.092  24.092  69.706  0.00  0.00    -0.387 OA
HETATM   26  H   UNK     0      21.170  23.814  69.577  0.00  0.00     0.210 HD
ENDBRANCH  23  25
BRANCH  23  27
HETATM   27  C   UNK     0      22.381  26.259  68.668  0.00  0.00     0.152 C 
BRANCH  27  28
HETATM   28  O   UNK     0      23.780  26.231  68.367  0.00  0.00    -0.393 OA
HETATM   29  H   UNK     0      24.232  26.770  69.038  0.00  0.00     0.210 HD
ENDBRANCH  27  28
BRANCH  27  30
HETATM   30  C   UNK     0      21.917  27.728  68.680  0.00  0.00     0.037 C 
BRANCH  30  31
HETATM   31  C   UNK     0      23.063  28.693  69.033  0.00  0.00     0.040 C 
BRANCH  31  32
HETATM   32  C   UNK     0      22.762  29.640  70.214  0.00  0.00     0.051 C 
HETATM   33  C   UNK     0      21.468  29.201  70.907  0.00  0.00     0.045 C 
HETATM   34  C   UNK     0      23.906  29.692  71.230  0.00  0.00     0.045 C 
BRANCH  32  35
HETATM   35  O   UNK     0      22.558  30.956  69.695  0.00  0.00    -0.391 OA
HETATM   36  H   UNK     0      23.425  31.370  69.551  0.00  0.00     0.210 HD
ENDBRANCH  32  35
ENDBRANCH  31  32
ENDBRANCH  30  31
ENDBRANCH  27  30
ENDBRANCH  23  27
ENDBRANCH   5  23
BRANCH  10  37
HETATM   37  O   UNK     0      21.394  26.907  75.447  0.00  0.00    -0.395 OA
HETATM   38  H   UNK     0      20.775  27.648  75.564  0.00  0.00     0.210 HD
ENDBRANCH  10  37
BRANCH  19  39
HETATM   39  O   UNK     0      15.646  28.337  77.050  0.00  0.00    -0.393 OA
HETATM   40  H   UNK     0      14.845  27.796  76.942  0.00  0.00     0.210 HD
ENDBRANCH  19  39
BRANCH  20  41
HETATM   41  O   UNK     0      17.098  26.561  78.789  0.00  0.00    -0.393 OA
HETATM   42  H   UNK     0      16.500  25.930  78.354  0.00  0.00     0.210 HD
ENDBRANCH  20  41
ENDBRANCH   1   3
TORSDOF 12
ENDMDL
MODEL 6
REMARK VINA RESULT:      -8.1      2.093      3.217
REMARK  12 active torsions:
REMARK  status: ('A' for Active; 'I' for Inactive)
REMARK    1  A    between atoms: O_1  and  C_10 
REMARK    2  A    between atoms: O_2  and  C_17 
REMARK    3  A    between atoms: O_3  and  C_20 
REMARK    4  A    between atoms: O_4  and  C_27 
REMARK    5  A    between atoms: O_6  and  C_29 
REMARK    6  A    between atoms: O_7  and  C_28 
REMARK    7  A    between atoms: O_8  and  C_33 
REMARK    8  A    between atoms: C_11  and  C_20 
REMARK    9  A    between atoms: C_20  and  C_28 
REMARK   10  A    between atoms: C_28  and  C_31 
REMARK   11  A    between atoms: C_31  and  C_32 
REMARK   12  A    between atoms: C_32  and  C_33 
ROOT
HETATM    1  O   UNK     0      22.808  26.302  70.053  0.00  0.00    -0.384 OA
HETATM    2  H   UNK     0      22.966  25.606  70.707  0.00  0.00     0.211 HD
ENDROOT
BRANCH   1   3
HETATM    3  C   UNK     0      21.662  27.107  70.413  0.00  0.00     0.090 C 
HETATM    4  C   UNK     0      20.560  26.200  71.019  0.00  0.00    -0.000 C 
HETATM    5  C   UNK     0      20.216  25.308  69.797  0.00  0.00     0.034 C 
HETATM    6  C   UNK     0      21.156  25.431  72.205  0.00  0.00     0.045 C 
HETATM    7  C   UNK     0      19.310  26.995  71.490  0.00  0.00     0.019 C 
HETATM    8  C   UNK     0      20.255  26.290  68.603  0.00  0.00     0.012 C 
HETATM    9  C   UNK     0      21.031  27.537  69.082  0.00  0.00     0.044 C 
HETATM   10  C   UNK     0      21.714  26.391  73.277  0.00  0.00     0.128 C 
HETATM   11  C   UNK     0      22.715  27.473  72.728  0.00  0.00     0.055 C 
HETATM   12  C   UNK     0      23.177  28.536  73.820  0.00  0.00    -0.021 C 
HETATM   13  C   UNK     0      22.165  28.109  71.433  0.00  0.00    -0.034 C 
HETATM   14  C   UNK     0      23.786  29.790  73.127  0.00  0.00     0.071 C 
HETATM   15  C   UNK     0      24.228  27.919  74.815  0.00  0.00     0.045 C 
HETATM   16  C   UNK     0      21.965  29.013  74.668  0.00  0.00     0.017 C 
HETATM   17  C   UNK     0      25.155  29.571  72.458  0.00  0.00     0.047 C 
HETATM   18  C   UNK     0      22.830  30.365  72.103  0.00  0.00     0.154 C 
HETATM   19  C   UNK     0      26.006  28.502  73.134  0.00  0.00     0.147 C 
HETATM   20  C   UNK     0      25.679  28.369  74.615  0.00  0.00     0.147 C 
HETATM   21  O   UNK     0      22.665  31.576  71.972  0.00  0.00    -0.293 OA
HETATM   22  C   UNK     0      22.162  29.425  71.181  0.00  0.00     0.057 C 
BRANCH   5  23
HETATM   23  C   UNK     0      18.915  24.521  69.873  0.00  0.00     0.084 C 
HETATM   24  C   UNK     0      17.784  25.316  69.200  0.00  0.00     0.049 C 
BRANCH  23  25
HETATM   25  O   UNK     0      19.079  23.303  69.136  0.00  0.00    -0.387 OA
HETATM   26  H   UNK     0      18.449  22.644  69.471  0.00  0.00     0.210 HD
ENDBRANCH  23  25
BRANCH  23  27
HETATM   27  C   UNK     0      18.535  24.155  71.333  0.00  0.00     0.152 C 
BRANCH  27  28
HETATM   28  O   UNK     0      18.817  22.772  71.571  0.00  0.00    -0.393 OA
HETATM   29  H   UNK     0      18.996  22.671  72.521  0.00  0.00     0.210 HD
ENDBRANCH  27  28
BRANCH  27  30
HETATM   30  C   UNK     0      17.057  24.415  71.687  0.00  0.00     0.037 C 
BRANCH  30  31
HETATM   31  C   UNK     0      16.892  24.948  73.121  0.00  0.00     0.040 C 
BRANCH  31  32
HETATM   32  C   UNK     0      16.545  23.870  74.169  0.00  0.00     0.051 C 
HETATM   33  C   UNK     0      17.767  23.602  75.054  0.00  0.00     0.045 C 
HETATM   34  C   UNK     0      15.347  24.261  75.039  0.00  0.00     0.045 C 
BRANCH  32  35
HETATM   35  O   UNK     0      16.227  22.659  73.481  0.00  0.00    -0.391 OA
HETATM   36  H   UNK     0      17.022  22.100  73.452  0.00  0.00     0.210 HD
ENDBRANCH  32  35
ENDBRANCH  31  32
ENDBRANCH  30  31
ENDBRANCH  27  30
ENDBRANCH  23  27
ENDBRANCH   5  23
BRANCH  10  37
HETATM   37  O   UNK     0      22.340  25.588  74.274  0.00  0.00    -0.395 OA
HETATM   38  H   UNK     0      22.647  24.771  73.847  0.00  0.00     0.210 HD
ENDBRANCH  10  37
BRANCH  19  39
HETATM   39  O   UNK     0      27.381  28.831  72.956  0.00  0.00    -0.393 OA
HETATM   40  H   UNK     0      27.547  29.688  73.384  0.00  0.00     0.210 HD
ENDBRANCH  19  39
BRANCH  20  41
HETATM   41  O   UNK     0      25.876  29.616  75.282  0.00  0.00    -0.393 OA
HETATM   42  H   UNK     0      26.245  30.241  74.635  0.00  0.00     0.210 HD
ENDBRANCH  20  41
ENDBRANCH   1   3
TORSDOF 12
ENDMDL
MODEL 7
REMARK VINA RESULT:      -8.0      2.588      6.954
REMARK  12 active torsions:
REMARK  status: ('A' for Active; 'I' for Inactive)
REMARK    1  A    between atoms: O_1  and  C_10 
REMARK    2  A    between atoms: O_2  and  C_17 
REMARK    3  A    between atoms: O_3  and  C_20 
REMARK    4  A    between atoms: O_4  and  C_27 
REMARK    5  A    between atoms: O_6  and  C_29 
REMARK    6  A    between atoms: O_7  and  C_28 
REMARK    7  A    between atoms: O_8  and  C_33 
REMARK    8  A    between atoms: C_11  and  C_20 
REMARK    9  A    between atoms: C_20  and  C_28 
REMARK   10  A    between atoms: C_28  and  C_31 
REMARK   11  A    between atoms: C_31  and  C_32 
REMARK   12  A    between atoms: C_32  and  C_33 
ROOT
HETATM    1  O   UNK     0      18.339  26.727  69.820  0.00  0.00    -0.384 OA
HETATM    2  H   UNK     0      17.818  26.085  69.317  0.00  0.00     0.211 HD
ENDROOT
BRANCH   1   3
HETATM    3  C   UNK     0      19.458  26.092  70.479  0.00  0.00     0.090 C 
HETATM    4  C   UNK     0      20.535  27.155  70.816  0.00  0.00    -0.000 C 
HETATM    5  C   UNK     0      20.950  27.608  69.392  0.00  0.00     0.034 C 
HETATM    6  C   UNK     0      19.884  28.260  71.659  0.00  0.00     0.045 C 
HETATM    7  C   UNK     0      21.752  26.565  71.582  0.00  0.00     0.019 C 
HETATM    8  C   UNK     0      20.964  26.294  68.577  0.00  0.00     0.012 C 
HETATM    9  C   UNK     0      20.154  25.261  69.391  0.00  0.00     0.044 C 
HETATM   10  C   UNK     0      19.264  27.692  72.952  0.00  0.00     0.128 C 
HETATM   11  C   UNK     0      18.283  26.482  72.730  0.00  0.00     0.055 C 
HETATM   12  C   UNK     0      17.756  25.823  74.080  0.00  0.00    -0.021 C 
HETATM   13  C   UNK     0      18.894  25.468  71.739  0.00  0.00    -0.034 C 
HETATM   14  C   UNK     0      17.173  24.408  73.799  0.00  0.00     0.071 C 
HETATM   15  C   UNK     0      16.660  26.719  74.768  0.00  0.00     0.045 C 
HETATM   16  C   UNK     0      18.918  25.656  75.099  0.00  0.00     0.017 C 
HETATM   17  C   UNK     0      15.843  24.387  73.024  0.00  0.00     0.047 C 
HETATM   18  C   UNK     0      18.176  23.542  73.065  0.00  0.00     0.154 C 
HETATM   19  C   UNK     0      14.967  25.610  73.274  0.00  0.00     0.147 C 
HETATM   20  C   UNK     0      15.217  26.217  74.648  0.00  0.00     0.147 C 
HETATM   21  O   UNK     0      18.337  22.355  73.340  0.00  0.00    -0.293 OA
HETATM   22  C   UNK     0      18.899  24.140  71.926  0.00  0.00     0.057 C 
BRANCH   5  23
HETATM   23  C   UNK     0      22.252  28.389  69.277  0.00  0.00     0.084 C 
HETATM   24  C   UNK     0      23.414  27.425  68.991  0.00  0.00     0.049 C 
BRANCH  23  25
HETATM   25  O   UNK     0      22.148  29.280  68.159  0.00  0.00    -0.387 OA
HETATM   26  H   UNK     0      22.230  28.767  67.339  0.00  0.00     0.210 HD
ENDBRANCH  23  25
BRANCH  23  27
HETATM   27  C   UNK     0      22.542  29.236  70.546  0.00  0.00     0.152 C 
BRANCH  27  28
HETATM   28  O   UNK     0      22.217  30.607  70.293  0.00  0.00    -0.393 OA
HETATM   29  H   UNK     0      21.531  30.620  69.604  0.00  0.00     0.210 HD
ENDBRANCH  27  28
BRANCH  27  30
HETATM   30  C   UNK     0      24.002  29.166  71.034  0.00  0.00     0.037 C 
BRANCH  30  31
HETATM   31  C   UNK     0      24.097  29.128  72.570  0.00  0.00     0.040 C 
BRANCH  31  32
HETATM   32  C   UNK     0      24.328  30.503  73.231  0.00  0.00     0.051 C 
HETATM   33  C   UNK     0      23.023  30.992  73.868  0.00  0.00     0.045 C 
HETATM   34  C   UNK     0      25.439  30.467  74.284  0.00  0.00     0.045 C 
BRANCH  32  35
HETATM   35  O   UNK     0      24.698  31.436  72.215  0.00  0.00    -0.391 OA
HETATM   36  H   UNK     0      25.400  32.011  72.561  0.00  0.00     0.210 HD
ENDBRANCH  32  35
ENDBRANCH  31  32
ENDBRANCH  30  31
ENDBRANCH  27  30
ENDBRANCH  23  27
ENDBRANCH   5  23
BRANCH  10  37
HETATM   37  O   UNK     0      18.593  28.767  73.604  0.00  0.00    -0.395 OA
HETATM   38  H   UNK     0      18.438  29.463  72.943  0.00  0.00     0.210 HD
ENDBRANCH  10  37
BRANCH  19  39
HETATM   39  O   UNK     0      13.600  25.229  73.141  0.00  0.00    -0.393 OA
HETATM   40  H   UNK     0      13.115  25.560  73.915  0.00  0.00     0.210 HD
ENDBRANCH  19  39
BRANCH  20  41
HETATM   41  O   UNK     0      14.976  25.249  75.671  0.00  0.00    -0.393 OA
HETATM   42  H   UNK     0      14.030  25.027  75.648  0.00  0.00     0.210 HD
ENDBRANCH  20  41
ENDBRANCH   1   3
TORSDOF 12
ENDMDL
MODEL 8
REMARK VINA RESULT:      -8.0      2.870      6.052
REMARK  12 active torsions:
REMARK  status: ('A' for Active; 'I' for Inactive)
REMARK    1  A    between atoms: O_1  and  C_10 
REMARK    2  A    between atoms: O_2  and  C_17 
REMARK    3  A    between atoms: O_3  and  C_20 
REMARK    4  A    between atoms: O_4  and  C_27 
REMARK    5  A    between atoms: O_6  and  C_29 
REMARK    6  A    between atoms: O_7  and  C_28 
REMARK    7  A    between atoms: O_8  and  C_33 
REMARK    8  A    between atoms: C_11  and  C_20 
REMARK    9  A    between atoms: C_20  and  C_28 
REMARK   10  A    between atoms: C_28  and  C_31 
REMARK   11  A    between atoms: C_31  and  C_32 
REMARK   12  A    between atoms: C_32  and  C_33 
ROOT
HETATM    1  O   UNK     0      20.373  29.894  74.219  0.00  0.00    -0.384 OA
HETATM    2  H   UNK     0      19.889  30.460  74.838  0.00  0.00     0.211 HD
ENDROOT
BRANCH   1   3
HETATM    3  C   UNK     0      21.008  28.792  74.906  0.00  0.00     0.090 C 
HETATM    4  C   UNK     0      19.930  27.782  75.376  0.00  0.00    -0.000 C 
HETATM    5  C   UNK     0      19.141  28.651  76.390  0.00  0.00     0.034 C 
HETATM    6  C   UNK     0      19.107  27.342  74.157  0.00  0.00     0.045 C 
HETATM    7  C   UNK     0      20.532  26.531  76.074  0.00  0.00     0.019 C 
HETATM    8  C   UNK     0      20.243  29.455  77.120  0.00  0.00     0.012 C 
HETATM    9  C   UNK     0      21.507  29.373  76.237  0.00  0.00     0.044 C 
HETATM   10  C   UNK     0      20.002  26.710  73.071  0.00  0.00     0.128 C 
HETATM   11  C   UNK     0      21.237  27.589  72.648  0.00  0.00     0.055 C 
HETATM   12  C   UNK     0      22.221  26.867  71.625  0.00  0.00    -0.021 C 
HETATM   13  C   UNK     0      21.944  28.160  73.895  0.00  0.00    -0.034 C 
HETATM   14  C   UNK     0      23.599  27.590  71.602  0.00  0.00     0.071 C 
HETATM   15  C   UNK     0      21.618  26.832  70.173  0.00  0.00     0.045 C 
HETATM   16  C   UNK     0      22.473  25.394  72.054  0.00  0.00     0.017 C 
HETATM   17  C   UNK     0      23.600  28.981  70.944  0.00  0.00     0.047 C 
HETATM   18  C   UNK     0      24.175  27.712  72.997  0.00  0.00     0.154 C 
HETATM   19  C   UNK     0      22.562  29.139  69.838  0.00  0.00     0.147 C 
HETATM   20  C   UNK     0      22.238  27.810  69.169  0.00  0.00     0.147 C 
HETATM   21  O   UNK     0      25.368  27.531  73.229  0.00  0.00    -0.293 OA
HETATM   22  C   UNK     0      23.272  28.157  74.077  0.00  0.00     0.057 C 
BRANCH   5  23
HETATM   23  C   UNK     0      18.217  27.912  77.347  0.00  0.00     0.084 C 
HETATM   24  C   UNK     0      18.977  26.757  78.019  0.00  0.00     0.049 C 
BRANCH  23  25
HETATM   25  O   UNK     0      17.815  28.820  78.381  0.00  0.00    -0.387 OA
HETATM   26  H   UNK     0      16.863  28.993  78.296  0.00  0.00     0.210 HD
ENDBRANCH  23  25
BRANCH  23  27
HETATM   27  C   UNK     0      16.937  27.387  76.639  0.00  0.00     0.152 C 
BRANCH  27  28
HETATM   28  O   UNK     0      15.778  27.927  77.282  0.00  0.00    -0.393 OA
HETATM   29  H   UNK     0      15.029  27.345  77.069  0.00  0.00     0.210 HD
ENDBRANCH  27  28
BRANCH  27  30
HETATM   30  C   UNK     0      16.809  25.852  76.619  0.00  0.00     0.037 C 
BRANCH  30  31
HETATM   31  C   UNK     0      16.203  25.340  75.300  0.00  0.00     0.040 C 
BRANCH  31  32
HETATM   32  C   UNK     0      16.907  24.100  74.710  0.00  0.00     0.051 C 
HETATM   33  C   UNK     0      18.177  23.800  75.514  0.00  0.00     0.045 C 
HETATM   34  C   UNK     0      16.001  22.866  74.687  0.00  0.00     0.045 C 
BRANCH  32  35
HETATM   35  O   UNK     0      17.297  24.400  73.368  0.00  0.00    -0.391 OA
HETATM   36  H   UNK     0      17.857  23.677  73.039  0.00  0.00     0.210 HD
ENDBRANCH  32  35
ENDBRANCH  31  32
ENDBRANCH  30  31
ENDBRANCH  27  30
ENDBRANCH  23  27
ENDBRANCH   5  23
BRANCH  10  37
HETATM   37  O   UNK     0      19.170  26.441  71.946  0.00  0.00    -0.395 OA
HETATM   38  H   UNK     0      19.735  26.434  71.154  0.00  0.00     0.210 HD
ENDBRANCH  10  37
BRANCH  19  39
HETATM   39  O   UNK     0      23.052  30.071  68.879  0.00  0.00    -0.393 OA
HETATM   40  H   UNK     0      23.280  30.894  69.343  0.00  0.00     0.210 HD
ENDBRANCH  19  39
BRANCH  20  41
HETATM   41  O   UNK     0      23.421  27.227  68.622  0.00  0.00    -0.393 OA
HETATM   42  H   UNK     0      23.399  26.275  68.819  0.00  0.00     0.210 HD
ENDBRANCH  20  41
ENDBRANCH   1   3
TORSDOF 12
ENDMDL
MODEL 9
REMARK VINA RESULT:      -8.0     32.858     36.243
REMARK  12 active torsions:
REMARK  status: ('A' for Active; 'I' for Inactive)
REMARK    1  A    between atoms: O_1  and  C_10 
REMARK    2  A    between atoms: O_2  and  C_17 
REMARK    3  A    between atoms: O_3  and  C_20 
REMARK    4  A    between atoms: O_4  and  C_27 
REMARK    5  A    between atoms: O_6  and  C_29 
REMARK    6  A    between atoms: O_7  and  C_28 
REMARK    7  A    between atoms: O_8  and  C_33 
REMARK    8  A    between atoms: C_11  and  C_20 
REMARK    9  A    between atoms: C_20  and  C_28 
REMARK   10  A    between atoms: C_28  and  C_31 
REMARK   11  A    between atoms: C_31  and  C_32 
REMARK   12  A    between atoms: C_32  and  C_33 
ROOT
HETATM    1  O   UNK     0      16.168  25.848 105.796  0.00  0.00    -0.384 OA
HETATM    2  H   UNK     0      15.402  25.351 106.119  0.00  0.00     0.211 HD
ENDROOT
BRANCH   1   3
HETATM    3  C   UNK     0      17.397  25.124 106.031  0.00  0.00     0.090 C 
HETATM    4  C   UNK     0      18.301  25.934 106.996  0.00  0.00    -0.000 C 
HETATM    5  C   UNK     0      18.585  27.195 106.138  0.00  0.00     0.034 C 
HETATM    6  C   UNK     0      17.511  26.219 108.281  0.00  0.00     0.045 C 
HETATM    7  C   UNK     0      19.623  25.200 107.352  0.00  0.00     0.019 C 
HETATM    8  C   UNK     0      18.782  26.631 104.711  0.00  0.00     0.012 C 
HETATM    9  C   UNK     0      18.179  25.209 104.712  0.00  0.00     0.044 C 
HETATM   10  C   UNK     0      17.038  24.913 108.954  0.00  0.00     0.128 C 
HETATM   11  C   UNK     0      16.257  23.934 108.001  0.00  0.00     0.055 C 
HETATM   12  C   UNK     0      15.892  22.537 108.672  0.00  0.00    -0.021 C 
HETATM   13  C   UNK     0      16.987  23.802 106.647  0.00  0.00    -0.034 C 
HETATM   14  C   UNK     0      15.535  21.489 107.578  0.00  0.00     0.071 C 
HETATM   15  C   UNK     0      14.691  22.679 109.679  0.00  0.00     0.045 C 
HETATM   16  C   UNK     0      17.102  21.981 109.474  0.00  0.00     0.017 C 
HETATM   17  C   UNK     0      14.199  21.727 106.852  0.00  0.00     0.047 C 
HETATM   18  C   UNK     0      16.637  21.384 106.544  0.00  0.00     0.154 C 
HETATM   19  C   UNK     0      13.147  22.419 107.712  0.00  0.00     0.147 C 
HETATM   20  C   UNK     0      13.345  22.131 109.194  0.00  0.00     0.147 C 
HETATM   21  O   UNK     0      16.998  20.303 106.083  0.00  0.00    -0.293 OA
HETATM   22  C   UNK     0      17.213  22.638 106.022  0.00  0.00     0.057 C 
BRANCH   5  23
HETATM   23  C   UNK     0      19.739  28.079 106.589  0.00  0.00     0.084 C 
HETATM   24  C   UNK     0      20.948  27.873 105.661  0.00  0.00     0.049 C 
BRANCH  23  25
HETATM   25  O   UNK     0      19.334  29.449 106.466  0.00  0.00    -0.387 OA
HETATM   26  H   UNK     0      18.712  29.659 107.182  0.00  0.00     0.210 HD
ENDBRANCH  23  25
BRANCH  23  27
HETATM   27  C   UNK     0      20.133  27.822 108.068  0.00  0.00     0.152 C 
BRANCH  27  28
HETATM   28  O   UNK     0      19.728  28.934 108.873  0.00  0.00    -0.393 OA
HETATM   29  H   UNK     0      20.505  29.505 108.994  0.00  0.00     0.210 HD
ENDBRANCH  27  28
BRANCH  27  30
HETATM   30  C   UNK     0      21.640  27.587 108.290  0.00  0.00     0.037 C 
BRANCH  30  31
HETATM   31  C   UNK     0      21.967  27.287 109.764  0.00  0.00     0.040 C 
BRANCH  31  32
HETATM   32  C   UNK     0      23.402  26.775 110.011  0.00  0.00     0.051 C 
HETATM   33  C   UNK     0      23.623  26.573 111.514  0.00  0.00     0.045 C 
HETATM   34  C   UNK     0      23.696  25.473 109.261  0.00  0.00     0.045 C 
BRANCH  32  35
HETATM   35  O   UNK     0      24.320  27.773 109.562  0.00  0.00    -0.391 OA
HETATM   36  H   UNK     0      24.275  27.822 108.592  0.00  0.00     0.210 HD
ENDBRANCH  32  35
ENDBRANCH  31  32
ENDBRANCH  30  31
ENDBRANCH  27  30
ENDBRANCH  23  27
ENDBRANCH   5  23
BRANCH  10  37
HETATM   37  O   UNK     0      16.226  25.283 110.065  0.00  0.00    -0.395 OA
HETATM   38  H   UNK     0      15.880  26.176 109.895  0.00  0.00     0.210 HD
ENDBRANCH  10  37
BRANCH  19  39
HETATM   39  O   UNK     0      11.856  21.988 107.291  0.00  0.00    -0.393 OA
HETATM   40  H   UNK     0      11.550  21.298 107.903  0.00  0.00     0.210 HD
ENDBRANCH  19  39
BRANCH  20  41
HETATM   41  O   UNK     0      13.300  20.724 109.438  0.00  0.00    -0.393 OA
HETATM   42  H   UNK     0      12.367  20.474 109.542  0.00  0.00     0.210 HD
ENDBRANCH  20  41
ENDBRANCH   1   3
TORSDOF 12
ENDMDL
