MODEL 1
REMARK VINA RESULT:      -8.6      0.000      0.000
REMARK  6 active torsions:
REMARK  status: ('A' for Active; 'I' for Inactive)
REMARK    1  A    between atoms: O_2  and  C_12 
REMARK    2  A    between atoms: O_3  and  C_14 
REMARK    3  A    between atoms: O_5  and  C_16 
REMARK    4  A    between atoms: O_6  and  C_20 
REMARK    5  A    between atoms: O_7  and  C_22 
REMARK    6  A    between atoms: C_10  and  C_11 
ROOT
HETATM    1  O   UNK     0       4.431  43.554  22.969  0.00  0.00    -0.306 OA
HETATM    2  O   UNK     0       1.846  40.981  21.151  0.00  0.00    -0.284 OA
HETATM    3  C   UNK     0       2.803  41.764  23.160  0.00  0.00     0.084 A 
HETATM    4  C   UNK     0       3.704  42.668  23.720  0.00  0.00     0.096 A 
HETATM    5  C   UNK     0       4.253  43.559  21.594  0.00  0.00     0.123 A 
HETATM    6  C   UNK     0       3.422  42.734  20.930  0.00  0.00     0.152 A 
HETATM    7  C   UNK     0       2.618  41.755  21.700  0.00  0.00     0.223 A 
HETATM    8  C   UNK     0       2.090  40.882  23.976  0.00  0.00     0.085 A 
HETATM    9  C   UNK     0       3.898  42.693  25.101  0.00  0.00     0.075 A 
HETATM   10  C   UNK     0       3.187  41.815  25.919  0.00  0.00     0.071 A 
HETATM   11  C   UNK     0       2.285  40.911  25.356  0.00  0.00     0.074 A 
ENDROOT
BRANCH   5  12
HETATM   12  C   UNK     0       5.092  44.557  20.909  0.00  0.00     0.004 A 
HETATM   13  C   UNK     0       4.723  45.902  20.913  0.00  0.00     0.053 A 
HETATM   14  C   UNK     0       5.518  46.846  20.264  0.00  0.00     0.099 A 
HETATM   15  C   UNK     0       6.684  46.446  19.611  0.00  0.00     0.098 A 
HETATM   16  C   UNK     0       7.054  45.101  19.608  0.00  0.00     0.040 A 
HETATM   17  C   UNK     0       6.259  44.156  20.256  0.00  0.00     0.017 A 
BRANCH  14  18
HETATM   18  O   UNK     0       5.146  48.156  20.273  0.00  0.00    -0.358 OA
HETATM   19  H   UNK     0       4.596  48.347  19.496  0.00  0.00     0.217 HD
ENDBRANCH  14  18
BRANCH  15  20
HETATM   20  O   UNK     0       7.470  47.359  18.976  0.00  0.00    -0.358 OA
HETATM   21  H   UNK     0       8.402  47.100  19.053  0.00  0.00     0.217 HD
ENDBRANCH  15  20
ENDBRANCH   5  12
BRANCH   6  22
HETATM   22  O   UNK     0       3.292  42.743  19.558  0.00  0.00    -0.355 OA
HETATM   23  H   UNK     0       3.759  43.509  19.187  0.00  0.00     0.218 HD
ENDBRANCH   6  22
BRANCH   8  24
HETATM   24  O   UNK     0       1.197  39.980  23.479  0.00  0.00    -0.360 OA
HETATM   25  H   UNK     0       1.595  39.097  23.436  0.00  0.00     0.217 HD
ENDBRANCH   8  24
BRANCH  10  26
HETATM   26  O   UNK     0       3.375  41.839  27.267  0.00  0.00    -0.361 OA
HETATM   27  H   UNK     0       3.281  40.935  27.615  0.00  0.00     0.217 HD
ENDBRANCH  10  26
TORSDOF 6
ENDMDL
MODEL 2
REMARK VINA RESULT:      -8.1      1.440      3.279
REMARK  6 active torsions:
REMARK  status: ('A' for Active; 'I' for Inactive)
REMARK    1  A    between atoms: O_2  and  C_12 
REMARK    2  A    between atoms: O_3  and  C_14 
REMARK    3  A    between atoms: O_5  and  C_16 
REMARK    4  A    between atoms: O_6  and  C_20 
REMARK    5  A    between atoms: O_7  and  C_22 
REMARK    6  A    between atoms: C_10  and  C_11 
ROOT
HETATM    1  O   UNK     0       4.258  43.464  21.847  0.00  0.00    -0.306 OA
HETATM    2  O   UNK     0       4.805  43.453  25.885  0.00  0.00    -0.284 OA
HETATM    3  C   UNK     0       3.811  42.440  24.001  0.00  0.00     0.084 A 
HETATM    4  C   UNK     0       3.663  42.499  22.617  0.00  0.00     0.096 A 
HETATM    5  C   UNK     0       5.053  44.413  22.471  0.00  0.00     0.123 A 
HETATM    6  C   UNK     0       5.270  44.471  23.798  0.00  0.00     0.152 A 
HETATM    7  C   UNK     0       4.642  43.451  24.672  0.00  0.00     0.223 A 
HETATM    8  C   UNK     0       3.179  41.433  24.735  0.00  0.00     0.085 A 
HETATM    9  C   UNK     0       2.877  41.552  21.958  0.00  0.00     0.075 A 
HETATM   10  C   UNK     0       2.245  40.546  22.689  0.00  0.00     0.071 A 
HETATM   11  C   UNK     0       2.395  40.488  24.074  0.00  0.00     0.074 A 
ENDROOT
BRANCH   5  12
HETATM   12  C   UNK     0       5.631  45.388  21.530  0.00  0.00     0.004 A 
HETATM   13  C   UNK     0       6.985  45.322  21.201  0.00  0.00     0.053 A 
HETATM   14  C   UNK     0       7.532  46.245  20.310  0.00  0.00     0.099 A 
HETATM   15  C   UNK     0       6.725  47.235  19.748  0.00  0.00     0.098 A 
HETATM   16  C   UNK     0       5.371  47.301  20.077  0.00  0.00     0.040 A 
HETATM   17  C   UNK     0       4.824  46.378  20.968  0.00  0.00     0.017 A 
BRANCH  14  18
HETATM   18  O   UNK     0       8.855  46.172  19.997  0.00  0.00    -0.358 OA
HETATM   19  H   UNK     0       9.328  46.922  20.393  0.00  0.00     0.217 HD
ENDBRANCH  14  18
BRANCH  15  20
HETATM   20  O   UNK     0       7.247  48.141  18.875  0.00  0.00    -0.358 OA
HETATM   21  H   UNK     0       7.902  47.707  18.305  0.00  0.00     0.217 HD
ENDBRANCH  15  20
ENDBRANCH   5  12
BRANCH   6  22
HETATM   22  O   UNK     0       6.040  45.448  24.392  0.00  0.00    -0.355 OA
HETATM   23  H   UNK     0       6.790  45.041  24.855  0.00  0.00     0.218 HD
ENDBRANCH   6  22
BRANCH   8  24
HETATM   24  O   UNK     0       3.292  41.330  26.090  0.00  0.00    -0.360 OA
HETATM   25  H   UNK     0       2.504  40.909  26.465  0.00  0.00     0.217 HD
ENDBRANCH   8  24
BRANCH  10  26
HETATM   26  O   UNK     0       1.479  39.621  22.047  0.00  0.00    -0.361 OA
HETATM   27  H   UNK     0       1.817  38.733  22.255  0.00  0.00     0.217 HD
ENDBRANCH  10  26
TORSDOF 6
ENDMDL
MODEL 3
REMARK VINA RESULT:      -7.5      1.349      2.314
REMARK  6 active torsions:
REMARK  status: ('A' for Active; 'I' for Inactive)
REMARK    1  A    between atoms: O_2  and  C_12 
REMARK    2  A    between atoms: O_3  and  C_14 
REMARK    3  A    between atoms: O_5  and  C_16 
REMARK    4  A    between atoms: O_6  and  C_20 
REMARK    5  A    between atoms: O_7  and  C_22 
REMARK    6  A    between atoms: C_10  and  C_11 
ROOT
HETATM    1  O   UNK     0       3.826  42.878  24.027  0.00  0.00    -0.306 OA
HETATM    2  O   UNK     0       1.164  39.925  23.132  0.00  0.00    -0.284 OA
HETATM    3  C   UNK     0       2.464  41.013  24.772  0.00  0.00     0.084 A 
HETATM    4  C   UNK     0       3.374  42.040  25.012  0.00  0.00     0.096 A 
HETATM    5  C   UNK     0       3.345  42.704  22.738  0.00  0.00     0.123 A 
HETATM    6  C   UNK     0       2.472  41.747  22.373  0.00  0.00     0.152 A 
HETATM    7  C   UNK     0       1.960  40.814  23.405  0.00  0.00     0.223 A 
HETATM    8  C   UNK     0       2.040  40.188  25.817  0.00  0.00     0.085 A 
HETATM    9  C   UNK     0       3.869  42.247  26.301  0.00  0.00     0.075 A 
HETATM   10  C   UNK     0       3.447  41.425  27.346  0.00  0.00     0.071 A 
HETATM   11  C   UNK     0       2.535  40.398  27.104  0.00  0.00     0.074 A 
ENDROOT
BRANCH   5  12
HETATM   12  C   UNK     0       3.909  43.669  21.778  0.00  0.00     0.004 A 
HETATM   13  C   UNK     0       4.445  43.221  20.571  0.00  0.00     0.053 A 
HETATM   14  C   UNK     0       4.979  44.135  19.662  0.00  0.00     0.099 A 
HETATM   15  C   UNK     0       4.976  45.498  19.961  0.00  0.00     0.098 A 
HETATM   16  C   UNK     0       4.440  45.946  21.168  0.00  0.00     0.040 A 
HETATM   17  C   UNK     0       3.906  45.032  22.077  0.00  0.00     0.017 A 
BRANCH  14  18
HETATM   18  O   UNK     0       5.501  43.687  18.487  0.00  0.00    -0.358 OA
HETATM   19  H   UNK     0       4.893  43.890  17.758  0.00  0.00     0.217 HD
ENDBRANCH  14  18
BRANCH  15  20
HETATM   20  O   UNK     0       5.492  46.401  19.081  0.00  0.00    -0.358 OA
HETATM   21  H   UNK     0       4.858  47.121  18.941  0.00  0.00     0.217 HD
ENDBRANCH  15  20
ENDBRANCH   5  12
BRANCH   6  22
HETATM   22  O   UNK     0       2.039  41.580  21.075  0.00  0.00    -0.355 OA
HETATM   23  H   UNK     0       1.624  40.707  20.976  0.00  0.00     0.218 HD
ENDBRANCH   6  22
BRANCH   8  24
HETATM   24  O   UNK     0       1.152  39.170  25.636  0.00  0.00    -0.360 OA
HETATM   25  H   UNK     0       0.597  39.059  26.422  0.00  0.00     0.217 HD
ENDBRANCH   8  24
BRANCH  10  26
HETATM   26  O   UNK     0       3.928  41.627  28.604  0.00  0.00    -0.361 OA
HETATM   27  H   UNK     0       3.297  42.178  29.098  0.00  0.00     0.217 HD
ENDBRANCH  10  26
TORSDOF 6
ENDMDL
MODEL 4
REMARK VINA RESULT:      -7.5      1.672      7.058
REMARK  6 active torsions:
REMARK  status: ('A' for Active; 'I' for Inactive)
REMARK    1  A    between atoms: O_2  and  C_12 
REMARK    2  A    between atoms: O_3  and  C_14 
REMARK    3  A    between atoms: O_5  and  C_16 
REMARK    4  A    between atoms: O_6  and  C_20 
REMARK    5  A    between atoms: O_7  and  C_22 
REMARK    6  A    between atoms: C_10  and  C_11 
ROOT
HETATM    1  O   UNK     0       6.110  43.221  21.307  0.00  0.00    -0.306 OA
HETATM    2  O   UNK     0       5.131  47.035  20.258  0.00  0.00    -0.284 OA
HETATM    3  C   UNK     0       6.712  45.286  20.184  0.00  0.00     0.084 A 
HETATM    4  C   UNK     0       6.987  43.977  20.575  0.00  0.00     0.096 A 
HETATM    5  C   UNK     0       4.892  43.778  21.662  0.00  0.00     0.123 A 
HETATM    6  C   UNK     0       4.508  45.031  21.356  0.00  0.00     0.152 A 
HETATM    7  C   UNK     0       5.426  45.889  20.568  0.00  0.00     0.223 A 
HETATM    8  C   UNK     0       7.646  46.010  19.438  0.00  0.00     0.085 A 
HETATM    9  C   UNK     0       8.201  43.385  20.224  0.00  0.00     0.075 A 
HETATM   10  C   UNK     0       9.135  44.105  19.479  0.00  0.00     0.071 A 
HETATM   11  C   UNK     0       8.858  45.415  19.088  0.00  0.00     0.074 A 
ENDROOT
BRANCH   5  12
HETATM   12  C   UNK     0       4.046  42.861  22.445  0.00  0.00     0.004 A 
HETATM   13  C   UNK     0       3.296  41.879  21.798  0.00  0.00     0.053 A 
HETATM   14  C   UNK     0       2.495  41.010  22.540  0.00  0.00     0.099 A 
HETATM   15  C   UNK     0       2.445  41.124  23.930  0.00  0.00     0.098 A 
HETATM   16  C   UNK     0       3.195  42.105  24.577  0.00  0.00     0.040 A 
HETATM   17  C   UNK     0       3.996  42.974  23.835  0.00  0.00     0.017 A 
BRANCH  14  18
HETATM   18  O   UNK     0       1.766  40.057  21.897  0.00  0.00    -0.358 OA
HETATM   19  H   UNK     0       1.209  40.471  21.218  0.00  0.00     0.217 HD
ENDBRANCH  14  18
BRANCH  15  20
HETATM   20  O   UNK     0       1.668  40.279  24.665  0.00  0.00    -0.358 OA
HETATM   21  H   UNK     0       2.113  40.071  25.502  0.00  0.00     0.217 HD
ENDBRANCH  15  20
ENDBRANCH   5  12
BRANCH   6  22
HETATM   22  O   UNK     0       3.302  45.567  21.752  0.00  0.00    -0.355 OA
HETATM   23  H   UNK     0       2.899  45.005  22.434  0.00  0.00     0.218 HD
ENDBRANCH   6  22
BRANCH   8  24
HETATM   24  O   UNK     0       7.426  47.292  19.031  0.00  0.00    -0.360 OA
HETATM   25  H   UNK     0       6.516  47.561  19.230  0.00  0.00     0.217 HD
ENDBRANCH   8  24
BRANCH  10  26
HETATM   26  O   UNK     0      10.319  43.528  19.135  0.00  0.00    -0.361 OA
HETATM   27  H   UNK     0      10.911  44.212  18.777  0.00  0.00     0.217 HD
ENDBRANCH  10  26
TORSDOF 6
ENDMDL
MODEL 5
REMARK VINA RESULT:      -7.2      1.775      7.067
REMARK  6 active torsions:
REMARK  status: ('A' for Active; 'I' for Inactive)
REMARK    1  A    between atoms: O_2  and  C_12 
REMARK    2  A    between atoms: O_3  and  C_14 
REMARK    3  A    between atoms: O_5  and  C_16 
REMARK    4  A    between atoms: O_6  and  C_20 
REMARK    5  A    between atoms: O_7  and  C_22 
REMARK    6  A    between atoms: C_10  and  C_11 
ROOT
HETATM    1  O   UNK     0       4.750  44.147  21.523  0.00  0.00    -0.306 OA
HETATM    2  O   UNK     0       8.507  42.871  20.591  0.00  0.00    -0.284 OA
HETATM    3  C   UNK     0       6.904  44.599  20.499  0.00  0.00     0.084 A 
HETATM    4  C   UNK     0       5.608  44.975  20.846  0.00  0.00     0.096 A 
HETATM    5  C   UNK     0       5.197  42.887  21.889  0.00  0.00     0.123 A 
HETATM    6  C   UNK     0       6.420  42.401  21.608  0.00  0.00     0.152 A 
HETATM    7  C   UNK     0       7.380  43.259  20.873  0.00  0.00     0.223 A 
HETATM    8  C   UNK     0       7.733  45.485  19.807  0.00  0.00     0.085 A 
HETATM    9  C   UNK     0       5.132  46.240  20.501  0.00  0.00     0.075 A 
HETATM   10  C   UNK     0       5.958  47.127  19.810  0.00  0.00     0.071 A 
HETATM   11  C   UNK     0       7.255  46.750  19.464  0.00  0.00     0.074 A 
ENDROOT
BRANCH   5  12
HETATM   12  C   UNK     0       4.180  42.102  22.609  0.00  0.00     0.004 A 
HETATM   13  C   UNK     0       3.435  41.136  21.932  0.00  0.00     0.053 A 
HETATM   14  C   UNK     0       2.472  40.393  22.615  0.00  0.00     0.099 A 
HETATM   15  C   UNK     0       2.253  40.616  23.975  0.00  0.00     0.098 A 
HETATM   16  C   UNK     0       2.999  41.581  24.652  0.00  0.00     0.040 A 
HETATM   17  C   UNK     0       3.962  42.324  23.969  0.00  0.00     0.017 A 
BRANCH  14  18
HETATM   18  O   UNK     0       1.749  39.454  21.944  0.00  0.00    -0.358 OA
HETATM   19  H   UNK     0       2.331  38.726  21.670  0.00  0.00     0.217 HD
ENDBRANCH  14  18
BRANCH  15  20
HETATM   20  O   UNK     0       1.317  39.895  24.653  0.00  0.00    -0.358 OA
HETATM   21  H   UNK     0       0.489  40.397  24.701  0.00  0.00     0.217 HD
ENDBRANCH  15  20
ENDBRANCH   5  12
BRANCH   6  22
HETATM   22  O   UNK     0       6.823  41.130  21.958  0.00  0.00    -0.355 OA
HETATM   23  H   UNK     0       6.415  40.479  21.364  0.00  0.00     0.218 HD
ENDBRANCH   6  22
BRANCH   8  24
HETATM   24  O   UNK     0       9.008  45.168  19.445  0.00  0.00    -0.360 OA
HETATM   25  H   UNK     0       9.568  45.061  20.229  0.00  0.00     0.217 HD
ENDBRANCH   8  24
BRANCH  10  26
HETATM   26  O   UNK     0       5.495  48.363  19.473  0.00  0.00    -0.361 OA
HETATM   27  H   UNK     0       4.587  48.462  19.810  0.00  0.00     0.217 HD
ENDBRANCH  10  26
TORSDOF 6
ENDMDL
MODEL 6
REMARK VINA RESULT:      -7.1      3.075      5.303
REMARK  6 active torsions:
REMARK  status: ('A' for Active; 'I' for Inactive)
REMARK    1  A    between atoms: O_2  and  C_12 
REMARK    2  A    between atoms: O_3  and  C_14 
REMARK    3  A    between atoms: O_5  and  C_16 
REMARK    4  A    between atoms: O_6  and  C_20 
REMARK    5  A    between atoms: O_7  and  C_22 
REMARK    6  A    between atoms: C_10  and  C_11 
ROOT
HETATM    1  O   UNK     0       7.363  43.217  20.355  0.00  0.00    -0.306 OA
HETATM    2  O   UNK     0       5.391  46.742  20.893  0.00  0.00    -0.284 OA
HETATM    3  C   UNK     0       5.351  44.388  21.041  0.00  0.00     0.084 A 
HETATM    4  C   UNK     0       6.079  43.218  20.833  0.00  0.00     0.096 A 
HETATM    5  C   UNK     0       7.967  44.433  20.077  0.00  0.00     0.123 A 
HETATM    6  C   UNK     0       7.373  45.631  20.225  0.00  0.00     0.152 A 
HETATM    7  C   UNK     0       5.982  45.682  20.736  0.00  0.00     0.223 A 
HETATM    8  C   UNK     0       4.044  44.328  21.530  0.00  0.00     0.085 A 
HETATM    9  C   UNK     0       5.502  41.979  21.113  0.00  0.00     0.075 A 
HETATM   10  C   UNK     0       4.197  41.916  21.602  0.00  0.00     0.071 A 
HETATM   11  C   UNK     0       3.470  43.088  21.809  0.00  0.00     0.074 A 
ENDROOT
BRANCH   5  12
HETATM   12  C   UNK     0       9.343  44.289  19.571  0.00  0.00     0.004 A 
HETATM   13  C   UNK     0       9.740  44.974  18.423  0.00  0.00     0.053 A 
HETATM   14  C   UNK     0      11.043  44.839  17.944  0.00  0.00     0.099 A 
HETATM   15  C   UNK     0      11.950  44.017  18.614  0.00  0.00     0.098 A 
HETATM   16  C   UNK     0      11.554  43.332  19.763  0.00  0.00     0.040 A 
HETATM   17  C   UNK     0      10.251  43.468  20.242  0.00  0.00     0.017 A 
BRANCH  14  18
HETATM   18  O   UNK     0      11.419  45.510  16.820  0.00  0.00    -0.358 OA
HETATM   19  H   UNK     0      12.059  44.980  16.319  0.00  0.00     0.217 HD
ENDBRANCH  14  18
BRANCH  15  20
HETATM   20  O   UNK     0      13.226  43.878  18.157  0.00  0.00    -0.358 OA
HETATM   21  H   UNK     0      13.217  43.729  17.199  0.00  0.00     0.217 HD
ENDBRANCH  15  20
ENDBRANCH   5  12
BRANCH   6  22
HETATM   22  O   UNK     0       7.991  46.822  19.909  0.00  0.00    -0.355 OA
HETATM   23  H   UNK     0       8.764  46.653  19.347  0.00  0.00     0.218 HD
ENDBRANCH   6  22
BRANCH   8  24
HETATM   24  O   UNK     0       3.290  45.442  21.750  0.00  0.00    -0.360 OA
HETATM   25  H   UNK     0       2.524  45.230  22.305  0.00  0.00     0.217 HD
ENDBRANCH   8  24
BRANCH  10  26
HETATM   26  O   UNK     0       3.632  40.707  21.875  0.00  0.00    -0.361 OA
HETATM   27  H   UNK     0       2.855  40.844  22.445  0.00  0.00     0.217 HD
ENDBRANCH  10  26
TORSDOF 6
ENDMDL
MODEL 7
REMARK VINA RESULT:      -7.0      4.189      7.874
REMARK  6 active torsions:
REMARK  status: ('A' for Active; 'I' for Inactive)
REMARK    1  A    between atoms: O_2  and  C_12 
REMARK    2  A    between atoms: O_3  and  C_14 
REMARK    3  A    between atoms: O_5  and  C_16 
REMARK    4  A    between atoms: O_6  and  C_20 
REMARK    5  A    between atoms: O_7  and  C_22 
REMARK    6  A    between atoms: C_10  and  C_11 
ROOT
HETATM    1  O   UNK     0       9.214  43.324  20.680  0.00  0.00    -0.306 OA
HETATM    2  O   UNK     0      10.896  45.213  17.485  0.00  0.00    -0.284 OA
HETATM    3  C   UNK     0      11.157  43.700  19.275  0.00  0.00     0.084 A 
HETATM    4  C   UNK     0      10.524  43.087  20.355  0.00  0.00     0.096 A 
HETATM    5  C   UNK     0       8.485  44.201  19.893  0.00  0.00     0.123 A 
HETATM    6  C   UNK     0       8.978  44.863  18.830  0.00  0.00     0.152 A 
HETATM    7  C   UNK     0      10.393  44.641  18.443  0.00  0.00     0.223 A 
HETATM    8  C   UNK     0      12.496  43.420  18.991  0.00  0.00     0.085 A 
HETATM    9  C   UNK     0      11.229  42.192  21.160  0.00  0.00     0.075 A 
HETATM   10  C   UNK     0      12.566  41.911  20.879  0.00  0.00     0.071 A 
HETATM   11  C   UNK     0      13.198  42.524  19.797  0.00  0.00     0.074 A 
ENDROOT
BRANCH   5  12
HETATM   12  C   UNK     0       7.094  44.365  20.351  0.00  0.00     0.004 A 
HETATM   13  C   UNK     0       6.086  43.557  19.826  0.00  0.00     0.053 A 
HETATM   14  C   UNK     0       4.770  43.712  20.261  0.00  0.00     0.099 A 
HETATM   15  C   UNK     0       4.462  44.677  21.220  0.00  0.00     0.098 A 
HETATM   16  C   UNK     0       5.469  45.485  21.746  0.00  0.00     0.040 A 
HETATM   17  C   UNK     0       6.786  45.330  21.311  0.00  0.00     0.017 A 
BRANCH  14  18
HETATM   18  O   UNK     0       3.793  42.918  19.740  0.00  0.00    -0.358 OA
HETATM   19  H   UNK     0       3.791  42.060  20.194  0.00  0.00     0.217 HD
ENDBRANCH  14  18
BRANCH  15  20
HETATM   20  O   UNK     0       3.180  44.837  21.654  0.00  0.00    -0.358 OA
HETATM   21  H   UNK     0       2.564  44.679  20.921  0.00  0.00     0.217 HD
ENDBRANCH  15  20
ENDBRANCH   5  12
BRANCH   6  22
HETATM   22  O   UNK     0       8.235  45.754  18.086  0.00  0.00    -0.355 OA
HETATM   23  H   UNK     0       8.798  46.173  17.415  0.00  0.00     0.218 HD
ENDBRANCH   6  22
BRANCH   8  24
HETATM   24  O   UNK     0      13.161  43.991  17.948  0.00  0.00    -0.360 OA
HETATM   25  H   UNK     0      13.261  44.945  18.089  0.00  0.00     0.217 HD
ENDBRANCH   8  24
BRANCH  10  26
HETATM   26  O   UNK     0      13.255  41.037  21.665  0.00  0.00    -0.361 OA
HETATM   27  H   UNK     0      14.148  40.920  21.297  0.00  0.00     0.217 HD
ENDBRANCH  10  26
TORSDOF 6
ENDMDL
MODEL 8
REMARK VINA RESULT:      -7.0      2.427      7.220
REMARK  6 active torsions:
REMARK  status: ('A' for Active; 'I' for Inactive)
REMARK    1  A    between atoms: O_2  and  C_12 
REMARK    2  A    between atoms: O_3  and  C_14 
REMARK    3  A    between atoms: O_5  and  C_16 
REMARK    4  A    between atoms: O_6  and  C_20 
REMARK    5  A    between atoms: O_7  and  C_22 
REMARK    6  A    between atoms: C_10  and  C_11 
ROOT
HETATM    1  O   UNK     0       6.254  43.668  21.368  0.00  0.00    -0.306 OA
HETATM    2  O   UNK     0       8.104  45.794  24.312  0.00  0.00    -0.284 OA
HETATM    3  C   UNK     0       8.032  45.179  22.036  0.00  0.00     0.084 A 
HETATM    4  C   UNK     0       7.356  44.429  21.076  0.00  0.00     0.096 A 
HETATM    5  C   UNK     0       5.786  43.655  22.673  0.00  0.00     0.123 A 
HETATM    6  C   UNK     0       6.351  44.326  23.693  0.00  0.00     0.152 A 
HETATM    7  C   UNK     0       7.548  45.159  23.425  0.00  0.00     0.223 A 
HETATM    8  C   UNK     0       9.151  45.936  21.680  0.00  0.00     0.085 A 
HETATM    9  C   UNK     0       7.797  44.429  19.752  0.00  0.00     0.075 A 
HETATM   10  C   UNK     0       8.914  45.184  19.393  0.00  0.00     0.071 A 
HETATM   11  C   UNK     0       9.589  45.935  20.355  0.00  0.00     0.074 A 
ENDROOT
BRANCH   5  12
HETATM   12  C   UNK     0       4.599  42.799  22.850  0.00  0.00     0.004 A 
HETATM   13  C   UNK     0       3.388  43.154  22.256  0.00  0.00     0.053 A 
HETATM   14  C   UNK     0       2.265  42.344  22.423  0.00  0.00     0.099 A 
HETATM   15  C   UNK     0       2.353  41.178  23.185  0.00  0.00     0.098 A 
HETATM   16  C   UNK     0       3.565  40.823  23.778  0.00  0.00     0.040 A 
HETATM   17  C   UNK     0       4.688  41.633  23.610  0.00  0.00     0.017 A 
BRANCH  14  18
HETATM   18  O   UNK     0       1.087  42.702  21.841  0.00  0.00    -0.358 OA
HETATM   19  H   UNK     0       0.827  42.032  21.187  0.00  0.00     0.217 HD
ENDBRANCH  14  18
BRANCH  15  20
HETATM   20  O   UNK     0       1.264  40.378  23.353  0.00  0.00    -0.358 OA
HETATM   21  H   UNK     0       1.550  39.462  23.498  0.00  0.00     0.217 HD
ENDBRANCH  15  20
ENDBRANCH   5  12
BRANCH   6  22
HETATM   22  O   UNK     0       5.880  44.266  24.986  0.00  0.00    -0.355 OA
HETATM   23  H   UNK     0       6.358  43.580  25.480  0.00  0.00     0.218 HD
ENDBRANCH   6  22
BRANCH   8  24
HETATM   24  O   UNK     0       9.847  46.686  22.579  0.00  0.00    -0.360 OA
HETATM   25  H   UNK     0      10.801  46.596  22.431  0.00  0.00     0.217 HD
ENDBRANCH   8  24
BRANCH  10  26
HETATM   26  O   UNK     0       9.345  45.186  18.101  0.00  0.00    -0.361 OA
HETATM   27  H   UNK     0      10.105  44.583  18.022  0.00  0.00     0.217 HD
ENDBRANCH  10  26
TORSDOF 6
ENDMDL
MODEL 9
REMARK VINA RESULT:      -6.9     28.842     30.592
REMARK  6 active torsions:
REMARK  status: ('A' for Active; 'I' for Inactive)
REMARK    1  A    between atoms: O_2  and  C_12 
REMARK    2  A    between atoms: O_3  and  C_14 
REMARK    3  A    between atoms: O_5  and  C_16 
REMARK    4  A    between atoms: O_6  and  C_20 
REMARK    5  A    between atoms: O_7  and  C_22 
REMARK    6  A    between atoms: C_10  and  C_11 
ROOT
HETATM    1  O   UNK     0      15.870  67.498   7.750  0.00  0.00    -0.306 OA
HETATM    2  O   UNK     0      12.657  69.384   9.402  0.00  0.00    -0.284 OA
HETATM    3  C   UNK     0      13.690  68.525   7.463  0.00  0.00     0.084 A 
HETATM    4  C   UNK     0      14.817  67.878   6.960  0.00  0.00     0.096 A 
HETATM    5  C   UNK     0      15.804  67.756   9.111  0.00  0.00     0.123 A 
HETATM    6  C   UNK     0      14.778  68.380   9.719  0.00  0.00     0.152 A 
HETATM    7  C   UNK     0      13.619  68.814   8.904  0.00  0.00     0.223 A 
HETATM    8  C   UNK     0      12.646  68.891   6.609  0.00  0.00     0.085 A 
HETATM    9  C   UNK     0      14.908  67.596   5.596  0.00  0.00     0.075 A 
HETATM   10  C   UNK     0      13.868  67.959   4.741  0.00  0.00     0.071 A 
HETATM   11  C   UNK     0      12.740  68.606   5.246  0.00  0.00     0.074 A 
ENDROOT
BRANCH   5  12
HETATM   12  C   UNK     0      16.997  67.297   9.842  0.00  0.00     0.004 A 
HETATM   13  C   UNK     0      17.411  65.969   9.738  0.00  0.00     0.053 A 
HETATM   14  C   UNK     0      18.542  65.535  10.431  0.00  0.00     0.099 A 
HETATM   15  C   UNK     0      19.258  66.429  11.227  0.00  0.00     0.098 A 
HETATM   16  C   UNK     0      18.844  67.757  11.330  0.00  0.00     0.040 A 
HETATM   17  C   UNK     0      17.714  68.191  10.638  0.00  0.00     0.017 A 
BRANCH  14  18
HETATM   18  O   UNK     0      18.936  64.235  10.324  0.00  0.00    -0.358 OA
HETATM   19  H   UNK     0      19.267  63.921  11.181  0.00  0.00     0.217 HD
ENDBRANCH  14  18
BRANCH  15  20
HETATM   20  O   UNK     0      20.365  66.017  11.907  0.00  0.00    -0.358 OA
HETATM   21  H   UNK     0      21.155  66.436  11.531  0.00  0.00     0.217 HD
ENDBRANCH  15  20
ENDBRANCH   5  12
BRANCH   6  22
HETATM   22  O   UNK     0      14.758  68.651  11.070  0.00  0.00    -0.355 OA
HETATM   23  H   UNK     0      14.976  69.585  11.223  0.00  0.00     0.218 HD
ENDBRANCH   6  22
BRANCH   8  24
HETATM   24  O   UNK     0      11.523  69.524   7.049  0.00  0.00    -0.360 OA
HETATM   25  H   UNK     0      10.731  69.026   6.798  0.00  0.00     0.217 HD
ENDBRANCH   8  24
BRANCH  10  26
HETATM   26  O   UNK     0      13.956  67.683   3.410  0.00  0.00    -0.361 OA
HETATM   27  H   UNK     0      14.576  66.944   3.283  0.00  0.00     0.217 HD
ENDBRANCH  10  26
TORSDOF 6
ENDMDL
