MODEL 1
REMARK VINA RESULT:      -8.4      0.000      0.000
REMARK  13 active torsions:
REMARK  status: ('A' for Active; 'I' for Inactive)
REMARK    1  A    between atoms: C_2  and  O_12 
REMARK    2  A    between atoms: C_3  and  O_10 
REMARK    3  A    between atoms: C_4  and  O_8 
REMARK    4  A    between atoms: C_5  and  O_6 
REMARK    5  A    between atoms: C_22  and  C_23 
REMARK    6  A    between atoms: O_12  and  C_13 
REMARK    7  A    between atoms: C_13  and  C_14 
REMARK    8  A    between atoms: C_15  and  C_16 
REMARK    9  A    between atoms: C_23  and  O_24 
REMARK   10  A    between atoms: O_24  and  C_25 
REMARK   11  A    between atoms: C_26  and  O_34 
REMARK   12  A    between atoms: C_27  and  O_32 
REMARK   13  A    between atoms: C_28  and  O_30 
ROOT
ATOM      1  O   LIG     1      15.090  50.028  24.963  0.00  0.00    -0.341 OA
ATOM      2  C   LIG     1      15.199  51.303  24.335  0.00  0.00     0.282 C 
ATOM      3  C   LIG     1      14.872  51.196  22.845  0.00  0.00     0.201 C 
ATOM      4  C   LIG     1      13.511  50.539  22.619  0.00  0.00     0.179 C 
ATOM      5  C   LIG     1      13.374  49.254  23.436  0.00  0.00     0.177 C 
ATOM      6  C   LIG     1      13.767  49.494  24.896  0.00  0.00     0.178 C 
ENDROOT
BRANCH   6   7
ATOM      7  C   LIG     1      13.750  48.201  25.705  0.00  0.00     0.197 C 
BRANCH   7   8
ATOM      8  O   LIG     1      12.417  47.937  26.104  0.00  0.00    -0.346 OA
BRANCH   8   9
ATOM      9  C   LIG     1      12.178  48.343  27.447  0.00  0.00     0.281 C 
ATOM     10  O   LIG     1      11.965  47.226  28.317  0.00  0.00    -0.346 OA
ATOM     11  C   LIG     1      10.765  46.506  28.044  0.00  0.00     0.197 C 
ATOM     12  C   LIG     1       9.548  47.408  28.208  0.00  0.00     0.171 C 
ATOM     13  C   LIG     1       9.653  48.626  27.288  0.00  0.00     0.178 C 
ATOM     14  C   LIG     1      10.999  49.328  27.493  0.00  0.00     0.201 C 
BRANCH  12  15
ATOM     15  O   LIG     1       8.356  46.690  27.923  0.00  0.00    -0.387 OA
ATOM     16  H   LIG     1       7.707  47.324  27.574  0.00  0.00     0.210 HD
ENDBRANCH  12  15
BRANCH  13  17
ATOM     17  O   LIG     1       9.537  48.202  25.930  0.00  0.00    -0.386 OA
ATOM     18  H   LIG     1      10.116  47.429  25.815  0.00  0.00     0.210 HD
ENDBRANCH  13  17
BRANCH  14  19
ATOM     19  O   LIG     1      11.009  49.968  28.767  0.00  0.00    -0.384 OA
ATOM     20  H   LIG     1      10.418  50.738  28.729  0.00  0.00     0.210 HD
ENDBRANCH  14  19
ENDBRANCH   8   9
ENDBRANCH   7   8
ENDBRANCH   6   7
BRANCH   5  21
ATOM     21  O   LIG     1      12.024  48.801  23.379  0.00  0.00    -0.386 OA
ATOM     22  H   LIG     1      11.558  49.148  24.160  0.00  0.00     0.210 HD
ENDBRANCH   5  21
BRANCH   2  23
ATOM     23  O   LIG     1      16.534  51.790  24.460  0.00  0.00    -0.345 OA
BRANCH  23  24
ATOM     24  C   LIG     1      17.406  50.787  24.955  0.00  0.00     0.190 C 
BRANCH  24  25
ATOM     25  C   LIG     1      18.415  50.462  23.901  0.00  0.00     0.001 C 
ATOM     26  C   LIG     1      18.495  49.264  23.301  0.00  0.00     0.006 C 
BRANCH  26  27
ATOM     27  C   LIG     1      19.462  48.905  22.250  0.00  0.00    -0.025 A 
ATOM     28  C   LIG     1      20.680  48.349  22.608  0.00  0.00     0.008 A 
ATOM     29  C   LIG     1      21.594  48.009  21.612  0.00  0.00     0.001 A 
ATOM     30  C   LIG     1      21.280  48.228  20.271  0.00  0.00     0.000 A 
ATOM     31  C   LIG     1      20.051  48.788  19.925  0.00  0.00     0.001 A 
ATOM     32  C   LIG     1      19.135  49.129  20.922  0.00  0.00     0.008 A 
ENDBRANCH  26  27
ENDBRANCH  24  25
ENDBRANCH  23  24
ENDBRANCH   2  23
BRANCH   4  33
ATOM     33  O   LIG     1      13.369  50.201  21.238  0.00  0.00    -0.386 OA
ATOM     34  H   LIG     1      13.868  50.859  20.725  0.00  0.00     0.210 HD
ENDBRANCH   4  33
BRANCH   3  35
ATOM     35  O   LIG     1      14.861  52.512  22.294  0.00  0.00    -0.384 OA
ATOM     36  H   LIG     1      13.935  52.772  22.154  0.00  0.00     0.210 HD
ENDBRANCH   3  35
TORSDOF 13
ENDMDL
MODEL 2
REMARK VINA RESULT:      -8.3      2.004      3.084
REMARK  13 active torsions:
REMARK  status: ('A' for Active; 'I' for Inactive)
REMARK    1  A    between atoms: C_2  and  O_12 
REMARK    2  A    between atoms: C_3  and  O_10 
REMARK    3  A    between atoms: C_4  and  O_8 
REMARK    4  A    between atoms: C_5  and  O_6 
REMARK    5  A    between atoms: C_22  and  C_23 
REMARK    6  A    between atoms: O_12  and  C_13 
REMARK    7  A    between atoms: C_13  and  C_14 
REMARK    8  A    between atoms: C_15  and  C_16 
REMARK    9  A    between atoms: C_23  and  O_24 
REMARK   10  A    between atoms: O_24  and  C_25 
REMARK   11  A    between atoms: C_26  and  O_34 
REMARK   12  A    between atoms: C_27  and  O_32 
REMARK   13  A    between atoms: C_28  and  O_30 
ROOT
ATOM      1  O   LIG     1      14.302  50.465  23.957  0.00  0.00    -0.341 OA
ATOM      2  C   LIG     1      15.697  50.356  23.681  0.00  0.00     0.282 C 
ATOM      3  C   LIG     1      15.983  50.711  22.221  0.00  0.00     0.201 C 
ATOM      4  C   LIG     1      15.413  52.082  21.860  0.00  0.00     0.179 C 
ATOM      5  C   LIG     1      13.961  52.217  22.316  0.00  0.00     0.177 C 
ATOM      6  C   LIG     1      13.810  51.795  23.780  0.00  0.00     0.178 C 
ENDROOT
BRANCH   6   7
ATOM      7  C   LIG     1      12.351  51.809  24.225  0.00  0.00     0.197 C 
BRANCH   7   8
ATOM      8  O   LIG     1      12.205  50.923  25.320  0.00  0.00    -0.346 OA
BRANCH   8   9
ATOM      9  C   LIG     1      10.971  50.216  25.267  0.00  0.00     0.281 C 
ATOM     10  O   LIG     1      10.328  50.162  26.545  0.00  0.00    -0.346 OA
ATOM     11  C   LIG     1      11.032  49.384  27.511  0.00  0.00     0.197 C 
ATOM     12  C   LIG     1      11.168  47.941  27.042  0.00  0.00     0.171 C 
ATOM     13  C   LIG     1      11.883  47.878  25.691  0.00  0.00     0.178 C 
ATOM     14  C   LIG     1      11.198  48.811  24.688  0.00  0.00     0.201 C 
BRANCH  12  15
ATOM     15  O   LIG     1      11.881  47.174  28.002  0.00  0.00    -0.387 OA
ATOM     16  H   LIG     1      11.554  47.427  28.882  0.00  0.00     0.210 HD
ENDBRANCH  12  15
BRANCH  13  17
ATOM     17  O   LIG     1      13.243  48.273  25.859  0.00  0.00    -0.386 OA
ATOM     18  H   LIG     1      13.362  48.524  26.791  0.00  0.00     0.210 HD
ENDBRANCH  13  17
BRANCH  14  19
ATOM     19  O   LIG     1       9.928  48.271  24.331  0.00  0.00    -0.384 OA
ATOM     20  H   LIG     1       9.947  47.312  24.486  0.00  0.00     0.210 HD
ENDBRANCH  14  19
ENDBRANCH   8   9
ENDBRANCH   7   8
ENDBRANCH   6   7
BRANCH   5  21
ATOM     21  O   LIG     1      13.544  53.572  22.171  0.00  0.00    -0.386 OA
ATOM     22  H   LIG     1      13.194  53.683  21.270  0.00  0.00     0.210 HD
ENDBRANCH   5  21
BRANCH   2  23
ATOM     23  O   LIG     1      16.129  49.015  23.901  0.00  0.00    -0.345 OA
BRANCH  23  24
ATOM     24  C   LIG     1      16.588  48.831  25.231  0.00  0.00     0.190 C 
BRANCH  24  25
ATOM     25  C   LIG     1      18.071  48.649  25.207  0.00  0.00     0.001 C 
ATOM     26  C   LIG     1      18.749  48.258  24.116  0.00  0.00     0.006 C 
BRANCH  26  27
ATOM     27  C   LIG     1      20.209  48.080  24.042  0.00  0.00    -0.025 A 
ATOM     28  C   LIG     1      20.915  47.775  25.195  0.00  0.00     0.008 A 
ATOM     29  C   LIG     1      22.298  47.606  25.124  0.00  0.00     0.001 A 
ATOM     30  C   LIG     1      22.956  47.744  23.903  0.00  0.00     0.000 A 
ATOM     31  C   LIG     1      22.233  48.051  22.751  0.00  0.00     0.001 A 
ATOM     32  C   LIG     1      20.849  48.220  22.822  0.00  0.00     0.008 A 
ENDBRANCH  26  27
ENDBRANCH  24  25
ENDBRANCH  23  24
ENDBRANCH   2  23
BRANCH   4  33
ATOM     33  O   LIG     1      15.447  52.253  20.442  0.00  0.00    -0.386 OA
ATOM     34  H   LIG     1      15.925  53.080  20.260  0.00  0.00     0.210 HD
ENDBRANCH   4  33
BRANCH   3  35
ATOM     35  O   LIG     1      17.397  50.720  22.032  0.00  0.00    -0.384 OA
ATOM     36  H   LIG     1      17.676  49.819  21.800  0.00  0.00     0.210 HD
ENDBRANCH   3  35
TORSDOF 13
ENDMDL
MODEL 3
REMARK VINA RESULT:      -8.2      0.756      1.292
REMARK  13 active torsions:
REMARK  status: ('A' for Active; 'I' for Inactive)
REMARK    1  A    between atoms: C_2  and  O_12 
REMARK    2  A    between atoms: C_3  and  O_10 
REMARK    3  A    between atoms: C_4  and  O_8 
REMARK    4  A    between atoms: C_5  and  O_6 
REMARK    5  A    between atoms: C_22  and  C_23 
REMARK    6  A    between atoms: O_12  and  C_13 
REMARK    7  A    between atoms: C_13  and  C_14 
REMARK    8  A    between atoms: C_15  and  C_16 
REMARK    9  A    between atoms: C_23  and  O_24 
REMARK   10  A    between atoms: O_24  and  C_25 
REMARK   11  A    between atoms: C_26  and  O_34 
REMARK   12  A    between atoms: C_27  and  O_32 
REMARK   13  A    between atoms: C_28  and  O_30 
ROOT
ATOM      1  O   LIG     1      14.838  49.984  24.877  0.00  0.00    -0.341 OA
ATOM      2  C   LIG     1      15.049  51.257  24.270  0.00  0.00     0.282 C 
ATOM      3  C   LIG     1      14.838  51.170  22.758  0.00  0.00     0.201 C 
ATOM      4  C   LIG     1      13.474  50.571  22.420  0.00  0.00     0.179 C 
ATOM      5  C   LIG     1      13.218  49.290  23.213  0.00  0.00     0.177 C 
ATOM      6  C   LIG     1      13.504  49.507  24.701  0.00  0.00     0.178 C 
ENDROOT
BRANCH   6   7
ATOM      7  C   LIG     1      13.368  48.212  25.497  0.00  0.00     0.197 C 
BRANCH   7   8
ATOM      8  O   LIG     1      12.822  48.519  26.767  0.00  0.00    -0.346 OA
BRANCH   8   9
ATOM      9  C   LIG     1      11.574  49.195  26.655  0.00  0.00     0.281 C 
ATOM     10  O   LIG     1      11.212  49.858  27.872  0.00  0.00    -0.346 OA
ATOM     11  C   LIG     1      10.931  48.968  28.950  0.00  0.00     0.197 C 
ATOM     12  C   LIG     1       9.763  48.054  28.601  0.00  0.00     0.171 C 
ATOM     13  C   LIG     1      10.061  47.261  27.327  0.00  0.00     0.178 C 
ATOM     14  C   LIG     1      10.485  48.211  26.201  0.00  0.00     0.201 C 
BRANCH  12  15
ATOM     15  O   LIG     1       9.495  47.161  29.673  0.00  0.00    -0.387 OA
ATOM     16  H   LIG     1       9.774  46.272  29.392  0.00  0.00     0.210 HD
ENDBRANCH  12  15
BRANCH  13  17
ATOM     17  O   LIG     1      11.110  46.330  27.586  0.00  0.00    -0.386 OA
ATOM     18  H   LIG     1      11.948  46.823  27.579  0.00  0.00     0.210 HD
ENDBRANCH  13  17
BRANCH  14  19
ATOM     19  O   LIG     1       9.356  48.970  25.774  0.00  0.00    -0.384 OA
ATOM     20  H   LIG     1       8.651  48.872  26.436  0.00  0.00     0.210 HD
ENDBRANCH  14  19
ENDBRANCH   8   9
ENDBRANCH   7   8
ENDBRANCH   6   7
BRANCH   5  21
ATOM     21  O   LIG     1      11.860  48.894  23.046  0.00  0.00    -0.386 OA
ATOM     22  H   LIG     1      11.548  49.243  22.192  0.00  0.00     0.210 HD
ENDBRANCH   5  21
BRANCH   2  23
ATOM     23  O   LIG     1      16.389  51.687  24.504  0.00  0.00    -0.345 OA
BRANCH  23  24
ATOM     24  C   LIG     1      17.196  50.624  24.986  0.00  0.00     0.190 C 
BRANCH  24  25
ATOM     25  C   LIG     1      18.265  50.337  23.982  0.00  0.00     0.001 C 
ATOM     26  C   LIG     1      18.362  49.172  23.322  0.00  0.00     0.006 C 
BRANCH  26  27
ATOM     27  C   LIG     1      19.387  48.850  22.315  0.00  0.00    -0.025 A 
ATOM     28  C   LIG     1      20.598  48.315  22.726  0.00  0.00     0.008 A 
ATOM     29  C   LIG     1      21.569  48.010  21.772  0.00  0.00     0.001 A 
ATOM     30  C   LIG     1      21.317  48.244  20.420  0.00  0.00     0.000 A 
ATOM     31  C   LIG     1      20.094  48.782  20.021  0.00  0.00     0.001 A 
ATOM     32  C   LIG     1      19.123  49.088  20.976  0.00  0.00     0.008 A 
ENDBRANCH  26  27
ENDBRANCH  24  25
ENDBRANCH  23  24
ENDBRANCH   2  23
BRANCH   4  33
ATOM     33  O   LIG     1      13.428  50.246  21.029  0.00  0.00    -0.386 OA
ATOM     34  H   LIG     1      14.095  49.557  20.869  0.00  0.00     0.210 HD
ENDBRANCH   4  33
BRANCH   3  35
ATOM     35  O   LIG     1      14.926  52.488  22.218  0.00  0.00    -0.384 OA
ATOM     36  H   LIG     1      15.866  52.715  22.127  0.00  0.00     0.210 HD
ENDBRANCH   3  35
TORSDOF 13
ENDMDL
MODEL 4
REMARK VINA RESULT:      -8.1      1.023      1.505
REMARK  13 active torsions:
REMARK  status: ('A' for Active; 'I' for Inactive)
REMARK    1  A    between atoms: C_2  and  O_12 
REMARK    2  A    between atoms: C_3  and  O_10 
REMARK    3  A    between atoms: C_4  and  O_8 
REMARK    4  A    between atoms: C_5  and  O_6 
REMARK    5  A    between atoms: C_22  and  C_23 
REMARK    6  A    between atoms: O_12  and  C_13 
REMARK    7  A    between atoms: C_13  and  C_14 
REMARK    8  A    between atoms: C_15  and  C_16 
REMARK    9  A    between atoms: C_23  and  O_24 
REMARK   10  A    between atoms: O_24  and  C_25 
REMARK   11  A    between atoms: C_26  and  O_34 
REMARK   12  A    between atoms: C_27  and  O_32 
REMARK   13  A    between atoms: C_28  and  O_30 
ROOT
ATOM      1  O   LIG     1      13.950  50.810  24.542  0.00  0.00    -0.341 OA
ATOM      2  C   LIG     1      14.351  51.061  23.197  0.00  0.00     0.282 C 
ATOM      3  C   LIG     1      14.259  49.782  22.364  0.00  0.00     0.201 C 
ATOM      4  C   LIG     1      12.870  49.153  22.460  0.00  0.00     0.179 C 
ATOM      5  C   LIG     1      12.409  49.047  23.913  0.00  0.00     0.177 C 
ATOM      6  C   LIG     1      12.590  50.383  24.639  0.00  0.00     0.178 C 
ENDROOT
BRANCH   6   7
ATOM      7  C   LIG     1      12.246  50.272  26.121  0.00  0.00     0.197 C 
BRANCH   7   8
ATOM      8  O   LIG     1      12.213  48.901  26.475  0.00  0.00    -0.346 OA
BRANCH   8   9
ATOM      9  C   LIG     1      12.002  48.721  27.871  0.00  0.00     0.281 C 
ATOM     10  O   LIG     1      12.054  47.340  28.248  0.00  0.00    -0.346 OA
ATOM     11  C   LIG     1      10.984  46.560  27.719  0.00  0.00     0.197 C 
ATOM     12  C   LIG     1       9.642  47.084  28.213  0.00  0.00     0.171 C 
ATOM     13  C   LIG     1       9.462  48.554  27.827  0.00  0.00     0.178 C 
ATOM     14  C   LIG     1      10.674  49.371  28.288  0.00  0.00     0.201 C 
BRANCH  12  15
ATOM     15  O   LIG     1       8.579  46.311  27.673  0.00  0.00    -0.387 OA
ATOM     16  H   LIG     1       8.644  45.417  28.052  0.00  0.00     0.210 HD
ENDBRANCH  12  15
BRANCH  13  17
ATOM     17  O   LIG     1       9.327  48.656  26.411  0.00  0.00    -0.386 OA
ATOM     18  H   LIG     1      10.152  49.040  26.065  0.00  0.00     0.210 HD
ENDBRANCH  13  17
BRANCH  14  19
ATOM     19  O   LIG     1      10.661  49.475  29.709  0.00  0.00    -0.384 OA
ATOM     20  H   LIG     1      10.052  48.805  30.061  0.00  0.00     0.210 HD
ENDBRANCH  14  19
ENDBRANCH   8   9
ENDBRANCH   7   8
ENDBRANCH   6   7
BRANCH   5  21
ATOM     21  O   LIG     1      11.034  48.675  23.946  0.00  0.00    -0.386 OA
ATOM     22  H   LIG     1      10.535  49.325  23.421  0.00  0.00     0.210 HD
ENDBRANCH   5  21
BRANCH   2  23
ATOM     23  O   LIG     1      15.705  51.507  23.173  0.00  0.00    -0.345 OA
BRANCH  23  24
ATOM     24  C   LIG     1      16.503  50.786  24.098  0.00  0.00     0.190 C 
BRANCH  24  25
ATOM     25  C   LIG     1      17.788  50.409  23.434  0.00  0.00     0.001 C 
ATOM     26  C   LIG     1      17.925  49.325  22.656  0.00  0.00     0.006 C 
BRANCH  26  27
ATOM     27  C   LIG     1      19.165  48.922  21.970  0.00  0.00    -0.025 A 
ATOM     28  C   LIG     1      19.246  49.034  20.591  0.00  0.00     0.008 A 
ATOM     29  C   LIG     1      20.421  48.652  19.944  0.00  0.00     0.001 A 
ATOM     30  C   LIG     1      21.498  48.163  20.682  0.00  0.00     0.000 A 
ATOM     31  C   LIG     1      21.402  48.056  22.069  0.00  0.00     0.001 A 
ATOM     32  C   LIG     1      20.227  48.438  22.717  0.00  0.00     0.008 A 
ENDBRANCH  26  27
ENDBRANCH  24  25
ENDBRANCH  23  24
ENDBRANCH   2  23
BRANCH   4  33
ATOM     33  O   LIG     1      12.906  47.834  21.912  0.00  0.00    -0.386 OA
ATOM     34  H   LIG     1      13.621  47.351  22.361  0.00  0.00     0.210 HD
ENDBRANCH   4  33
BRANCH   3  35
ATOM     35  O   LIG     1      14.537  50.114  21.004  0.00  0.00    -0.384 OA
ATOM     36  H   LIG     1      15.160  50.860  20.997  0.00  0.00     0.210 HD
ENDBRANCH   3  35
TORSDOF 13
ENDMDL
MODEL 5
REMARK VINA RESULT:      -8.0      1.555      2.906
REMARK  13 active torsions:
REMARK  status: ('A' for Active; 'I' for Inactive)
REMARK    1  A    between atoms: C_2  and  O_12 
REMARK    2  A    between atoms: C_3  and  O_10 
REMARK    3  A    between atoms: C_4  and  O_8 
REMARK    4  A    between atoms: C_5  and  O_6 
REMARK    5  A    between atoms: C_22  and  C_23 
REMARK    6  A    between atoms: O_12  and  C_13 
REMARK    7  A    between atoms: C_13  and  C_14 
REMARK    8  A    between atoms: C_15  and  C_16 
REMARK    9  A    between atoms: C_23  and  O_24 
REMARK   10  A    between atoms: O_24  and  C_25 
REMARK   11  A    between atoms: C_26  and  O_34 
REMARK   12  A    between atoms: C_27  and  O_32 
REMARK   13  A    between atoms: C_28  and  O_30 
ROOT
ATOM      1  O   LIG     1      14.748  49.277  24.718  0.00  0.00    -0.341 OA
ATOM      2  C   LIG     1      15.390  50.039  23.698  0.00  0.00     0.282 C 
ATOM      3  C   LIG     1      15.611  51.479  24.164  0.00  0.00     0.201 C 
ATOM      4  C   LIG     1      16.357  51.525  25.497  0.00  0.00     0.179 C 
ATOM      5  C   LIG     1      15.731  50.573  26.515  0.00  0.00     0.177 C 
ATOM      6  C   LIG     1      15.532  49.182  25.908  0.00  0.00     0.178 C 
ENDROOT
BRANCH   6   7
ATOM      7  C   LIG     1      14.802  48.246  26.867  0.00  0.00     0.197 C 
BRANCH   7   8
ATOM      8  O   LIG     1      13.470  48.086  26.413  0.00  0.00    -0.346 OA
BRANCH   8   9
ATOM      9  C   LIG     1      12.529  48.606  27.346  0.00  0.00     0.281 C 
ATOM     10  O   LIG     1      11.362  47.782  27.448  0.00  0.00    -0.346 OA
ATOM     11  C   LIG     1      10.570  47.758  26.263  0.00  0.00     0.197 C 
ATOM     12  C   LIG     1      10.072  49.156  25.921  0.00  0.00     0.171 C 
ATOM     13  C   LIG     1      11.248  50.120  25.749  0.00  0.00     0.178 C 
ATOM     14  C   LIG     1      12.168  50.052  26.973  0.00  0.00     0.201 C 
BRANCH  12  15
ATOM     15  O   LIG     1       9.294  49.129  24.733  0.00  0.00    -0.387 OA
ATOM     16  H   LIG     1       9.888  49.321  23.988  0.00  0.00     0.210 HD
ENDBRANCH  12  15
BRANCH  13  17
ATOM     17  O   LIG     1      11.982  49.763  24.579  0.00  0.00    -0.386 OA
ATOM     18  H   LIG     1      12.864  49.468  24.865  0.00  0.00     0.210 HD
ENDBRANCH  13  17
BRANCH  14  19
ATOM     19  O   LIG     1      11.512  50.646  28.090  0.00  0.00    -0.384 OA
ATOM     20  H   LIG     1      12.091  51.334  28.458  0.00  0.00     0.210 HD
ENDBRANCH  14  19
ENDBRANCH   8   9
ENDBRANCH   7   8
ENDBRANCH   6   7
BRANCH   5  21
ATOM     21  O   LIG     1      16.583  50.473  27.654  0.00  0.00    -0.386 OA
ATOM     22  H   LIG     1      16.876  49.548  27.728  0.00  0.00     0.210 HD
ENDBRANCH   5  21
BRANCH   2  23
ATOM     23  O   LIG     1      14.570  50.074  22.532  0.00  0.00    -0.345 OA
BRANCH  23  24
ATOM     24  C   LIG     1      15.195  49.419  21.440  0.00  0.00     0.190 C 
BRANCH  24  25
ATOM     25  C   LIG     1      16.600  49.080  21.822  0.00  0.00     0.001 C 
ATOM     26  C   LIG     1      17.611  49.025  20.941  0.00  0.00     0.006 C 
BRANCH  26  27
ATOM     27  C   LIG     1      19.011  48.711  21.273  0.00  0.00    -0.025 A 
ATOM     28  C   LIG     1      19.948  48.626  20.255  0.00  0.00     0.008 A 
ATOM     29  C   LIG     1      21.273  48.328  20.571  0.00  0.00     0.001 A 
ATOM     30  C   LIG     1      21.645  48.118  21.898  0.00  0.00     0.000 A 
ATOM     31  C   LIG     1      20.692  48.207  22.912  0.00  0.00     0.001 A 
ATOM     32  C   LIG     1      19.366  48.505  22.597  0.00  0.00     0.008 A 
ENDBRANCH  26  27
ENDBRANCH  24  25
ENDBRANCH  23  24
ENDBRANCH   2  23
BRANCH   4  33
ATOM     33  O   LIG     1      16.294  52.848  26.032  0.00  0.00    -0.386 OA
ATOM     34  H   LIG     1      16.077  52.770  26.977  0.00  0.00     0.210 HD
ENDBRANCH   4  33
BRANCH   3  35
ATOM     35  O   LIG     1      16.375  52.159  23.169  0.00  0.00    -0.384 OA
ATOM     36  H   LIG     1      16.992  52.759  23.620  0.00  0.00     0.210 HD
ENDBRANCH   3  35
TORSDOF 13
ENDMDL
MODEL 6
REMARK VINA RESULT:      -7.9      2.181      6.170
REMARK  13 active torsions:
REMARK  status: ('A' for Active; 'I' for Inactive)
REMARK    1  A    between atoms: C_2  and  O_12 
REMARK    2  A    between atoms: C_3  and  O_10 
REMARK    3  A    between atoms: C_4  and  O_8 
REMARK    4  A    between atoms: C_5  and  O_6 
REMARK    5  A    between atoms: C_22  and  C_23 
REMARK    6  A    between atoms: O_12  and  C_13 
REMARK    7  A    between atoms: C_13  and  C_14 
REMARK    8  A    between atoms: C_15  and  C_16 
REMARK    9  A    between atoms: C_23  and  O_24 
REMARK   10  A    between atoms: O_24  and  C_25 
REMARK   11  A    between atoms: C_26  and  O_34 
REMARK   12  A    between atoms: C_27  and  O_32 
REMARK   13  A    between atoms: C_28  and  O_30 
ROOT
ATOM      1  O   LIG     1      12.614  49.483  26.415  0.00  0.00    -0.341 OA
ATOM      2  C   LIG     1      12.692  48.179  26.985  0.00  0.00     0.282 C 
ATOM      3  C   LIG     1      11.363  47.802  27.642  0.00  0.00     0.201 C 
ATOM      4  C   LIG     1      10.197  47.952  26.666  0.00  0.00     0.179 C 
ATOM      5  C   LIG     1      10.240  49.305  25.956  0.00  0.00     0.177 C 
ATOM      6  C   LIG     1      11.633  49.572  25.380  0.00  0.00     0.178 C 
ENDROOT
BRANCH   6   7
ATOM      7  C   LIG     1      11.735  50.965  24.768  0.00  0.00     0.197 C 
BRANCH   7   8
ATOM      8  O   LIG     1      13.077  51.189  24.376  0.00  0.00    -0.346 OA
BRANCH   8   9
ATOM      9  C   LIG     1      13.514  50.233  23.417  0.00  0.00     0.281 C 
ATOM     10  O   LIG     1      14.889  49.878  23.602  0.00  0.00    -0.346 OA
ATOM     11  C   LIG     1      15.798  50.944  23.340  0.00  0.00     0.197 C 
ATOM     12  C   LIG     1      15.672  51.415  21.897  0.00  0.00     0.171 C 
ATOM     13  C   LIG     1      14.238  51.859  21.598  0.00  0.00     0.178 C 
ATOM     14  C   LIG     1      13.251  50.757  21.998  0.00  0.00     0.201 C 
BRANCH  12  15
ATOM     15  O   LIG     1      16.571  52.486  21.644  0.00  0.00    -0.387 OA
ATOM     16  H   LIG     1      16.380  52.825  20.752  0.00  0.00     0.210 HD
ENDBRANCH  12  15
BRANCH  13  17
ATOM     17  O   LIG     1      13.951  53.048  22.333  0.00  0.00    -0.386 OA
ATOM     18  H   LIG     1      13.811  52.792  23.261  0.00  0.00     0.210 HD
ENDBRANCH  13  17
BRANCH  14  19
ATOM     19  O   LIG     1      13.374  49.662  21.093  0.00  0.00    -0.384 OA
ATOM     20  H   LIG     1      12.843  48.922  21.432  0.00  0.00     0.210 HD
ENDBRANCH  14  19
ENDBRANCH   8   9
ENDBRANCH   7   8
ENDBRANCH   6   7
BRANCH   5  21
ATOM     21  O   LIG     1       9.284  49.314  24.900  0.00  0.00    -0.386 OA
ATOM     22  H   LIG     1       8.446  49.658  25.257  0.00  0.00     0.210 HD
ENDBRANCH   5  21
BRANCH   2  23
ATOM     23  O   LIG     1      13.703  48.151  27.990  0.00  0.00    -0.345 OA
BRANCH  23  24
ATOM     24  C   LIG     1      14.498  49.326  27.956  0.00  0.00     0.190 C 
BRANCH  24  25
ATOM     25  C   LIG     1      15.907  48.945  27.632  0.00  0.00     0.001 C 
ATOM     26  C   LIG     1      16.316  48.615  26.397  0.00  0.00     0.006 C 
BRANCH  26  27
ATOM     27  C   LIG     1      17.694  48.248  26.029  0.00  0.00    -0.025 A 
ATOM     28  C   LIG     1      18.164  48.558  24.762  0.00  0.00     0.008 A 
ATOM     29  C   LIG     1      19.469  48.210  24.414  0.00  0.00     0.001 A 
ATOM     30  C   LIG     1      20.287  47.556  25.335  0.00  0.00     0.000 A 
ATOM     31  C   LIG     1      19.800  47.251  26.606  0.00  0.00     0.001 A 
ATOM     32  C   LIG     1      18.495  47.599  26.955  0.00  0.00     0.008 A 
ENDBRANCH  26  27
ENDBRANCH  24  25
ENDBRANCH  23  24
ENDBRANCH   2  23
BRANCH   4  33
ATOM     33  O   LIG     1       8.963  47.869  27.382  0.00  0.00    -0.386 OA
ATOM     34  H   LIG     1       9.057  48.408  28.186  0.00  0.00     0.210 HD
ENDBRANCH   4  33
BRANCH   3  35
ATOM     35  O   LIG     1      11.447  46.444  28.074  0.00  0.00    -0.384 OA
ATOM     36  H   LIG     1      11.041  45.884  27.392  0.00  0.00     0.210 HD
ENDBRANCH   3  35
TORSDOF 13
ENDMDL
MODEL 7
REMARK VINA RESULT:      -7.8      2.887      8.497
REMARK  13 active torsions:
REMARK  status: ('A' for Active; 'I' for Inactive)
REMARK    1  A    between atoms: C_2  and  O_12 
REMARK    2  A    between atoms: C_3  and  O_10 
REMARK    3  A    between atoms: C_4  and  O_8 
REMARK    4  A    between atoms: C_5  and  O_6 
REMARK    5  A    between atoms: C_22  and  C_23 
REMARK    6  A    between atoms: O_12  and  C_13 
REMARK    7  A    between atoms: C_13  and  C_14 
REMARK    8  A    between atoms: C_15  and  C_16 
REMARK    9  A    between atoms: C_23  and  O_24 
REMARK   10  A    between atoms: O_24  and  C_25 
REMARK   11  A    between atoms: C_26  and  O_34 
REMARK   12  A    between atoms: C_27  and  O_32 
REMARK   13  A    between atoms: C_28  and  O_30 
ROOT
ATOM      1  O   LIG     1      14.772  50.817  24.359  0.00  0.00    -0.341 OA
ATOM      2  C   LIG     1      13.937  50.252  23.351  0.00  0.00     0.282 C 
ATOM      3  C   LIG     1      14.060  51.044  22.049  0.00  0.00     0.201 C 
ATOM      4  C   LIG     1      15.518  51.170  21.608  0.00  0.00     0.179 C 
ATOM      5  C   LIG     1      16.408  51.626  22.763  0.00  0.00     0.177 C 
ATOM      6  C   LIG     1      16.157  50.776  24.011  0.00  0.00     0.178 C 
ENDROOT
BRANCH   6   7
ATOM      7  C   LIG     1      16.949  51.287  25.212  0.00  0.00     0.197 C 
BRANCH   7   8
ATOM      8  O   LIG     1      18.315  50.966  25.019  0.00  0.00    -0.346 OA
BRANCH   8   9
ATOM      9  C   LIG     1      18.750  49.950  25.916  0.00  0.00     0.281 C 
ATOM     10  O   LIG     1      20.140  50.076  26.236  0.00  0.00    -0.346 OA
ATOM     11  C   LIG     1      21.009  49.839  25.131  0.00  0.00     0.197 C 
ATOM     12  C   LIG     1      20.823  48.424  24.596  0.00  0.00     0.171 C 
ATOM     13  C   LIG     1      19.369  48.190  24.183  0.00  0.00     0.178 C 
ATOM     14  C   LIG     1      18.428  48.565  25.332  0.00  0.00     0.201 C 
BRANCH  12  15
ATOM     15  O   LIG     1      21.683  48.197  23.488  0.00  0.00    -0.387 OA
ATOM     16  H   LIG     1      21.332  47.435  22.996  0.00  0.00     0.210 HD
ENDBRANCH  12  15
BRANCH  13  17
ATOM     17  O   LIG     1      19.070  48.990  23.040  0.00  0.00    -0.386 OA
ATOM     18  H   LIG     1      19.422  49.881  23.206  0.00  0.00     0.210 HD
ENDBRANCH  13  17
BRANCH  14  19
ATOM     19  O   LIG     1      18.555  47.606  26.379  0.00  0.00    -0.384 OA
ATOM     20  H   LIG     1      18.894  46.778  25.998  0.00  0.00     0.210 HD
ENDBRANCH  14  19
ENDBRANCH   8   9
ENDBRANCH   7   8
ENDBRANCH   6   7
BRANCH   5  21
ATOM     21  O   LIG     1      17.775  51.509  22.380  0.00  0.00    -0.386 OA
ATOM     22  H   LIG     1      17.865  51.860  21.477  0.00  0.00     0.210 HD
ENDBRANCH   5  21
BRANCH   2  23
ATOM     23  O   LIG     1      12.575  50.300  23.770  0.00  0.00    -0.345 OA
BRANCH  23  24
ATOM     24  C   LIG     1      12.097  49.012  24.123  0.00  0.00     0.190 C 
BRANCH  24  25
ATOM     25  C   LIG     1      11.945  48.946  25.609  0.00  0.00     0.001 C 
ATOM     26  C   LIG     1      11.559  49.991  26.358  0.00  0.00     0.006 C 
BRANCH  26  27
ATOM     27  C   LIG     1      11.382  49.968  27.820  0.00  0.00    -0.025 A 
ATOM     28  C   LIG     1      10.543  49.022  28.388  0.00  0.00     0.008 A 
ATOM     29  C   LIG     1      10.376  49.001  29.772  0.00  0.00     0.001 A 
ATOM     30  C   LIG     1      11.048  49.926  30.571  0.00  0.00     0.000 A 
ATOM     31  C   LIG     1      11.889  50.872  29.986  0.00  0.00     0.001 A 
ATOM     32  C   LIG     1      12.056  50.893  28.601  0.00  0.00     0.008 A 
ENDBRANCH  26  27
ENDBRANCH  24  25
ENDBRANCH  23  24
ENDBRANCH   2  23
BRANCH   4  33
ATOM     33  O   LIG     1      15.617  52.139  20.564  0.00  0.00    -0.386 OA
ATOM     34  H   LIG     1      16.241  51.793  19.904  0.00  0.00     0.210 HD
ENDBRANCH   4  33
BRANCH   3  35
ATOM     35  O   LIG     1      13.316  50.362  21.039  0.00  0.00    -0.384 OA
ATOM     36  H   LIG     1      13.948  49.963  20.417  0.00  0.00     0.210 HD
ENDBRANCH   3  35
TORSDOF 13
ENDMDL
MODEL 8
REMARK VINA RESULT:      -7.7      2.716      8.556
REMARK  13 active torsions:
REMARK  status: ('A' for Active; 'I' for Inactive)
REMARK    1  A    between atoms: C_2  and  O_12 
REMARK    2  A    between atoms: C_3  and  O_10 
REMARK    3  A    between atoms: C_4  and  O_8 
REMARK    4  A    between atoms: C_5  and  O_6 
REMARK    5  A    between atoms: C_22  and  C_23 
REMARK    6  A    between atoms: O_12  and  C_13 
REMARK    7  A    between atoms: C_13  and  C_14 
REMARK    8  A    between atoms: C_15  and  C_16 
REMARK    9  A    between atoms: C_23  and  O_24 
REMARK   10  A    between atoms: O_24  and  C_25 
REMARK   11  A    between atoms: C_26  and  O_34 
REMARK   12  A    between atoms: C_27  and  O_32 
REMARK   13  A    between atoms: C_28  and  O_30 
ROOT
ATOM      1  O   LIG     1      14.856  50.602  24.324  0.00  0.00    -0.341 OA
ATOM      2  C   LIG     1      14.055  50.008  23.305  0.00  0.00     0.282 C 
ATOM      3  C   LIG     1      14.081  50.863  22.037  0.00  0.00     0.201 C 
ATOM      4  C   LIG     1      15.513  51.137  21.581  0.00  0.00     0.179 C 
ATOM      5  C   LIG     1      16.382  51.622  22.741  0.00  0.00     0.177 C 
ATOM      6  C   LIG     1      16.232  50.699  23.954  0.00  0.00     0.178 C 
ENDROOT
BRANCH   6   7
ATOM      7  C   LIG     1      16.998  51.227  25.163  0.00  0.00     0.197 C 
BRANCH   7   8
ATOM      8  O   LIG     1      17.790  50.176  25.687  0.00  0.00    -0.346 OA
BRANCH   8   9
ATOM      9  C   LIG     1      19.181  50.459  25.581  0.00  0.00     0.281 C 
ATOM     10  O   LIG     1      19.642  50.388  24.227  0.00  0.00    -0.346 OA
ATOM     11  C   LIG     1      19.599  49.075  23.674  0.00  0.00     0.197 C 
ATOM     12  C   LIG     1      20.485  48.127  24.473  0.00  0.00     0.171 C 
ATOM     13  C   LIG     1      20.053  48.095  25.941  0.00  0.00     0.178 C 
ATOM     14  C   LIG     1      19.978  49.520  26.499  0.00  0.00     0.201 C 
BRANCH  12  15
ATOM     15  O   LIG     1      20.430  46.817  23.926  0.00  0.00    -0.387 OA
ATOM     16  H   LIG     1      19.761  46.822  23.220  0.00  0.00     0.210 HD
ENDBRANCH  12  15
BRANCH  13  17
ATOM     17  O   LIG     1      18.773  47.474  26.042  0.00  0.00    -0.386 OA
ATOM     18  H   LIG     1      18.332  47.570  25.180  0.00  0.00     0.210 HD
ENDBRANCH  13  17
BRANCH  14  19
ATOM     19  O   LIG     1      21.296  50.046  26.631  0.00  0.00    -0.384 OA
ATOM     20  H   LIG     1      21.930  49.318  26.519  0.00  0.00     0.210 HD
ENDBRANCH  14  19
ENDBRANCH   8   9
ENDBRANCH   7   8
ENDBRANCH   6   7
BRANCH   5  21
ATOM     21  O   LIG     1      17.747  51.644  22.332  0.00  0.00    -0.386 OA
ATOM     22  H   LIG     1      17.788  52.049  21.448  0.00  0.00     0.210 HD
ENDBRANCH   5  21
BRANCH   2  23
ATOM     23  O   LIG     1      12.702  49.917  23.747  0.00  0.00    -0.345 OA
BRANCH  23  24
ATOM     24  C   LIG     1      12.273  51.125  24.353  0.00  0.00     0.190 C 
BRANCH  24  25
ATOM     25  C   LIG     1      11.807  50.829  25.742  0.00  0.00     0.001 C 
ATOM     26  C   LIG     1      11.334  49.631  26.121  0.00  0.00     0.006 C 
BRANCH  26  27
ATOM     27  C   LIG     1      10.878  49.289  27.479  0.00  0.00    -0.025 A 
ATOM     28  C   LIG     1       9.965  48.261  27.650  0.00  0.00     0.008 A 
ATOM     29  C   LIG     1       9.534  47.937  28.937  0.00  0.00     0.001 A 
ATOM     30  C   LIG     1      10.020  48.646  30.035  0.00  0.00     0.000 A 
ATOM     31  C   LIG     1      10.938  49.679  29.847  0.00  0.00     0.001 A 
ATOM     32  C   LIG     1      11.370  50.003  28.561  0.00  0.00     0.008 A 
ENDBRANCH  26  27
ENDBRANCH  24  25
ENDBRANCH  23  24
ENDBRANCH   2  23
BRANCH   4  33
ATOM     33  O   LIG     1      15.506  52.156  20.579  0.00  0.00    -0.386 OA
ATOM     34  H   LIG     1      16.343  52.646  20.656  0.00  0.00     0.210 HD
ENDBRANCH   4  33
BRANCH   3  35
ATOM     35  O   LIG     1      13.381  50.161  21.010  0.00  0.00    -0.384 OA
ATOM     36  H   LIG     1      13.454  49.210  21.193  0.00  0.00     0.210 HD
ENDBRANCH   3  35
TORSDOF 13
ENDMDL
