MODEL 1
REMARK VINA RESULT:      -4.1      0.000      0.000
REMARK  10 active torsions:
REMARK  status: ('A' for Active; 'I' for Inactive)
REMARK    1  A    between atoms: O_2  and  C_12 
REMARK    2  A    between atoms: O_2  and  C_14 
REMARK    3  A    between atoms: O_3  and  C_8 
REMARK    4  A    between atoms: O_4  and  C_9 
REMARK    5  A    between atoms: O_5  and  C_10 
REMARK    6  A    between atoms: O_6  and  C_13 
REMARK    7  A    between atoms: O_7  and  C_21 
REMARK    8  A    between atoms: C_11  and  C_13 
REMARK    9  A    between atoms: C_14  and  C_15 
REMARK   10  A    between atoms: C_15  and  C_16 
ROOT
HETATM    1  O   UNK     0      -4.857  -4.598   9.109  0.00  0.00    -0.348 OA
HETATM    2  C   UNK     0      -2.680  -4.747  10.976  0.00  0.00     0.183 C 
HETATM    3  C   UNK     0      -3.935  -3.915  11.244  0.00  0.00     0.180 C 
HETATM    4  C   UNK     0      -2.491  -4.997   9.480  0.00  0.00     0.204 C 
HETATM    5  C   UNK     0      -5.141  -4.499  10.506  0.00  0.00     0.179 C 
HETATM    6  C   UNK     0      -3.783  -5.493   8.831  0.00  0.00     0.291 C 
ENDROOT
BRANCH   5   7
HETATM    7  C   UNK     0      -6.378  -3.621  10.662  0.00  0.00     0.198 C 
BRANCH   7   8
HETATM    8  O   UNK     0      -5.963  -2.274  10.788  0.00  0.00    -0.398 OA
HETATM    9  H   UNK     0      -5.781  -2.108  11.728  0.00  0.00     0.209 HD
ENDBRANCH   7   8
ENDBRANCH   5   7
BRANCH   6  10
HETATM   10  O   UNK     0      -3.568  -5.565   7.423  0.00  0.00    -0.358 OA
BRANCH  10  11
HETATM   11  C   UNK     0      -4.246  -6.674   6.852  0.00  0.00     0.175 C 
BRANCH  11  12
HETATM   12  C   UNK     0      -3.370  -7.918   6.948  0.00  0.00     0.065 C 
BRANCH  12  13
HETATM   13  C   UNK     0      -2.273  -7.929   5.910  0.00  0.00    -0.056 A 
HETATM   14  C   UNK     0      -0.987  -8.278   6.285  0.00  0.00     0.010 A 
HETATM   15  C   UNK     0       0.027  -8.288   5.326  0.00  0.00     0.037 A 
HETATM   16  C   UNK     0      -0.262  -7.947   4.004  0.00  0.00     0.065 A 
HETATM   17  C   UNK     0      -1.562  -7.598   3.641  0.00  0.00     0.037 A 
HETATM   18  C   UNK     0      -2.574  -7.588   4.601  0.00  0.00     0.010 A 
BRANCH  16  19
HETATM   19  O   UNK     0       0.727  -7.957   3.069  0.00  0.00    -0.361 OA
HETATM   20  H   UNK     0       0.784  -8.846   2.680  0.00  0.00     0.217 HD
ENDBRANCH  16  19
ENDBRANCH  12  13
ENDBRANCH  11  12
ENDBRANCH  10  11
ENDBRANCH   6  10
BRANCH   3  21
HETATM   21  O   UNK     0      -4.201  -3.901  12.644  0.00  0.00    -0.390 OA
HETATM   22  H   UNK     0      -5.081  -3.511  12.779  0.00  0.00     0.210 HD
ENDBRANCH   3  21
BRANCH   4  23
HETATM   23  O   UNK     0      -1.484  -5.992   9.289  0.00  0.00    -0.388 OA
HETATM   24  H   UNK     0      -1.926  -6.829   9.065  0.00  0.00     0.210 HD
ENDBRANCH   4  23
BRANCH   2  25
HETATM   25  O   UNK     0      -1.556  -4.027  11.484  0.00  0.00    -0.390 OA
HETATM   26  H   UNK     0      -1.589  -3.131  11.107  0.00  0.00     0.210 HD
ENDBRANCH   2  25
TORSDOF 10
ENDMDL
MODEL 2
REMARK VINA RESULT:      -4.1      1.901      7.362
REMARK  10 active torsions:
REMARK  status: ('A' for Active; 'I' for Inactive)
REMARK    1  A    between atoms: O_2  and  C_12 
REMARK    2  A    between atoms: O_2  and  C_14 
REMARK    3  A    between atoms: O_3  and  C_8 
REMARK    4  A    between atoms: O_4  and  C_9 
REMARK    5  A    between atoms: O_5  and  C_10 
REMARK    6  A    between atoms: O_6  and  C_13 
REMARK    7  A    between atoms: O_7  and  C_21 
REMARK    8  A    between atoms: C_11  and  C_13 
REMARK    9  A    between atoms: C_14  and  C_15 
REMARK   10  A    between atoms: C_15  and  C_16 
ROOT
HETATM    1  O   UNK     0      -1.025  -7.546   7.554  0.00  0.00    -0.348 OA
HETATM    2  C   UNK     0      -1.739  -5.972   5.260  0.00  0.00     0.183 C 
HETATM    3  C   UNK     0      -1.048  -7.330   5.140  0.00  0.00     0.180 C 
HETATM    4  C   UNK     0      -1.498  -5.348   6.636  0.00  0.00     0.204 C 
HETATM    5  C   UNK     0      -1.378  -8.216   6.343  0.00  0.00     0.179 C 
HETATM    6  C   UNK     0      -1.775  -6.350   7.757  0.00  0.00     0.291 C 
ENDROOT
BRANCH   5   7
HETATM    7  C   UNK     0      -0.608  -9.531   6.305  0.00  0.00     0.198 C 
BRANCH   7   8
HETATM    8  O   UNK     0       0.592  -9.331   5.581  0.00  0.00    -0.398 OA
HETATM    9  H   UNK     0       0.959 -10.207   5.372  0.00  0.00     0.209 HD
ENDBRANCH   7   8
ENDBRANCH   5   7
BRANCH   6  10
HETATM   10  O   UNK     0      -1.393  -5.745   8.991  0.00  0.00    -0.358 OA
BRANCH  10  11
HETATM   11  C   UNK     0      -2.270  -6.119  10.043  0.00  0.00     0.175 C 
BRANCH  11  12
HETATM   12  C   UNK     0      -3.692  -6.242   9.509  0.00  0.00     0.065 C 
BRANCH  12  13
HETATM   13  C   UNK     0      -4.563  -5.080   9.923  0.00  0.00    -0.056 A 
HETATM   14  C   UNK     0      -5.935  -5.253  10.000  0.00  0.00     0.010 A 
HETATM   15  C   UNK     0      -6.739  -4.179  10.383  0.00  0.00     0.037 A 
HETATM   16  C   UNK     0      -6.159  -2.946  10.684  0.00  0.00     0.065 A 
HETATM   17  C   UNK     0      -4.776  -2.787  10.602  0.00  0.00     0.037 A 
HETATM   18  C   UNK     0      -3.973  -3.861  10.220  0.00  0.00     0.010 A 
BRANCH  16  19
HETATM   19  O   UNK     0      -6.944  -1.899  11.057  0.00  0.00    -0.361 OA
HETATM   20  H   UNK     0      -7.805  -2.241  11.354  0.00  0.00     0.217 HD
ENDBRANCH  16  19
ENDBRANCH  12  13
ENDBRANCH  11  12
ENDBRANCH  10  11
ENDBRANCH   6  10
BRANCH   3  21
HETATM   21  O   UNK     0      -1.482  -7.976   3.946  0.00  0.00    -0.390 OA
HETATM   22  H   UNK     0      -0.812  -8.636   3.700  0.00  0.00     0.210 HD
ENDBRANCH   3  21
BRANCH   4  23
HETATM   23  O   UNK     0      -2.371  -4.231   6.809  0.00  0.00    -0.388 OA
HETATM   24  H   UNK     0      -3.176  -4.544   7.255  0.00  0.00     0.210 HD
ENDBRANCH   4  23
BRANCH   2  25
HETATM   25  O   UNK     0      -1.207  -5.114   4.250  0.00  0.00    -0.390 OA
HETATM   26  H   UNK     0      -1.927  -4.916   3.627  0.00  0.00     0.210 HD
ENDBRANCH   2  25
TORSDOF 10
ENDMDL
MODEL 3
REMARK VINA RESULT:      -4.1     10.138     11.447
REMARK  10 active torsions:
REMARK  status: ('A' for Active; 'I' for Inactive)
REMARK    1  A    between atoms: O_2  and  C_12 
REMARK    2  A    between atoms: O_2  and  C_14 
REMARK    3  A    between atoms: O_3  and  C_8 
REMARK    4  A    between atoms: O_4  and  C_9 
REMARK    5  A    between atoms: O_5  and  C_10 
REMARK    6  A    between atoms: O_6  and  C_13 
REMARK    7  A    between atoms: O_7  and  C_21 
REMARK    8  A    between atoms: C_11  and  C_13 
REMARK    9  A    between atoms: C_14  and  C_15 
REMARK   10  A    between atoms: C_15  and  C_16 
ROOT
HETATM    1  O   UNK     0       1.424   4.751   6.056  0.00  0.00    -0.348 OA
HETATM    2  C   UNK     0       1.672   2.750   8.102  0.00  0.00     0.183 C 
HETATM    3  C   UNK     0       2.066   2.490   6.648  0.00  0.00     0.180 C 
HETATM    4  C   UNK     0       0.677   3.907   8.207  0.00  0.00     0.204 C 
HETATM    5  C   UNK     0       2.477   3.790   5.955  0.00  0.00     0.179 C 
HETATM    6  C   UNK     0       1.148   5.120   7.406  0.00  0.00     0.291 C 
ENDROOT
BRANCH   5   7
HETATM    7  C   UNK     0       2.761   3.575   4.473  0.00  0.00     0.198 C 
BRANCH   7   8
HETATM    8  O   UNK     0       2.078   2.412   4.046  0.00  0.00    -0.398 OA
HETATM    9  H   UNK     0       1.133   2.631   3.983  0.00  0.00     0.209 HD
ENDBRANCH   7   8
ENDBRANCH   5   7
BRANCH   6  10
HETATM   10  O   UNK     0       0.108   6.096   7.435  0.00  0.00    -0.358 OA
BRANCH  10  11
HETATM   11  C   UNK     0      -0.439   6.307   6.142  0.00  0.00     0.175 C 
BRANCH  11  12
HETATM   12  C   UNK     0      -1.819   5.665   6.055  0.00  0.00     0.065 C 
BRANCH  12  13
HETATM   13  C   UNK     0      -1.903   4.633   4.956  0.00  0.00    -0.056 A 
HETATM   14  C   UNK     0      -2.429   4.992   3.726  0.00  0.00     0.010 A 
HETATM   15  C   UNK     0      -2.508   4.038   2.711  0.00  0.00     0.037 A 
HETATM   16  C   UNK     0      -2.058   2.737   2.941  0.00  0.00     0.065 A 
HETATM   17  C   UNK     0      -1.531   2.391   4.184  0.00  0.00     0.037 A 
HETATM   18  C   UNK     0      -1.453   3.345   5.199  0.00  0.00     0.010 A 
BRANCH  16  19
HETATM   19  O   UNK     0      -2.135   1.807   1.950  0.00  0.00    -0.361 OA
HETATM   20  H   UNK     0      -3.041   1.456   1.917  0.00  0.00     0.217 HD
ENDBRANCH  16  19
ENDBRANCH  12  13
ENDBRANCH  11  12
ENDBRANCH  10  11
ENDBRANCH   6  10
BRANCH   3  21
HETATM   21  O   UNK     0       3.155   1.572   6.613  0.00  0.00    -0.390 OA
HETATM   22  H   UNK     0       3.604   1.604   7.475  0.00  0.00     0.210 HD
ENDBRANCH   3  21
BRANCH   4  23
HETATM   23  O   UNK     0       0.547   4.297   9.574  0.00  0.00    -0.388 OA
HETATM   24  H   UNK     0      -0.389   4.209   9.825  0.00  0.00     0.210 HD
ENDBRANCH   4  23
BRANCH   2  25
HETATM   25  O   UNK     0       1.074   1.561   8.618  0.00  0.00    -0.390 OA
HETATM   26  H   UNK     0       0.741   1.050   7.861  0.00  0.00     0.210 HD
ENDBRANCH   2  25
TORSDOF 10
ENDMDL
MODEL 4
REMARK VINA RESULT:      -4.1      1.936      7.080
REMARK  10 active torsions:
REMARK  status: ('A' for Active; 'I' for Inactive)
REMARK    1  A    between atoms: O_2  and  C_12 
REMARK    2  A    between atoms: O_2  and  C_14 
REMARK    3  A    between atoms: O_3  and  C_8 
REMARK    4  A    between atoms: O_4  and  C_9 
REMARK    5  A    between atoms: O_5  and  C_10 
REMARK    6  A    between atoms: O_6  and  C_13 
REMARK    7  A    between atoms: O_7  and  C_21 
REMARK    8  A    between atoms: C_11  and  C_13 
REMARK    9  A    between atoms: C_14  and  C_15 
REMARK   10  A    between atoms: C_15  and  C_16 
ROOT
HETATM    1  O   UNK     0      -1.169  -7.570   7.822  0.00  0.00    -0.348 OA
HETATM    2  C   UNK     0      -1.919  -5.216   6.357  0.00  0.00     0.183 C 
HETATM    3  C   UNK     0      -0.994  -6.285   5.774  0.00  0.00     0.180 C 
HETATM    4  C   UNK     0      -1.925  -5.264   7.885  0.00  0.00     0.204 C 
HETATM    5  C   UNK     0      -1.281  -7.652   6.400  0.00  0.00     0.179 C 
HETATM    6  C   UNK     0      -2.131  -6.689   8.397  0.00  0.00     0.291 C 
ENDROOT
BRANCH   5   7
HETATM    7  C   UNK     0      -0.293  -8.711   5.922  0.00  0.00     0.198 C 
BRANCH   7   8
HETATM    8  O   UNK     0       0.941  -8.081   5.636  0.00  0.00    -0.398 OA
HETATM    9  H   UNK     0       0.745  -7.217   5.235  0.00  0.00     0.209 HD
ENDBRANCH   7   8
ENDBRANCH   5   7
BRANCH   6  10
HETATM   10  O   UNK     0      -1.982  -6.672   9.816  0.00  0.00    -0.358 OA
BRANCH  10  11
HETATM   11  C   UNK     0      -2.934  -7.516  10.445  0.00  0.00     0.175 C 
BRANCH  11  12
HETATM   12  C   UNK     0      -3.439  -6.859  11.725  0.00  0.00     0.065 C 
BRANCH  12  13
HETATM   13  C   UNK     0      -4.273  -5.631  11.449  0.00  0.00    -0.056 A 
HETATM   14  C   UNK     0      -3.916  -4.424  12.026  0.00  0.00     0.010 A 
HETATM   15  C   UNK     0      -4.687  -3.290  11.770  0.00  0.00     0.037 A 
HETATM   16  C   UNK     0      -5.805  -3.379  10.941  0.00  0.00     0.065 A 
HETATM   17  C   UNK     0      -6.152  -4.601  10.367  0.00  0.00     0.037 A 
HETATM   18  C   UNK     0      -5.381  -5.735  10.622  0.00  0.00     0.010 A 
BRANCH  16  19
HETATM   19  O   UNK     0      -6.557  -2.272  10.692  0.00  0.00    -0.361 OA
HETATM   20  H   UNK     0      -5.981  -1.573  10.337  0.00  0.00     0.217 HD
ENDBRANCH  16  19
ENDBRANCH  12  13
ENDBRANCH  11  12
ENDBRANCH  10  11
ENDBRANCH   6  10
BRANCH   3  21
HETATM   21  O   UNK     0      -1.191  -6.362   4.365  0.00  0.00    -0.390 OA
HETATM   22  H   UNK     0      -2.138  -6.230   4.186  0.00  0.00     0.210 HD
ENDBRANCH   3  21
BRANCH   4  23
HETATM   23  O   UNK     0      -2.991  -4.452   8.380  0.00  0.00    -0.388 OA
HETATM   24  H   UNK     0      -3.823  -4.944   8.265  0.00  0.00     0.210 HD
ENDBRANCH   4  23
BRANCH   2  25
HETATM   25  O   UNK     0      -1.448  -3.940   5.922  0.00  0.00    -0.390 OA
HETATM   26  H   UNK     0      -0.521  -3.861   6.203  0.00  0.00     0.210 HD
ENDBRANCH   2  25
TORSDOF 10
ENDMDL
MODEL 5
REMARK VINA RESULT:      -4.0      2.017      7.612
REMARK  10 active torsions:
REMARK  status: ('A' for Active; 'I' for Inactive)
REMARK    1  A    between atoms: O_2  and  C_12 
REMARK    2  A    between atoms: O_2  and  C_14 
REMARK    3  A    between atoms: O_3  and  C_8 
REMARK    4  A    between atoms: O_4  and  C_9 
REMARK    5  A    between atoms: O_5  and  C_10 
REMARK    6  A    between atoms: O_6  and  C_13 
REMARK    7  A    between atoms: O_7  and  C_21 
REMARK    8  A    between atoms: C_11  and  C_13 
REMARK    9  A    between atoms: C_14  and  C_15 
REMARK   10  A    between atoms: C_15  and  C_16 
ROOT
HETATM    1  O   UNK     0      -2.715  -6.921   4.889  0.00  0.00    -0.348 OA
HETATM    2  C   UNK     0      -0.495  -8.442   3.887  0.00  0.00     0.183 C 
HETATM    3  C   UNK     0      -1.885  -8.503   3.252  0.00  0.00     0.180 C 
HETATM    4  C   UNK     0      -0.571  -7.967   5.339  0.00  0.00     0.204 C 
HETATM    5  C   UNK     0      -2.648  -7.198   3.490  0.00  0.00     0.179 C 
HETATM    6  C   UNK     0      -1.429  -6.710   5.469  0.00  0.00     0.291 C 
ENDROOT
BRANCH   5   7
HETATM    7  C   UNK     0      -4.078  -7.277   2.968  0.00  0.00     0.198 C 
BRANCH   7   8
HETATM    8  O   UNK     0      -4.367  -6.086   2.260  0.00  0.00    -0.398 OA
HETATM    9  H   UNK     0      -4.554  -6.329   1.338  0.00  0.00     0.209 HD
ENDBRANCH   7   8
ENDBRANCH   5   7
BRANCH   6  10
HETATM   10  O   UNK     0      -1.569  -6.415   6.857  0.00  0.00    -0.358 OA
BRANCH  10  11
HETATM   11  C   UNK     0      -2.918  -6.126   7.191  0.00  0.00     0.175 C 
BRANCH  11  12
HETATM   12  C   UNK     0      -3.127  -6.299   8.691  0.00  0.00     0.065 C 
BRANCH  12  13
HETATM   13  C   UNK     0      -4.016  -5.228   9.274  0.00  0.00    -0.056 A 
HETATM   14  C   UNK     0      -5.391  -5.394   9.242  0.00  0.00     0.010 A 
HETATM   15  C   UNK     0      -6.213  -4.404   9.780  0.00  0.00     0.037 A 
HETATM   16  C   UNK     0      -5.647  -3.260  10.344  0.00  0.00     0.065 A 
HETATM   17  C   UNK     0      -4.262  -3.106  10.369  0.00  0.00     0.037 A 
HETATM   18  C   UNK     0      -3.441  -4.096   9.831  0.00  0.00     0.010 A 
BRANCH  16  19
HETATM   19  O   UNK     0      -6.450  -2.294  10.870  0.00  0.00    -0.361 OA
HETATM   20  H   UNK     0      -6.897  -2.649  11.657  0.00  0.00     0.217 HD
ENDBRANCH  16  19
ENDBRANCH  12  13
ENDBRANCH  11  12
ENDBRANCH  10  11
ENDBRANCH   6  10
BRANCH   3  21
HETATM   21  O   UNK     0      -1.752  -8.722   1.850  0.00  0.00    -0.390 OA
HETATM   22  H   UNK     0      -2.578  -9.122   1.529  0.00  0.00     0.210 HD
ENDBRANCH   3  21
BRANCH   4  23
HETATM   23  O   UNK     0       0.743  -7.662   5.806  0.00  0.00    -0.388 OA
HETATM   24  H   UNK     0       1.237  -7.255   5.074  0.00  0.00     0.210 HD
ENDBRANCH   4  23
BRANCH   2  25
HETATM   25  O   UNK     0       0.067  -9.754   3.845  0.00  0.00    -0.390 OA
HETATM   26  H   UNK     0       0.421  -9.891   2.949  0.00  0.00     0.210 HD
ENDBRANCH   2  25
TORSDOF 10
ENDMDL
MODEL 6
REMARK VINA RESULT:      -4.0      9.548     11.601
REMARK  10 active torsions:
REMARK  status: ('A' for Active; 'I' for Inactive)
REMARK    1  A    between atoms: O_2  and  C_12 
REMARK    2  A    between atoms: O_2  and  C_14 
REMARK    3  A    between atoms: O_3  and  C_8 
REMARK    4  A    between atoms: O_4  and  C_9 
REMARK    5  A    between atoms: O_5  and  C_10 
REMARK    6  A    between atoms: O_6  and  C_13 
REMARK    7  A    between atoms: O_7  and  C_21 
REMARK    8  A    between atoms: C_11  and  C_13 
REMARK    9  A    between atoms: C_14  and  C_15 
REMARK   10  A    between atoms: C_15  and  C_16 
ROOT
HETATM    1  O   UNK     0      -2.042   4.487   4.502  0.00  0.00    -0.348 OA
HETATM    2  C   UNK     0      -1.272   1.723   4.626  0.00  0.00     0.183 C 
HETATM    3  C   UNK     0      -2.127   2.286   3.490  0.00  0.00     0.180 C 
HETATM    4  C   UNK     0      -1.360   2.603   5.873  0.00  0.00     0.204 C 
HETATM    5  C   UNK     0      -1.839   3.774   3.281  0.00  0.00     0.179 C 
HETATM    6  C   UNK     0      -1.144   4.077   5.531  0.00  0.00     0.291 C 
ENDROOT
BRANCH   5   7
HETATM    7  C   UNK     0      -2.763   4.386   2.233  0.00  0.00     0.198 C 
BRANCH   7   8
HETATM    8  O   UNK     0      -3.905   3.560   2.100  0.00  0.00    -0.398 OA
HETATM    9  H   UNK     0      -4.508   3.771   2.833  0.00  0.00     0.209 HD
ENDBRANCH   7   8
ENDBRANCH   5   7
BRANCH   6  10
HETATM   10  O   UNK     0      -1.383   4.841   6.712  0.00  0.00    -0.358 OA
BRANCH  10  11
HETATM   11  C   UNK     0      -0.584   6.014   6.737  0.00  0.00     0.175 C 
BRANCH  11  12
HETATM   12  C   UNK     0      -0.119   6.291   8.163  0.00  0.00     0.065 C 
BRANCH  12  13
HETATM   13  C   UNK     0       0.420   5.054   8.840  0.00  0.00    -0.056 A 
HETATM   14  C   UNK     0      -0.289   4.490   9.888  0.00  0.00     0.010 A 
HETATM   15  C   UNK     0       0.209   3.348  10.514  0.00  0.00     0.037 A 
HETATM   16  C   UNK     0       1.411   2.784  10.083  0.00  0.00     0.065 A 
HETATM   17  C   UNK     0       2.113   3.363   9.027  0.00  0.00     0.037 A 
HETATM   18  C   UNK     0       1.614   4.506   8.401  0.00  0.00     0.010 A 
BRANCH  16  19
HETATM   19  O   UNK     0       1.897   1.669  10.695  0.00  0.00    -0.361 OA
HETATM   20  H   UNK     0       2.829   1.819  10.928  0.00  0.00     0.217 HD
ENDBRANCH  16  19
ENDBRANCH  12  13
ENDBRANCH  11  12
ENDBRANCH  10  11
ENDBRANCH   6  10
BRANCH   3  21
HETATM   21  O   UNK     0      -1.839   1.577   2.288  0.00  0.00    -0.390 OA
HETATM   22  H   UNK     0      -0.905   1.310   2.312  0.00  0.00     0.210 HD
ENDBRANCH   3  21
BRANCH   4  23
HETATM   23  O   UNK     0      -0.351   2.208   6.804  0.00  0.00    -0.388 OA
HETATM   24  H   UNK     0       0.275   1.625   6.340  0.00  0.00     0.210 HD
ENDBRANCH   4  23
BRANCH   2  25
HETATM   25  O   UNK     0      -1.752   0.414   4.932  0.00  0.00    -0.390 OA
HETATM   26  H   UNK     0      -2.723   0.448   4.914  0.00  0.00     0.210 HD
ENDBRANCH   2  25
TORSDOF 10
ENDMDL
MODEL 7
REMARK VINA RESULT:      -3.9     10.090     11.091
REMARK  10 active torsions:
REMARK  status: ('A' for Active; 'I' for Inactive)
REMARK    1  A    between atoms: O_2  and  C_12 
REMARK    2  A    between atoms: O_2  and  C_14 
REMARK    3  A    between atoms: O_3  and  C_8 
REMARK    4  A    between atoms: O_4  and  C_9 
REMARK    5  A    between atoms: O_5  and  C_10 
REMARK    6  A    between atoms: O_6  and  C_13 
REMARK    7  A    between atoms: O_7  and  C_21 
REMARK    8  A    between atoms: C_11  and  C_13 
REMARK    9  A    between atoms: C_14  and  C_15 
REMARK   10  A    between atoms: C_15  and  C_16 
ROOT
HETATM    1  O   UNK     0       1.381   2.809   4.332  0.00  0.00    -0.348 OA
HETATM    2  C   UNK     0       1.054   2.309   7.141  0.00  0.00     0.183 C 
HETATM    3  C   UNK     0       2.420   2.272   6.454  0.00  0.00     0.180 C 
HETATM    4  C   UNK     0      -0.077   2.089   6.135  0.00  0.00     0.204 C 
HETATM    5  C   UNK     0       2.434   3.180   5.223  0.00  0.00     0.179 C 
HETATM    6  C   UNK     0       0.088   2.984   4.908  0.00  0.00     0.291 C 
ENDROOT
BRANCH   5   7
HETATM    7  C   UNK     0       3.746   3.069   4.455  0.00  0.00     0.198 C 
BRANCH   7   8
HETATM    8  O   UNK     0       4.346   1.824   4.761  0.00  0.00    -0.398 OA
HETATM    9  H   UNK     0       4.936   1.593   4.025  0.00  0.00     0.209 HD
ENDBRANCH   7   8
ENDBRANCH   5   7
BRANCH   6  10
HETATM   10  O   UNK     0      -0.915   2.620   3.961  0.00  0.00    -0.358 OA
BRANCH  10  11
HETATM   11  C   UNK     0      -1.811   3.695   3.719  0.00  0.00     0.175 C 
BRANCH  11  12
HETATM   12  C   UNK     0      -1.775   4.074   2.243  0.00  0.00     0.065 C 
BRANCH  12  13
HETATM   13  C   UNK     0      -2.842   3.367   1.443  0.00  0.00    -0.056 A 
HETATM   14  C   UNK     0      -4.089   3.160   2.008  0.00  0.00     0.010 A 
HETATM   15  C   UNK     0      -5.075   2.507   1.269  0.00  0.00     0.037 A 
HETATM   16  C   UNK     0      -4.799   2.069  -0.027  0.00  0.00     0.065 A 
HETATM   17  C   UNK     0      -3.539   2.285  -0.583  0.00  0.00     0.037 A 
HETATM   18  C   UNK     0      -2.553   2.938   0.157  0.00  0.00     0.010 A 
BRANCH  16  19
HETATM   19  O   UNK     0      -5.762   1.432  -0.749  0.00  0.00    -0.361 OA
HETATM   20  H   UNK     0      -6.561   1.986  -0.766  0.00  0.00     0.217 HD
ENDBRANCH  16  19
ENDBRANCH  12  13
ENDBRANCH  11  12
ENDBRANCH  10  11
ENDBRANCH   6  10
BRANCH   3  21
HETATM   21  O   UNK     0       3.420   2.707   7.372  0.00  0.00    -0.390 OA
HETATM   22  H   UNK     0       4.122   3.149   6.865  0.00  0.00     0.210 HD
ENDBRANCH   3  21
BRANCH   4  23
HETATM   23  O   UNK     0      -1.326   2.401   6.752  0.00  0.00    -0.388 OA
HETATM   24  H   UNK     0      -1.778   3.063   6.200  0.00  0.00     0.210 HD
ENDBRANCH   4  23
BRANCH   2  25
HETATM   25  O   UNK     0       1.025   1.273   8.124  0.00  0.00    -0.390 OA
HETATM   26  H   UNK     0       1.866   1.309   8.610  0.00  0.00     0.210 HD
ENDBRANCH   2  25
TORSDOF 10
ENDMDL
MODEL 8
REMARK VINA RESULT:      -3.9     10.204     11.739
REMARK  10 active torsions:
REMARK  status: ('A' for Active; 'I' for Inactive)
REMARK    1  A    between atoms: O_2  and  C_12 
REMARK    2  A    between atoms: O_2  and  C_14 
REMARK    3  A    between atoms: O_3  and  C_8 
REMARK    4  A    between atoms: O_4  and  C_9 
REMARK    5  A    between atoms: O_5  and  C_10 
REMARK    6  A    between atoms: O_6  and  C_13 
REMARK    7  A    between atoms: O_7  and  C_21 
REMARK    8  A    between atoms: C_11  and  C_13 
REMARK    9  A    between atoms: C_14  and  C_15 
REMARK   10  A    between atoms: C_15  and  C_16 
ROOT
HETATM    1  O   UNK     0      -4.142   2.331   2.213  0.00  0.00    -0.348 OA
HETATM    2  C   UNK     0      -3.484   4.511   0.463  0.00  0.00     0.183 C 
HETATM    3  C   UNK     0      -4.907   3.966   0.596  0.00  0.00     0.180 C 
HETATM    4  C   UNK     0      -2.451   3.470   0.895  0.00  0.00     0.204 C 
HETATM    5  C   UNK     0      -5.123   3.342   1.976  0.00  0.00     0.179 C 
HETATM    6  C   UNK     0      -2.815   2.851   2.245  0.00  0.00     0.291 C 
ENDROOT
BRANCH   5   7
HETATM    7  C   UNK     0      -6.495   2.687   2.092  0.00  0.00     0.198 C 
BRANCH   7   8
HETATM    8  O   UNK     0      -7.377   3.596   2.725  0.00  0.00    -0.398 OA
HETATM    9  H   UNK     0      -7.422   3.355   3.666  0.00  0.00     0.209 HD
ENDBRANCH   7   8
ENDBRANCH   5   7
BRANCH   6  10
HETATM   10  O   UNK     0      -1.890   1.798   2.508  0.00  0.00    -0.358 OA
BRANCH  10  11
HETATM   11  C   UNK     0      -1.710   1.606   3.904  0.00  0.00     0.175 C 
BRANCH  11  12
HETATM   12  C   UNK     0      -1.492   2.952   4.585  0.00  0.00     0.065 C 
BRANCH  12  13
HETATM   13  C   UNK     0      -0.841   2.811   5.940  0.00  0.00    -0.056 A 
HETATM   14  C   UNK     0       0.090   1.807   6.144  0.00  0.00     0.010 A 
HETATM   15  C   UNK     0       0.692   1.676   7.396  0.00  0.00     0.037 A 
HETATM   16  C   UNK     0       0.352   2.553   8.427  0.00  0.00     0.065 A 
HETATM   17  C   UNK     0      -0.587   3.559   8.207  0.00  0.00     0.037 A 
HETATM   18  C   UNK     0      -1.188   3.689   6.954  0.00  0.00     0.010 A 
BRANCH  16  19
HETATM   19  O   UNK     0       0.940   2.425   9.649  0.00  0.00    -0.361 OA
HETATM   20  H   UNK     0       1.603   1.715   9.607  0.00  0.00     0.217 HD
ENDBRANCH  16  19
ENDBRANCH  12  13
ENDBRANCH  11  12
ENDBRANCH  10  11
ENDBRANCH   6  10
BRANCH   3  21
HETATM   21  O   UNK     0      -5.838   5.029   0.408  0.00  0.00    -0.390 OA
HETATM   22  H   UNK     0      -6.585   4.885   1.014  0.00  0.00     0.210 HD
ENDBRANCH   3  21
BRANCH   4  23
HETATM   23  O   UNK     0      -1.173   4.095   1.020  0.00  0.00    -0.388 OA
HETATM   24  H   UNK     0      -1.055   4.693   0.262  0.00  0.00     0.210 HD
ENDBRANCH   4  23
BRANCH   2  25
HETATM   25  O   UNK     0      -3.269   4.855  -0.906  0.00  0.00    -0.390 OA
HETATM   26  H   UNK     0      -3.142   5.818  -0.948  0.00  0.00     0.210 HD
ENDBRANCH   2  25
TORSDOF 10
ENDMDL
MODEL 9
REMARK VINA RESULT:      -3.9      2.982      7.089
REMARK  10 active torsions:
REMARK  status: ('A' for Active; 'I' for Inactive)
REMARK    1  A    between atoms: O_2  and  C_12 
REMARK    2  A    between atoms: O_2  and  C_14 
REMARK    3  A    between atoms: O_3  and  C_8 
REMARK    4  A    between atoms: O_4  and  C_9 
REMARK    5  A    between atoms: O_5  and  C_10 
REMARK    6  A    between atoms: O_6  and  C_13 
REMARK    7  A    between atoms: O_7  and  C_21 
REMARK    8  A    between atoms: C_11  and  C_13 
REMARK    9  A    between atoms: C_14  and  C_15 
REMARK   10  A    between atoms: C_15  and  C_16 
ROOT
HETATM    1  O   UNK     0      -3.080  -6.714   5.177  0.00  0.00    -0.348 OA
HETATM    2  C   UNK     0      -0.851  -7.944   3.847  0.00  0.00     0.183 C 
HETATM    3  C   UNK     0      -0.681  -7.044   5.072  0.00  0.00     0.180 C 
HETATM    4  C   UNK     0      -2.174  -7.663   3.134  0.00  0.00     0.204 C 
HETATM    5  C   UNK     0      -1.934  -7.078   5.949  0.00  0.00     0.179 C 
HETATM    6  C   UNK     0      -3.342  -7.633   4.119  0.00  0.00     0.291 C 
ENDROOT
BRANCH   5   7
HETATM    7  C   UNK     0      -1.835  -6.100   7.114  0.00  0.00     0.198 C 
BRANCH   7   8
HETATM    8  O   UNK     0      -1.029  -5.006   6.718  0.00  0.00    -0.398 OA
HETATM    9  H   UNK     0      -1.443  -4.602   5.937  0.00  0.00     0.209 HD
ENDBRANCH   7   8
ENDBRANCH   5   7
BRANCH   6  10
HETATM   10  O   UNK     0      -4.508  -7.226   3.405  0.00  0.00    -0.358 OA
BRANCH  10  11
HETATM   11  C   UNK     0      -5.691  -7.668   4.054  0.00  0.00     0.175 C 
BRANCH  11  12
HETATM   12  C   UNK     0      -6.762  -6.587   3.965  0.00  0.00     0.065 C 
BRANCH  12  13
HETATM   13  C   UNK     0      -7.128  -6.029   5.320  0.00  0.00    -0.056 A 
HETATM   14  C   UNK     0      -6.338  -6.335   6.416  0.00  0.00     0.010 A 
HETATM   15  C   UNK     0      -6.676  -5.820   7.667  0.00  0.00     0.037 A 
HETATM   16  C   UNK     0      -7.801  -5.005   7.805  0.00  0.00     0.065 A 
HETATM   17  C   UNK     0      -8.586  -4.706   6.692  0.00  0.00     0.037 A 
HETATM   18  C   UNK     0      -8.247  -5.222   5.441  0.00  0.00     0.010 A 
BRANCH  16  19
HETATM   19  O   UNK     0      -8.131  -4.503   9.026  0.00  0.00    -0.361 OA
HETATM   20  H   UNK     0      -7.700  -5.038   9.714  0.00  0.00     0.217 HD
ENDBRANCH  16  19
ENDBRANCH  12  13
ENDBRANCH  11  12
ENDBRANCH  10  11
ENDBRANCH   6  10
BRANCH   3  21
HETATM   21  O   UNK     0       0.439  -7.491   5.833  0.00  0.00    -0.390 OA
HETATM   22  H   UNK     0       0.264  -8.404   6.117  0.00  0.00     0.210 HD
ENDBRANCH   3  21
BRANCH   4  23
HETATM   23  O   UNK     0      -2.423  -8.691   2.175  0.00  0.00    -0.388 OA
HETATM   24  H   UNK     0      -2.674  -8.267   1.337  0.00  0.00     0.210 HD
ENDBRANCH   4  23
BRANCH   2  25
HETATM   25  O   UNK     0       0.235  -7.686   2.956  0.00  0.00    -0.390 OA
HETATM   26  H   UNK     0       0.679  -8.534   2.785  0.00  0.00     0.210 HD
ENDBRANCH   2  25
TORSDOF 10
ENDMDL
MODEL 10
REMARK VINA RESULT:      -3.9      3.162      5.405
REMARK  10 active torsions:
REMARK  status: ('A' for Active; 'I' for Inactive)
REMARK    1  A    between atoms: O_2  and  C_12 
REMARK    2  A    between atoms: O_2  and  C_14 
REMARK    3  A    between atoms: O_3  and  C_8 
REMARK    4  A    between atoms: O_4  and  C_9 
REMARK    5  A    between atoms: O_5  and  C_10 
REMARK    6  A    between atoms: O_6  and  C_13 
REMARK    7  A    between atoms: O_7  and  C_21 
REMARK    8  A    between atoms: C_11  and  C_13 
REMARK    9  A    between atoms: C_14  and  C_15 
REMARK   10  A    between atoms: C_15  and  C_16 
ROOT
HETATM    1  O   UNK     0      -2.928  -7.706   6.071  0.00  0.00    -0.348 OA
HETATM    2  C   UNK     0      -2.743  -5.276   7.591  0.00  0.00     0.183 C 
HETATM    3  C   UNK     0      -1.557  -5.853   6.817  0.00  0.00     0.180 C 
HETATM    4  C   UNK     0      -3.778  -6.358   7.903  0.00  0.00     0.204 C 
HETATM    5  C   UNK     0      -2.037  -6.682   5.625  0.00  0.00     0.179 C 
HETATM    6  C   UNK     0      -4.116  -7.180   6.659  0.00  0.00     0.291 C 
ENDROOT
BRANCH   5   7
HETATM    7  C   UNK     0      -0.878  -7.364   4.907  0.00  0.00     0.198 C 
BRANCH   7   8
HETATM    8  O   UNK     0       0.253  -7.348   5.758  0.00  0.00    -0.398 OA
HETATM    9  H   UNK     0      -0.011  -6.919   6.590  0.00  0.00     0.209 HD
ENDBRANCH   7   8
ENDBRANCH   5   7
BRANCH   6  10
HETATM   10  O   UNK     0      -4.971  -8.250   7.059  0.00  0.00    -0.358 OA
BRANCH  10  11
HETATM   11  C   UNK     0      -5.239  -9.128   5.977  0.00  0.00     0.175 C 
BRANCH  11  12
HETATM   12  C   UNK     0      -6.497  -8.676   5.245  0.00  0.00     0.065 C 
BRANCH  12  13
HETATM   13  C   UNK     0      -6.184  -7.866   4.010  0.00  0.00    -0.056 A 
HETATM   14  C   UNK     0      -6.961  -6.761   3.707  0.00  0.00     0.010 A 
HETATM   15  C   UNK     0      -6.671  -6.013   2.566  0.00  0.00     0.037 A 
HETATM   16  C   UNK     0      -5.606  -6.382   1.743  0.00  0.00     0.065 A 
HETATM   17  C   UNK     0      -4.832  -7.497   2.061  0.00  0.00     0.037 A 
HETATM   18  C   UNK     0      -5.123  -8.244   3.202  0.00  0.00     0.010 A 
BRANCH  16  19
HETATM   19  O   UNK     0      -5.323  -5.651   0.629  0.00  0.00    -0.361 OA
HETATM   20  H   UNK     0      -4.439  -5.898   0.307  0.00  0.00     0.217 HD
ENDBRANCH  16  19
ENDBRANCH  12  13
ENDBRANCH  11  12
ENDBRANCH  10  11
ENDBRANCH   6  10
BRANCH   3  21
HETATM   21  O   UNK     0      -0.737  -4.785   6.349  0.00  0.00    -0.390 OA
HETATM   22  H   UNK     0      -1.261  -4.255   5.725  0.00  0.00     0.210 HD
ENDBRANCH   3  21
BRANCH   4  23
HETATM   23  O   UNK     0      -4.978  -5.743   8.372  0.00  0.00    -0.388 OA
HETATM   24  H   UNK     0      -4.922  -4.790   8.186  0.00  0.00     0.210 HD
ENDBRANCH   4  23
BRANCH   2  25
HETATM   25  O   UNK     0      -2.249  -4.725   8.812  0.00  0.00    -0.390 OA
HETATM   26  H   UNK     0      -2.970  -4.765   9.463  0.00  0.00     0.210 HD
ENDBRANCH   2  25
TORSDOF 10
ENDMDL
