MODEL 1
REMARK VINA RESULT:      -8.4      0.000      0.000
REMARK  13 active torsions:
REMARK  status: ('A' for Active; 'I' for Inactive)
REMARK    1  A    between atoms: C_2  and  O_12 
REMARK    2  A    between atoms: C_3  and  O_10 
REMARK    3  A    between atoms: C_4  and  O_8 
REMARK    4  A    between atoms: C_5  and  O_6 
REMARK    5  A    between atoms: C_22  and  C_23 
REMARK    6  A    between atoms: O_12  and  C_13 
REMARK    7  A    between atoms: C_13  and  C_14 
REMARK    8  A    between atoms: C_15  and  C_16 
REMARK    9  A    between atoms: C_23  and  O_24 
REMARK   10  A    between atoms: O_24  and  C_25 
REMARK   11  A    between atoms: C_26  and  O_34 
REMARK   12  A    between atoms: C_27  and  O_32 
REMARK   13  A    between atoms: C_28  and  O_30 
ROOT
ATOM      1  O   LIG     1      15.077  50.042  24.920  0.00  0.00    -0.341 OA
ATOM      2  C   LIG     1      15.170  51.318  24.292  0.00  0.00     0.282 C 
ATOM      3  C   LIG     1      14.849  51.206  22.801  0.00  0.00     0.201 C 
ATOM      4  C   LIG     1      13.497  50.531  22.572  0.00  0.00     0.179 C 
ATOM      5  C   LIG     1      13.375  49.245  23.388  0.00  0.00     0.177 C 
ATOM      6  C   LIG     1      13.761  49.490  24.849  0.00  0.00     0.178 C 
ENDROOT
BRANCH   6   7
ATOM      7  C   LIG     1      13.760  48.197  25.659  0.00  0.00     0.197 C 
BRANCH   7   8
ATOM      8  O   LIG     1      12.433  47.925  26.072  0.00  0.00    -0.346 OA
BRANCH   8   9
ATOM      9  C   LIG     1      12.199  48.349  27.410  0.00  0.00     0.281 C 
ATOM     10  O   LIG     1      11.978  47.244  28.293  0.00  0.00    -0.346 OA
ATOM     11  C   LIG     1      10.771  46.532  28.031  0.00  0.00     0.197 C 
ATOM     12  C   LIG     1       9.563  47.447  28.186  0.00  0.00     0.171 C 
ATOM     13  C   LIG     1       9.677  48.653  27.252  0.00  0.00     0.178 C 
ATOM     14  C   LIG     1      11.030  49.345  27.447  0.00  0.00     0.201 C 
BRANCH  12  15
ATOM     15  O   LIG     1       8.364  46.735  27.912  0.00  0.00    -0.387 OA
ATOM     16  H   LIG     1       8.457  46.330  27.032  0.00  0.00     0.210 HD
ENDBRANCH  12  15
BRANCH  13  17
ATOM     17  O   LIG     1       9.555  48.215  25.900  0.00  0.00    -0.386 OA
ATOM     18  H   LIG     1       9.479  47.245  25.912  0.00  0.00     0.210 HD
ENDBRANCH  13  17
BRANCH  14  19
ATOM     19  O   LIG     1      11.047  49.999  28.714  0.00  0.00    -0.384 OA
ATOM     20  H   LIG     1      11.452  50.875  28.602  0.00  0.00     0.210 HD
ENDBRANCH  14  19
ENDBRANCH   8   9
ENDBRANCH   7   8
ENDBRANCH   6   7
BRANCH   5  21
ATOM     21  O   LIG     1      12.032  48.773  23.328  0.00  0.00    -0.386 OA
ATOM     22  H   LIG     1      11.454  49.537  23.155  0.00  0.00     0.210 HD
ENDBRANCH   5  21
BRANCH   2  23
ATOM     23  O   LIG     1      16.498  51.823  24.420  0.00  0.00    -0.345 OA
BRANCH  23  24
ATOM     24  C   LIG     1      17.388  50.824  24.891  0.00  0.00     0.190 C 
BRANCH  24  25
ATOM     25  C   LIG     1      18.366  50.501  23.808  0.00  0.00     0.001 C 
ATOM     26  C   LIG     1      18.535  49.266  23.310  0.00  0.00     0.006 C 
BRANCH  26  27
ATOM     27  C   LIG     1      19.475  48.905  22.235  0.00  0.00    -0.025 A 
ATOM     28  C   LIG     1      20.696  48.338  22.563  0.00  0.00     0.008 A 
ATOM     29  C   LIG     1      21.585  47.996  21.545  0.00  0.00     0.001 A 
ATOM     30  C   LIG     1      21.243  48.225  20.212  0.00  0.00     0.000 A 
ATOM     31  C   LIG     1      20.011  48.797  19.897  0.00  0.00     0.001 A 
ATOM     32  C   LIG     1      19.121  49.139  20.916  0.00  0.00     0.008 A 
ENDBRANCH  26  27
ENDBRANCH  24  25
ENDBRANCH  23  24
ENDBRANCH   2  23
BRANCH   4  33
ATOM     33  O   LIG     1      13.363  50.192  21.191  0.00  0.00    -0.386 OA
ATOM     34  H   LIG     1      12.413  50.099  21.005  0.00  0.00     0.210 HD
ENDBRANCH   4  33
BRANCH   3  35
ATOM     35  O   LIG     1      14.821  52.523  22.250  0.00  0.00    -0.384 OA
ATOM     36  H   LIG     1      13.900  52.832  22.255  0.00  0.00     0.210 HD
ENDBRANCH   3  35
TORSDOF 13
ENDMDL
MODEL 2
REMARK VINA RESULT:      -8.2      1.251      1.836
REMARK  13 active torsions:
REMARK  status: ('A' for Active; 'I' for Inactive)
REMARK    1  A    between atoms: C_2  and  O_12 
REMARK    2  A    between atoms: C_3  and  O_10 
REMARK    3  A    between atoms: C_4  and  O_8 
REMARK    4  A    between atoms: C_5  and  O_6 
REMARK    5  A    between atoms: C_22  and  C_23 
REMARK    6  A    between atoms: O_12  and  C_13 
REMARK    7  A    between atoms: C_13  and  C_14 
REMARK    8  A    between atoms: C_15  and  C_16 
REMARK    9  A    between atoms: C_23  and  O_24 
REMARK   10  A    between atoms: O_24  and  C_25 
REMARK   11  A    between atoms: C_26  and  O_34 
REMARK   12  A    between atoms: C_27  and  O_32 
REMARK   13  A    between atoms: C_28  and  O_30 
ROOT
ATOM      1  O   LIG     1      15.016  50.047  24.341  0.00  0.00    -0.341 OA
ATOM      2  C   LIG     1      15.612  51.263  23.896  0.00  0.00     0.282 C 
ATOM      3  C   LIG     1      16.177  51.098  22.485  0.00  0.00     0.201 C 
ATOM      4  C   LIG     1      15.118  50.569  21.519  0.00  0.00     0.179 C 
ATOM      5  C   LIG     1      14.391  49.358  22.102  0.00  0.00     0.177 C 
ATOM      6  C   LIG     1      13.912  49.647  23.528  0.00  0.00     0.178 C 
ENDROOT
BRANCH   6   7
ATOM      7  C   LIG     1      13.287  48.414  24.174  0.00  0.00     0.197 C 
BRANCH   7   8
ATOM      8  O   LIG     1      12.857  48.758  25.478  0.00  0.00    -0.346 OA
BRANCH   8   9
ATOM      9  C   LIG     1      11.622  49.466  25.458  0.00  0.00     0.281 C 
ATOM     10  O   LIG     1      11.525  50.409  26.531  0.00  0.00    -0.346 OA
ATOM     11  C   LIG     1      11.459  49.806  27.821  0.00  0.00     0.197 C 
ATOM     12  C   LIG     1      10.233  48.909  27.933  0.00  0.00     0.171 C 
ATOM     13  C   LIG     1      10.252  47.831  26.848  0.00  0.00     0.178 C 
ATOM     14  C   LIG     1      10.450  48.473  25.470  0.00  0.00     0.201 C 
BRANCH  12  15
ATOM     15  O   LIG     1      10.178  48.302  29.216  0.00  0.00    -0.387 OA
ATOM     16  H   LIG     1       9.611  48.856  29.780  0.00  0.00     0.210 HD
ENDBRANCH  12  15
BRANCH  13  17
ATOM     17  O   LIG     1      11.320  46.921  27.108  0.00  0.00    -0.386 OA
ATOM     18  H   LIG     1      11.246  46.193  26.467  0.00  0.00     0.210 HD
ENDBRANCH  13  17
BRANCH  14  19
ATOM     19  O   LIG     1       9.268  49.182  25.106  0.00  0.00    -0.384 OA
ATOM     20  H   LIG     1       8.652  48.559  24.685  0.00  0.00     0.210 HD
ENDBRANCH  14  19
ENDBRANCH   8   9
ENDBRANCH   7   8
ENDBRANCH   6   7
BRANCH   5  21
ATOM     21  O   LIG     1      13.269  49.041  21.283  0.00  0.00    -0.386 OA
ATOM     22  H   LIG     1      12.510  48.869  21.868  0.00  0.00     0.210 HD
ENDBRANCH   5  21
BRANCH   2  23
ATOM     23  O   LIG     1      16.687  51.619  24.763  0.00  0.00    -0.345 OA
BRANCH  23  24
ATOM     24  C   LIG     1      17.399  50.473  25.201  0.00  0.00     0.190 C 
BRANCH  24  25
ATOM     25  C   LIG     1      18.488  50.179  24.220  0.00  0.00     0.001 C 
ATOM     26  C   LIG     1      18.516  49.074  23.459  0.00  0.00     0.006 C 
BRANCH  26  27
ATOM     27  C   LIG     1      19.559  48.750  22.470  0.00  0.00    -0.025 A 
ATOM     28  C   LIG     1      20.769  48.233  22.905  0.00  0.00     0.008 A 
ATOM     29  C   LIG     1      21.755  47.925  21.969  0.00  0.00     0.001 A 
ATOM     30  C   LIG     1      21.521  48.140  20.611  0.00  0.00     0.000 A 
ATOM     31  C   LIG     1      20.299  48.661  20.188  0.00  0.00     0.001 A 
ATOM     32  C   LIG     1      19.311  48.968  21.125  0.00  0.00     0.008 A 
ENDBRANCH  26  27
ENDBRANCH  24  25
ENDBRANCH  23  24
ENDBRANCH   2  23
BRANCH   4  33
ATOM     33  O   LIG     1      15.744  50.164  20.301  0.00  0.00    -0.386 OA
ATOM     34  H   LIG     1      15.215  50.521  19.568  0.00  0.00     0.210 HD
ENDBRANCH   4  33
BRANCH   3  35
ATOM     35  O   LIG     1      16.636  52.373  22.035  0.00  0.00    -0.384 OA
ATOM     36  H   LIG     1      17.005  52.847  22.799  0.00  0.00     0.210 HD
ENDBRANCH   3  35
TORSDOF 13
ENDMDL
MODEL 3
REMARK VINA RESULT:      -8.2      2.168      3.173
REMARK  13 active torsions:
REMARK  status: ('A' for Active; 'I' for Inactive)
REMARK    1  A    between atoms: C_2  and  O_12 
REMARK    2  A    between atoms: C_3  and  O_10 
REMARK    3  A    between atoms: C_4  and  O_8 
REMARK    4  A    between atoms: C_5  and  O_6 
REMARK    5  A    between atoms: C_22  and  C_23 
REMARK    6  A    between atoms: O_12  and  C_13 
REMARK    7  A    between atoms: C_13  and  C_14 
REMARK    8  A    between atoms: C_15  and  C_16 
REMARK    9  A    between atoms: C_23  and  O_24 
REMARK   10  A    between atoms: O_24  and  C_25 
REMARK   11  A    between atoms: C_26  and  O_34 
REMARK   12  A    between atoms: C_27  and  O_32 
REMARK   13  A    between atoms: C_28  and  O_30 
ROOT
ATOM      1  O   LIG     1      14.293  50.340  23.787  0.00  0.00    -0.341 OA
ATOM      2  C   LIG     1      15.690  50.252  23.517  0.00  0.00     0.282 C 
ATOM      3  C   LIG     1      15.988  50.702  22.086  0.00  0.00     0.201 C 
ATOM      4  C   LIG     1      15.418  52.092  21.809  0.00  0.00     0.179 C 
ATOM      5  C   LIG     1      13.961  52.193  22.260  0.00  0.00     0.177 C 
ATOM      6  C   LIG     1      13.799  51.677  23.692  0.00  0.00     0.178 C 
ENDROOT
BRANCH   6   7
ATOM      7  C   LIG     1      12.335  51.659  24.123  0.00  0.00     0.197 C 
BRANCH   7   8
ATOM      8  O   LIG     1      12.221  50.876  25.298  0.00  0.00    -0.346 OA
BRANCH   8   9
ATOM      9  C   LIG     1      10.960  50.222  25.376  0.00  0.00     0.281 C 
ATOM     10  O   LIG     1      10.449  50.198  26.713  0.00  0.00    -0.346 OA
ATOM     11  C   LIG     1      11.216  49.394  27.607  0.00  0.00     0.197 C 
ATOM     12  C   LIG     1      11.243  47.945  27.138  0.00  0.00     0.171 C 
ATOM     13  C   LIG     1      11.812  47.848  25.721  0.00  0.00     0.178 C 
ATOM     14  C   LIG     1      11.067  48.807  24.786  0.00  0.00     0.201 C 
BRANCH  12  15
ATOM     15  O   LIG     1      12.018  47.151  28.025  0.00  0.00    -0.387 OA
ATOM     16  H   LIG     1      11.677  47.297  28.924  0.00  0.00     0.210 HD
ENDBRANCH  12  15
BRANCH  13  17
ATOM     17  O   LIG     1      13.198  48.186  25.746  0.00  0.00    -0.386 OA
ATOM     18  H   LIG     1      13.575  47.941  24.883  0.00  0.00     0.210 HD
ENDBRANCH  13  17
BRANCH  14  19
ATOM     19  O   LIG     1       9.746  48.320  24.566  0.00  0.00    -0.384 OA
ATOM     20  H   LIG     1       9.516  48.466  23.633  0.00  0.00     0.210 HD
ENDBRANCH  14  19
ENDBRANCH   8   9
ENDBRANCH   7   8
ENDBRANCH   6   7
BRANCH   5  21
ATOM     21  O   LIG     1      13.542  53.554  22.199  0.00  0.00    -0.386 OA
ATOM     22  H   LIG     1      12.764  53.602  21.617  0.00  0.00     0.210 HD
ENDBRANCH   5  21
BRANCH   2  23
ATOM     23  O   LIG     1      16.123  48.900  23.653  0.00  0.00    -0.345 OA
BRANCH  23  24
ATOM     24  C   LIG     1      16.875  48.716  24.842  0.00  0.00     0.190 C 
BRANCH  24  25
ATOM     25  C   LIG     1      18.300  48.451  24.474  0.00  0.00     0.001 C 
ATOM     26  C   LIG     1      19.315  49.254  24.829  0.00  0.00     0.006 C 
BRANCH  26  27
ATOM     27  C   LIG     1      20.733  49.026  24.503  0.00  0.00    -0.025 A 
ATOM     28  C   LIG     1      21.703  49.818  25.098  0.00  0.00     0.008 A 
ATOM     29  C   LIG     1      23.045  49.601  24.788  0.00  0.00     0.001 A 
ATOM     30  C   LIG     1      23.401  48.596  23.889  0.00  0.00     0.000 A 
ATOM     31  C   LIG     1      22.414  47.807  23.298  0.00  0.00     0.001 A 
ATOM     32  C   LIG     1      21.071  48.024  23.607  0.00  0.00     0.008 A 
ENDBRANCH  26  27
ENDBRANCH  24  25
ENDBRANCH  23  24
ENDBRANCH   2  23
BRANCH   4  33
ATOM     33  O   LIG     1      15.465  52.355  20.405  0.00  0.00    -0.386 OA
ATOM     34  H   LIG     1      16.382  52.590  20.184  0.00  0.00     0.210 HD
ENDBRANCH   4  33
BRANCH   3  35
ATOM     35  O   LIG     1      17.404  50.726  21.911  0.00  0.00    -0.384 OA
ATOM     36  H   LIG     1      17.615  51.405  21.249  0.00  0.00     0.210 HD
ENDBRANCH   3  35
TORSDOF 13
ENDMDL
MODEL 4
REMARK VINA RESULT:      -7.8      2.898      8.478
REMARK  13 active torsions:
REMARK  status: ('A' for Active; 'I' for Inactive)
REMARK    1  A    between atoms: C_2  and  O_12 
REMARK    2  A    between atoms: C_3  and  O_10 
REMARK    3  A    between atoms: C_4  and  O_8 
REMARK    4  A    between atoms: C_5  and  O_6 
REMARK    5  A    between atoms: C_22  and  C_23 
REMARK    6  A    between atoms: O_12  and  C_13 
REMARK    7  A    between atoms: C_13  and  C_14 
REMARK    8  A    between atoms: C_15  and  C_16 
REMARK    9  A    between atoms: C_23  and  O_24 
REMARK   10  A    between atoms: O_24  and  C_25 
REMARK   11  A    between atoms: C_26  and  O_34 
REMARK   12  A    between atoms: C_27  and  O_32 
REMARK   13  A    between atoms: C_28  and  O_30 
ROOT
ATOM      1  O   LIG     1      14.801  50.796  24.357  0.00  0.00    -0.341 OA
ATOM      2  C   LIG     1      13.949  50.252  23.353  0.00  0.00     0.282 C 
ATOM      3  C   LIG     1      14.069  51.054  22.056  0.00  0.00     0.201 C 
ATOM      4  C   LIG     1      15.524  51.164  21.602  0.00  0.00     0.179 C 
ATOM      5  C   LIG     1      16.432  51.598  22.752  0.00  0.00     0.177 C 
ATOM      6  C   LIG     1      16.182  50.740  23.995  0.00  0.00     0.178 C 
ENDROOT
BRANCH   6   7
ATOM      7  C   LIG     1      16.993  51.229  25.192  0.00  0.00     0.197 C 
BRANCH   7   8
ATOM      8  O   LIG     1      18.353  50.895  24.981  0.00  0.00    -0.346 OA
BRANCH   8   9
ATOM      9  C   LIG     1      18.800  49.900  25.896  0.00  0.00     0.281 C 
ATOM     10  O   LIG     1      20.187  50.052  26.218  0.00  0.00    -0.346 OA
ATOM     11  C   LIG     1      21.062  49.809  25.119  0.00  0.00     0.197 C 
ATOM     12  C   LIG     1      20.899  48.383  24.609  0.00  0.00     0.171 C 
ATOM     13  C   LIG     1      19.450  48.121  24.196  0.00  0.00     0.178 C 
ATOM     14  C   LIG     1      18.500  48.501  25.336  0.00  0.00     0.201 C 
BRANCH  12  15
ATOM     15  O   LIG     1      21.765  48.149  23.506  0.00  0.00    -0.387 OA
ATOM     16  H   LIG     1      21.605  47.242  23.194  0.00  0.00     0.210 HD
ENDBRANCH  12  15
BRANCH  13  17
ATOM     17  O   LIG     1      19.142  48.895  23.039  0.00  0.00    -0.386 OA
ATOM     18  H   LIG     1      18.728  49.722  23.341  0.00  0.00     0.210 HD
ENDBRANCH  13  17
BRANCH  14  19
ATOM     19  O   LIG     1      18.638  47.562  26.400  0.00  0.00    -0.384 OA
ATOM     20  H   LIG     1      19.157  47.975  27.110  0.00  0.00     0.210 HD
ENDBRANCH  14  19
ENDBRANCH   8   9
ENDBRANCH   7   8
ENDBRANCH   6   7
BRANCH   5  21
ATOM     21  O   LIG     1      17.794  51.466  22.354  0.00  0.00    -0.386 OA
ATOM     22  H   LIG     1      18.105  50.589  22.637  0.00  0.00     0.210 HD
ENDBRANCH   5  21
BRANCH   2  23
ATOM     23  O   LIG     1      12.592  50.315  23.786  0.00  0.00    -0.345 OA
BRANCH  23  24
ATOM     24  C   LIG     1      12.100  49.030  24.133  0.00  0.00     0.190 C 
BRANCH  24  25
ATOM     25  C   LIG     1      11.875  48.983  25.610  0.00  0.00     0.001 C 
ATOM     26  C   LIG     1      11.785  50.081  26.377  0.00  0.00     0.006 C 
BRANCH  26  27
ATOM     27  C   LIG     1      11.550  50.084  27.832  0.00  0.00    -0.025 A 
ATOM     28  C   LIG     1      12.200  51.019  28.623  0.00  0.00     0.008 A 
ATOM     29  C   LIG     1      11.977  51.021  29.999  0.00  0.00     0.001 A 
ATOM     30  C   LIG     1      11.109  50.089  30.568  0.00  0.00     0.000 A 
ATOM     31  C   LIG     1      10.463  49.154  29.759  0.00  0.00     0.001 A 
ATOM     32  C   LIG     1      10.685  49.152  28.382  0.00  0.00     0.008 A 
ENDBRANCH  26  27
ENDBRANCH  24  25
ENDBRANCH  23  24
ENDBRANCH   2  23
BRANCH   4  33
ATOM     33  O   LIG     1      15.626  52.142  20.566  0.00  0.00    -0.386 OA
ATOM     34  H   LIG     1      16.483  52.011  20.126  0.00  0.00     0.210 HD
ENDBRANCH   4  33
BRANCH   3  35
ATOM     35  O   LIG     1      13.306  50.391  21.048  0.00  0.00    -0.384 OA
ATOM     36  H   LIG     1      12.970  49.560  21.423  0.00  0.00     0.210 HD
ENDBRANCH   3  35
TORSDOF 13
ENDMDL
MODEL 5
REMARK VINA RESULT:      -7.8      3.118      9.194
REMARK  13 active torsions:
REMARK  status: ('A' for Active; 'I' for Inactive)
REMARK    1  A    between atoms: C_2  and  O_12 
REMARK    2  A    between atoms: C_3  and  O_10 
REMARK    3  A    between atoms: C_4  and  O_8 
REMARK    4  A    between atoms: C_5  and  O_6 
REMARK    5  A    between atoms: C_22  and  C_23 
REMARK    6  A    between atoms: O_12  and  C_13 
REMARK    7  A    between atoms: C_13  and  C_14 
REMARK    8  A    between atoms: C_15  and  C_16 
REMARK    9  A    between atoms: C_23  and  O_24 
REMARK   10  A    between atoms: O_24  and  C_25 
REMARK   11  A    between atoms: C_26  and  O_34 
REMARK   12  A    between atoms: C_27  and  O_32 
REMARK   13  A    between atoms: C_28  and  O_30 
ROOT
ATOM      1  O   LIG     1      12.505  49.877  26.560  0.00  0.00    -0.341 OA
ATOM      2  C   LIG     1      12.723  48.647  27.247  0.00  0.00     0.282 C 
ATOM      3  C   LIG     1      11.401  48.086  27.774  0.00  0.00     0.201 C 
ATOM      4  C   LIG     1      10.363  47.966  26.659  0.00  0.00     0.179 C 
ATOM      5  C   LIG     1      10.274  49.256  25.844  0.00  0.00     0.177 C 
ATOM      6  C   LIG     1      11.666  49.724  25.414  0.00  0.00     0.178 C 
ENDROOT
BRANCH   6   7
ATOM      7  C   LIG     1      11.613  51.071  24.699  0.00  0.00     0.197 C 
BRANCH   7   8
ATOM      8  O   LIG     1      12.913  51.385  24.232  0.00  0.00    -0.346 OA
BRANCH   8   9
ATOM      9  C   LIG     1      13.435  50.359  23.395  0.00  0.00     0.281 C 
ATOM     10  O   LIG     1      14.764  49.982  23.773  0.00  0.00    -0.346 OA
ATOM     11  C   LIG     1      15.733  51.006  23.567  0.00  0.00     0.197 C 
ATOM     12  C   LIG     1      15.804  51.389  22.094  0.00  0.00     0.171 C 
ATOM     13  C   LIG     1      14.435  51.849  21.590  0.00  0.00     0.178 C 
ATOM     14  C   LIG     1      13.370  50.800  21.925  0.00  0.00     0.201 C 
BRANCH  12  15
ATOM     15  O   LIG     1      16.763  52.419  21.895  0.00  0.00    -0.387 OA
ATOM     16  H   LIG     1      17.607  52.110  22.267  0.00  0.00     0.210 HD
ENDBRANCH  12  15
BRANCH  13  17
ATOM     17  O   LIG     1      14.097  53.089  22.210  0.00  0.00    -0.386 OA
ATOM     18  H   LIG     1      13.183  53.303  21.957  0.00  0.00     0.210 HD
ENDBRANCH  13  17
BRANCH  14  19
ATOM     19  O   LIG     1      13.569  49.648  21.109  0.00  0.00    -0.384 OA
ATOM     20  H   LIG     1      14.485  49.654  20.786  0.00  0.00     0.210 HD
ENDBRANCH  14  19
ENDBRANCH   8   9
ENDBRANCH   7   8
ENDBRANCH   6   7
BRANCH   5  21
ATOM     21  O   LIG     1       9.474  49.029  24.687  0.00  0.00    -0.386 OA
ATOM     22  H   LIG     1       9.038  49.867  24.454  0.00  0.00     0.210 HD
ENDBRANCH   5  21
BRANCH   2  23
ATOM     23  O   LIG     1      13.586  48.863  28.361  0.00  0.00    -0.345 OA
BRANCH  23  24
ATOM     24  C   LIG     1      13.749  50.246  28.628  0.00  0.00     0.190 C 
BRANCH  24  25
ATOM     25  C   LIG     1      13.264  50.530  30.013  0.00  0.00     0.001 C 
ATOM     26  C   LIG     1      11.965  50.653  30.329  0.00  0.00     0.006 C 
BRANCH  26  27
ATOM     27  C   LIG     1      11.440  50.917  31.680  0.00  0.00    -0.025 A 
ATOM     28  C   LIG     1      10.677  49.949  32.313  0.00  0.00     0.008 A 
ATOM     29  C   LIG     1      10.181  50.200  33.592  0.00  0.00     0.001 A 
ATOM     30  C   LIG     1      10.453  51.415  34.221  0.00  0.00     0.000 A 
ATOM     31  C   LIG     1      11.223  52.380  33.571  0.00  0.00     0.001 A 
ATOM     32  C   LIG     1      11.719  52.129  32.292  0.00  0.00     0.008 A 
ENDBRANCH  26  27
ENDBRANCH  24  25
ENDBRANCH  23  24
ENDBRANCH   2  23
BRANCH   4  33
ATOM     33  O   LIG     1       9.078  47.715  27.231  0.00  0.00    -0.386 OA
ATOM     34  H   LIG     1       8.464  47.536  26.499  0.00  0.00     0.210 HD
ENDBRANCH   4  33
BRANCH   3  35
ATOM     35  O   LIG     1      11.653  46.796  28.329  0.00  0.00    -0.384 OA
ATOM     36  H   LIG     1      12.572  46.777  28.644  0.00  0.00     0.210 HD
ENDBRANCH   3  35
TORSDOF 13
ENDMDL
MODEL 6
REMARK VINA RESULT:      -7.7      2.998     10.005
REMARK  13 active torsions:
REMARK  status: ('A' for Active; 'I' for Inactive)
REMARK    1  A    between atoms: C_2  and  O_12 
REMARK    2  A    between atoms: C_3  and  O_10 
REMARK    3  A    between atoms: C_4  and  O_8 
REMARK    4  A    between atoms: C_5  and  O_6 
REMARK    5  A    between atoms: C_22  and  C_23 
REMARK    6  A    between atoms: O_12  and  C_13 
REMARK    7  A    between atoms: C_13  and  C_14 
REMARK    8  A    between atoms: C_15  and  C_16 
REMARK    9  A    between atoms: C_23  and  O_24 
REMARK   10  A    between atoms: O_24  and  C_25 
REMARK   11  A    between atoms: C_26  and  O_34 
REMARK   12  A    between atoms: C_27  and  O_32 
REMARK   13  A    between atoms: C_28  and  O_30 
ROOT
ATOM      1  O   LIG     1      12.363  49.189  26.579  0.00  0.00    -0.341 OA
ATOM      2  C   LIG     1      12.228  48.717  27.917  0.00  0.00     0.282 C 
ATOM      3  C   LIG     1      13.477  49.055  28.733  0.00  0.00     0.201 C 
ATOM      4  C   LIG     1      13.802  50.546  28.661  0.00  0.00     0.179 C 
ATOM      5  C   LIG     1      13.779  51.050  27.219  0.00  0.00     0.177 C 
ATOM      6  C   LIG     1      12.495  50.610  26.510  0.00  0.00     0.178 C 
ENDROOT
BRANCH   6   7
ATOM      7  C   LIG     1      12.502  51.001  25.035  0.00  0.00     0.197 C 
BRANCH   7   8
ATOM      8  O   LIG     1      13.839  50.978  24.569  0.00  0.00    -0.346 OA
BRANCH   8   9
ATOM      9  C   LIG     1      13.987  50.135  23.431  0.00  0.00     0.281 C 
ATOM     10  O   LIG     1      15.363  49.900  23.112  0.00  0.00    -0.346 OA
ATOM     11  C   LIG     1      16.056  51.064  22.667  0.00  0.00     0.197 C 
ATOM     12  C   LIG     1      15.416  51.619  21.401  0.00  0.00     0.171 C 
ATOM     13  C   LIG     1      13.940  51.943  21.640  0.00  0.00     0.178 C 
ATOM     14  C   LIG     1      13.223  50.728  22.237  0.00  0.00     0.201 C 
BRANCH  12  15
ATOM     15  O   LIG     1      16.102  52.785  20.968  0.00  0.00    -0.387 OA
ATOM     16  H   LIG     1      16.305  53.316  21.757  0.00  0.00     0.210 HD
ENDBRANCH  12  15
BRANCH  13  17
ATOM     17  O   LIG     1      13.841  53.046  22.540  0.00  0.00    -0.386 OA
ATOM     18  H   LIG     1      12.966  53.001  22.963  0.00  0.00     0.210 HD
ENDBRANCH  13  17
BRANCH  14  19
ATOM     19  O   LIG     1      13.104  49.714  21.242  0.00  0.00    -0.384 OA
ATOM     20  H   LIG     1      13.104  48.848  21.683  0.00  0.00     0.210 HD
ENDBRANCH  14  19
ENDBRANCH   8   9
ENDBRANCH   7   8
ENDBRANCH   6   7
BRANCH   5  21
ATOM     21  O   LIG     1      13.856  52.473  27.214  0.00  0.00    -0.386 OA
ATOM     22  H   LIG     1      14.528  52.739  27.866  0.00  0.00     0.210 HD
ENDBRANCH   5  21
BRANCH   2  23
ATOM     23  O   LIG     1      12.074  47.299  27.915  0.00  0.00    -0.345 OA
BRANCH  23  24
ATOM     24  C   LIG     1      10.767  46.922  27.514  0.00  0.00     0.190 C 
BRANCH  24  25
ATOM     25  C   LIG     1       9.842  47.078  28.678  0.00  0.00     0.001 C 
ATOM     26  C   LIG     1       8.516  46.886  28.597  0.00  0.00     0.006 C 
BRANCH  26  27
ATOM     27  C   LIG     1       7.569  47.014  29.718  0.00  0.00    -0.025 A 
ATOM     28  C   LIG     1       8.053  47.291  30.987  0.00  0.00     0.008 A 
ATOM     29  C   LIG     1       7.156  47.413  32.047  0.00  0.00     0.001 A 
ATOM     30  C   LIG     1       5.788  47.255  31.827  0.00  0.00     0.000 A 
ATOM     31  C   LIG     1       5.316  46.977  30.544  0.00  0.00     0.001 A 
ATOM     32  C   LIG     1       6.213  46.856  29.483  0.00  0.00     0.008 A 
ENDBRANCH  26  27
ENDBRANCH  24  25
ENDBRANCH  23  24
ENDBRANCH   2  23
BRANCH   4  33
ATOM     33  O   LIG     1      15.110  50.774  29.188  0.00  0.00    -0.386 OA
ATOM     34  H   LIG     1      15.731  50.237  28.667  0.00  0.00     0.210 HD
ENDBRANCH   4  33
BRANCH   3  35
ATOM     35  O   LIG     1      13.238  48.685  30.090  0.00  0.00    -0.384 OA
ATOM     36  H   LIG     1      12.280  48.716  30.247  0.00  0.00     0.210 HD
ENDBRANCH   3  35
TORSDOF 13
ENDMDL
MODEL 7
REMARK VINA RESULT:      -7.6      3.728      7.223
REMARK  13 active torsions:
REMARK  status: ('A' for Active; 'I' for Inactive)
REMARK    1  A    between atoms: C_2  and  O_12 
REMARK    2  A    between atoms: C_3  and  O_10 
REMARK    3  A    between atoms: C_4  and  O_8 
REMARK    4  A    between atoms: C_5  and  O_6 
REMARK    5  A    between atoms: C_22  and  C_23 
REMARK    6  A    between atoms: O_12  and  C_13 
REMARK    7  A    between atoms: C_13  and  C_14 
REMARK    8  A    between atoms: C_15  and  C_16 
REMARK    9  A    between atoms: C_23  and  O_24 
REMARK   10  A    between atoms: O_24  and  C_25 
REMARK   11  A    between atoms: C_26  and  O_34 
REMARK   12  A    between atoms: C_27  and  O_32 
REMARK   13  A    between atoms: C_28  and  O_30 
ROOT
ATOM      1  O   LIG     1      11.396  48.448  27.991  0.00  0.00    -0.341 OA
ATOM      2  C   LIG     1       9.973  48.361  27.947  0.00  0.00     0.282 C 
ATOM      3  C   LIG     1       9.522  46.905  28.067  0.00  0.00     0.201 C 
ATOM      4  C   LIG     1      10.117  46.238  29.306  0.00  0.00     0.179 C 
ATOM      5  C   LIG     1      11.621  46.489  29.401  0.00  0.00     0.177 C 
ATOM      6  C   LIG     1      11.936  47.977  29.227  0.00  0.00     0.178 C 
ENDROOT
BRANCH   6   7
ATOM      7  C   LIG     1      13.439  48.237  29.202  0.00  0.00     0.197 C 
BRANCH   7   8
ATOM      8  O   LIG     1      13.708  49.233  28.231  0.00  0.00    -0.346 OA
BRANCH   8   9
ATOM      9  C   LIG     1      14.375  50.356  28.797  0.00  0.00     0.281 C 
ATOM     10  O   LIG     1      13.854  51.595  28.303  0.00  0.00    -0.346 OA
ATOM     11  C   LIG     1      14.107  51.812  26.917  0.00  0.00     0.197 C 
ATOM     12  C   LIG     1      15.605  51.842  26.642  0.00  0.00     0.171 C 
ATOM     13  C   LIG     1      16.263  50.540  27.099  0.00  0.00     0.178 C 
ATOM     14  C   LIG     1      15.888  50.242  28.555  0.00  0.00     0.201 C 
BRANCH  12  15
ATOM     15  O   LIG     1      15.851  52.048  25.258  0.00  0.00    -0.387 OA
ATOM     16  H   LIG     1      15.551  52.946  25.036  0.00  0.00     0.210 HD
ENDBRANCH  12  15
BRANCH  13  17
ATOM     17  O   LIG     1      15.822  49.470  26.264  0.00  0.00    -0.386 OA
ATOM     18  H   LIG     1      16.510  48.783  26.280  0.00  0.00     0.210 HD
ENDBRANCH  13  17
BRANCH  14  19
ATOM     19  O   LIG     1      16.543  51.174  29.412  0.00  0.00    -0.384 OA
ATOM     20  H   LIG     1      16.052  51.221  30.249  0.00  0.00     0.210 HD
ENDBRANCH  14  19
ENDBRANCH   8   9
ENDBRANCH   7   8
ENDBRANCH   6   7
BRANCH   5  21
ATOM     21  O   LIG     1      12.093  46.053  30.673  0.00  0.00    -0.386 OA
ATOM     22  H   LIG     1      11.382  45.542  31.098  0.00  0.00     0.210 HD
ENDBRANCH   5  21
BRANCH   2  23
ATOM     23  O   LIG     1       9.498  48.869  26.703  0.00  0.00    -0.345 OA
BRANCH  23  24
ATOM     24  C   LIG     1      10.192  48.292  25.609  0.00  0.00     0.190 C 
BRANCH  24  25
ATOM     25  C   LIG     1      10.807  49.386  24.796  0.00  0.00     0.001 C 
ATOM     26  C   LIG     1      12.077  49.358  24.364  0.00  0.00     0.006 C 
BRANCH  26  27
ATOM     27  C   LIG     1      12.720  50.404  23.550  0.00  0.00    -0.025 A 
ATOM     28  C   LIG     1      12.547  51.735  23.895  0.00  0.00     0.008 A 
ATOM     29  C   LIG     1      13.156  52.725  23.124  0.00  0.00     0.001 A 
ATOM     30  C   LIG     1      13.929  52.372  22.018  0.00  0.00     0.000 A 
ATOM     31  C   LIG     1      14.094  51.029  21.683  0.00  0.00     0.001 A 
ATOM     32  C   LIG     1      13.485  50.038  22.454  0.00  0.00     0.008 A 
ENDBRANCH  26  27
ENDBRANCH  24  25
ENDBRANCH  23  24
ENDBRANCH   2  23
BRANCH   4  33
ATOM     33  O   LIG     1       9.909  44.826  29.232  0.00  0.00    -0.386 OA
ATOM     34  H   LIG     1       9.945  44.479  30.140  0.00  0.00     0.210 HD
ENDBRANCH   4  33
BRANCH   3  35
ATOM     35  O   LIG     1       8.097  46.885  28.156  0.00  0.00    -0.384 OA
ATOM     36  H   LIG     1       7.840  46.130  28.710  0.00  0.00     0.210 HD
ENDBRANCH   3  35
TORSDOF 13
ENDMDL
MODEL 8
REMARK VINA RESULT:      -7.6      3.279      4.776
REMARK  13 active torsions:
REMARK  status: ('A' for Active; 'I' for Inactive)
REMARK    1  A    between atoms: C_2  and  O_12 
REMARK    2  A    between atoms: C_3  and  O_10 
REMARK    3  A    between atoms: C_4  and  O_8 
REMARK    4  A    between atoms: C_5  and  O_6 
REMARK    5  A    between atoms: C_22  and  C_23 
REMARK    6  A    between atoms: O_12  and  C_13 
REMARK    7  A    between atoms: C_13  and  C_14 
REMARK    8  A    between atoms: C_15  and  C_16 
REMARK    9  A    between atoms: C_23  and  O_24 
REMARK   10  A    between atoms: O_24  and  C_25 
REMARK   11  A    between atoms: C_26  and  O_34 
REMARK   12  A    between atoms: C_27  and  O_32 
REMARK   13  A    between atoms: C_28  and  O_30 
ROOT
ATOM      1  O   LIG     1      18.011  49.268  24.027  0.00  0.00    -0.341 OA
ATOM      2  C   LIG     1      18.741  49.197  22.804  0.00  0.00     0.282 C 
ATOM      3  C   LIG     1      17.790  49.260  21.609  0.00  0.00     0.201 C 
ATOM      4  C   LIG     1      16.881  50.486  21.685  0.00  0.00     0.179 C 
ATOM      5  C   LIG     1      16.240  50.615  23.066  0.00  0.00     0.177 C 
ATOM      6  C   LIG     1      17.295  50.496  24.168  0.00  0.00     0.178 C 
ENDROOT
BRANCH   6   7
ATOM      7  C   LIG     1      16.665  50.506  25.558  0.00  0.00     0.197 C 
BRANCH   7   8
ATOM      8  O   LIG     1      15.288  50.203  25.430  0.00  0.00    -0.346 OA
BRANCH   8   9
ATOM      9  C   LIG     1      14.557  50.564  26.597  0.00  0.00     0.281 C 
ATOM     10  O   LIG     1      13.704  49.504  27.045  0.00  0.00    -0.346 OA
ATOM     11  C   LIG     1      12.635  49.209  26.149  0.00  0.00     0.197 C 
ATOM     12  C   LIG     1      11.738  50.426  25.963  0.00  0.00     0.171 C 
ATOM     13  C   LIG     1      12.546  51.618  25.445  0.00  0.00     0.178 C 
ATOM     14  C   LIG     1      13.767  51.856  26.341  0.00  0.00     0.201 C 
BRANCH  12  15
ATOM     15  O   LIG     1      10.682  50.131  25.060  0.00  0.00    -0.387 OA
ATOM     16  H   LIG     1      11.074  50.012  24.178  0.00  0.00     0.210 HD
ENDBRANCH  12  15
BRANCH  13  17
ATOM     17  O   LIG     1      12.977  51.351  24.112  0.00  0.00    -0.386 OA
ATOM     18  H   LIG     1      12.190  51.112  23.592  0.00  0.00     0.210 HD
ENDBRANCH  13  17
BRANCH  14  19
ATOM     19  O   LIG     1      13.336  52.366  27.600  0.00  0.00    -0.384 OA
ATOM     20  H   LIG     1      12.688  53.072  27.441  0.00  0.00     0.210 HD
ENDBRANCH  14  19
ENDBRANCH   8   9
ENDBRANCH   7   8
ENDBRANCH   6   7
BRANCH   5  21
ATOM     21  O   LIG     1      15.591  51.880  23.169  0.00  0.00    -0.386 OA
ATOM     22  H   LIG     1      14.897  51.807  23.847  0.00  0.00     0.210 HD
ENDBRANCH   5  21
BRANCH   2  23
ATOM     23  O   LIG     1      19.451  47.962  22.738  0.00  0.00    -0.345 OA
BRANCH  23  24
ATOM     24  C   LIG     1      20.830  48.172  22.477  0.00  0.00     0.190 C 
BRANCH  24  25
ATOM     25  C   LIG     1      21.630  47.519  23.559  0.00  0.00     0.001 C 
ATOM     26  C   LIG     1      22.861  47.922  23.910  0.00  0.00     0.006 C 
BRANCH  26  27
ATOM     27  C   LIG     1      23.679  47.319  24.977  0.00  0.00    -0.025 A 
ATOM     28  C   LIG     1      24.987  46.952  24.705  0.00  0.00     0.008 A 
ATOM     29  C   LIG     1      25.761  46.382  25.715  0.00  0.00     0.001 A 
ATOM     30  C   LIG     1      25.217  46.185  26.984  0.00  0.00     0.000 A 
ATOM     31  C   LIG     1      23.899  46.559  27.244  0.00  0.00     0.001 A 
ATOM     32  C   LIG     1      23.124  47.130  26.233  0.00  0.00     0.008 A 
ENDBRANCH  26  27
ENDBRANCH  24  25
ENDBRANCH  23  24
ENDBRANCH   2  23
BRANCH   4  33
ATOM     33  O   LIG     1      15.833  50.361  20.721  0.00  0.00    -0.386 OA
ATOM     34  H   LIG     1      16.164  49.796  20.003  0.00  0.00     0.210 HD
ENDBRANCH   4  33
BRANCH   3  35
ATOM     35  O   LIG     1      18.574  49.324  20.417  0.00  0.00    -0.384 OA
ATOM     36  H   LIG     1      18.918  48.434  20.235  0.00  0.00     0.210 HD
ENDBRANCH   3  35
TORSDOF 13
ENDMDL
