REMARK VINA RESULT:      -7.9      5.617      9.121
REMARK  Name = 5320623
REMARK  11 active torsions:
REMARK  status: ('A' for Active; 'I' for Inactive)
REMARK    1  A    between atoms: O_2  and  C_16
REMARK    2  A    between atoms: O_2  and  C_18
REMARK    3  A    between atoms: O_3  and  C_12
REMARK    4  A    between atoms: O_4  and  C_13
REMARK    5  A    between atoms: O_5  and  C_14
REMARK    6  A    between atoms: O_6  and  C_17
REMARK    7  A    between atoms: O_8  and  C_20
REMARK    8  A    between atoms: O_9  and  C_23
REMARK    9  A    between atoms: O_11  and  C_32
REMARK   10  A    between atoms: C_15  and  C_17
REMARK   11  A    between atoms: C_25  and  C_27
REMARK                            x       y       z     vdW  Elec       q    Type
REMARK                         _______ _______ _______ _____ _____    ______ ____
ROOT
ATOM      7  O   UNL     1     181.745 187.792 169.470  0.00  0.00    +0.000 OA
ATOM     10  O   UNL     1     183.502 191.376 168.654  0.00  0.00    +0.000 OA
ATOM     18  C   UNL     1     185.068 187.108 170.804  0.00  0.00    +0.000 A 
ATOM     19  C   UNL     1     183.732 186.952 170.433  0.00  0.00    +0.000 A 
ATOM     20  C   UNL     1     185.728 188.312 170.554  0.00  0.00    +0.000 A 
ATOM     21  C   UNL     1     183.057 188.003 169.811  0.00  0.00    +0.000 A 
ATOM     22  C   UNL     1     183.719 189.206 169.563  0.00  0.00    +0.000 A 
ATOM     23  C   UNL     1     185.056 189.365 169.932  0.00  0.00    +0.000 A 
ATOM     24  C   UNL     1     182.984 190.296 168.905  0.00  0.00    +0.000 A 
ATOM     25  C   UNL     1     181.047 188.821 168.858  0.00  0.00    +0.000 A 
ATOM     26  C   UNL     1     181.575 190.019 168.560  0.00  0.00    +0.000 A 
ENDROOT
BRANCH  25  27
ATOM     27  C   UNL     1     179.648 188.484 168.529  0.00  0.00    +0.000 A 
ATOM     28  C   UNL     1     178.629 189.410 168.765  0.00  0.00    +0.000 A 
ATOM     29  C   UNL     1     179.337 187.237 167.982  0.00  0.00    +0.000 A 
ATOM     30  C   UNL     1     177.307 189.091 168.454  0.00  0.00    +0.000 A 
ATOM     31  C   UNL     1     178.015 186.918 167.671  0.00  0.00    +0.000 A 
ATOM     32  C   UNL     1     177.000 187.845 167.908  0.00  0.00    +0.000 A 
BRANCH  32  11
ATOM     11  O   UNL     1     175.710 187.533 167.604  0.00  0.00    +0.000 OA
ATOM     39  H   UNL     1     175.323 188.262 167.090  0.00  0.00    +0.000 HD
ENDBRANCH  32  11
ENDBRANCH  25  27
BRANCH  20   8
ATOM      8  O   UNL     1     187.035 188.456 170.919  0.00  0.00    +0.000 OA
ATOM     37  H   UNL     1     187.254 189.404 170.907  0.00  0.00    +0.000 HD
ENDBRANCH  20   8
BRANCH  23   9
ATOM      9  O   UNL     1     185.735 190.525 169.706  0.00  0.00    +0.000 OA
ATOM     38  H   UNL     1     185.889 191.001 170.537  0.00  0.00    +0.000 HD
ENDBRANCH  23   9
BRANCH  18   2
ATOM      2  O   UNL     1     185.718 186.074 171.412  0.00  0.00    +0.000 OA
BRANCH   2  16
ATOM      1  O   UNL     1     185.352 186.101 173.717  0.00  0.00    +0.000 OA
ATOM     12  C   UNL     1     184.920 183.261 173.765  0.00  0.00    +0.000 C 
ATOM     13  C   UNL     1     185.138 184.079 175.038  0.00  0.00    +0.000 C 
ATOM     14  C   UNL     1     185.488 183.979 172.541  0.00  0.00    +0.000 C 
ATOM     15  C   UNL     1     184.681 185.526 174.839  0.00  0.00    +0.000 C 
ATOM     16  C   UNL     1     185.037 185.439 172.493  0.00  0.00    +0.000 C 
BRANCH  12   3
ATOM      3  O   UNL     1     185.580 182.005 173.929  0.00  0.00    +0.000 OA
ATOM     33  H   UNL     1     184.927 181.307 173.750  0.00  0.00    +0.000 HD
ENDBRANCH  12   3
BRANCH  13   4
ATOM      4  O   UNL     1     184.400 183.495 176.107  0.00  0.00    +0.000 OA
ATOM     34  H   UNL     1     184.901 183.634 176.930  0.00  0.00    +0.000 HD
ENDBRANCH  13   4
BRANCH  14   5
ATOM      5  O   UNL     1     185.029 183.330 171.356  0.00  0.00    +0.000 OA
ATOM     35  H   UNL     1     184.467 182.582 171.619  0.00  0.00    +0.000 HD
ENDBRANCH  14   5
BRANCH  15  17
ATOM     17  C   UNL     1     184.996 186.392 176.055  0.00  0.00    +0.000 C 
BRANCH  17   6
ATOM      6  O   UNL     1     186.188 185.917 176.651  0.00  0.00    +0.000 OA
ATOM     36  H   UNL     1     186.912 186.503 176.369  0.00  0.00    +0.000 HD
ENDBRANCH  17   6
ENDBRANCH  15  17
ENDBRANCH   2  16
ENDBRANCH  18   2
TORSDOF 11
