REMARK VINA RESULT:      -7.7      7.656     12.024
REMARK  Name = 5320623
REMARK  11 active torsions:
REMARK  status: ('A' for Active; 'I' for Inactive)
REMARK    1  A    between atoms: O_2  and  C_16
REMARK    2  A    between atoms: O_2  and  C_18
REMARK    3  A    between atoms: O_3  and  C_12
REMARK    4  A    between atoms: O_4  and  C_13
REMARK    5  A    between atoms: O_5  and  C_14
REMARK    6  A    between atoms: O_6  and  C_17
REMARK    7  A    between atoms: O_8  and  C_20
REMARK    8  A    between atoms: O_9  and  C_23
REMARK    9  A    between atoms: O_11  and  C_32
REMARK   10  A    between atoms: C_15  and  C_17
REMARK   11  A    between atoms: C_25  and  C_27
REMARK                            x       y       z     vdW  Elec       q    Type
REMARK                         _______ _______ _______ _____ _____    ______ ____
ROOT
ATOM      7  O   UNL     1     178.727 175.927 172.407  0.00  0.00    +0.000 OA
ATOM     10  O   UNL     1     175.020 177.180 171.272  0.00  0.00    +0.000 OA
ATOM     18  C   UNL     1     179.578 179.301 171.325  0.00  0.00    +0.000 A 
ATOM     19  C   UNL     1     179.690 178.002 171.821  0.00  0.00    +0.000 A 
ATOM     20  C   UNL     1     178.336 179.792 170.920  0.00  0.00    +0.000 A 
ATOM     21  C   UNL     1     178.556 177.195 171.911  0.00  0.00    +0.000 A 
ATOM     22  C   UNL     1     177.316 177.687 171.506  0.00  0.00    +0.000 A 
ATOM     23  C   UNL     1     177.200 178.987 171.008  0.00  0.00    +0.000 A 
ATOM     24  C   UNL     1     176.137 176.814 171.611  0.00  0.00    +0.000 A 
ATOM     25  C   UNL     1     177.616 175.105 172.516  0.00  0.00    +0.000 A 
ATOM     26  C   UNL     1     176.374 175.461 172.153  0.00  0.00    +0.000 A 
ENDROOT
BRANCH  25  27
ATOM     27  C   UNL     1     177.914 173.762 173.054  0.00  0.00    +0.000 A 
ATOM     28  C   UNL     1     179.237 173.332 173.174  0.00  0.00    +0.000 A 
ATOM     29  C   UNL     1     176.873 172.916 173.444  0.00  0.00    +0.000 A 
ATOM     30  C   UNL     1     179.518 172.063 173.682  0.00  0.00    +0.000 A 
ATOM     31  C   UNL     1     177.153 171.648 173.953  0.00  0.00    +0.000 A 
ATOM     32  C   UNL     1     178.476 171.221 174.071  0.00  0.00    +0.000 A 
BRANCH  32  11
ATOM     11  O   UNL     1     178.750 169.983 174.567  0.00  0.00    +0.000 OA
ATOM     39  H   UNL     1     179.245 170.080 175.398  0.00  0.00    +0.000 HD
ENDBRANCH  32  11
ENDBRANCH  25  27
BRANCH  20   8
ATOM      8  O   UNL     1     178.237 181.064 170.435  0.00  0.00    +0.000 OA
ATOM     37  H   UNL     1     178.170 181.018 169.465  0.00  0.00    +0.000 HD
ENDBRANCH  20   8
BRANCH  23   9
ATOM      9  O   UNL     1     176.006 179.503 170.604  0.00  0.00    +0.000 OA
ATOM     38  H   UNL     1     175.506 179.847 171.361  0.00  0.00    +0.000 HD
ENDBRANCH  23   9
BRANCH  18   2
ATOM      2  O   UNL     1     180.694 180.083 171.241  0.00  0.00    +0.000 OA
BRANCH   2  16
ATOM      1  O   UNL     1     180.583 182.222 172.168  0.00  0.00    +0.000 OA
ATOM     12  C   UNL     1     182.956 181.762 173.722  0.00  0.00    +0.000 C 
ATOM     13  C   UNL     1     182.353 183.155 173.538  0.00  0.00    +0.000 C 
ATOM     14  C   UNL     1     182.516 180.817 172.603  0.00  0.00    +0.000 C 
ATOM     15  C   UNL     1     180.845 183.067 173.290  0.00  0.00    +0.000 C 
ATOM     16  C   UNL     1     181.004 180.877 172.385  0.00  0.00    +0.000 C 
BRANCH  12   3
ATOM      3  O   UNL     1     184.378 181.891 173.705  0.00  0.00    +0.000 OA
ATOM     33  H   UNL     1     184.588 182.824 173.881  0.00  0.00    +0.000 HD
ENDBRANCH  12   3
BRANCH  13   4
ATOM      4  O   UNL     1     182.593 183.932 174.708  0.00  0.00    +0.000 OA
ATOM     34  H   UNL     1     183.130 183.397 175.318  0.00  0.00    +0.000 HD
ENDBRANCH  13   4
BRANCH  14   5
ATOM      5  O   UNL     1     182.865 179.478 172.951  0.00  0.00    +0.000 OA
ATOM     35  H   UNL     1     183.600 179.512 173.586  0.00  0.00    +0.000 HD
ENDBRANCH  14   5
BRANCH  15  17
ATOM     17  C   UNL     1     180.240 184.433 172.987  0.00  0.00    +0.000 C 
BRANCH  17   6
ATOM      6  O   UNL     1     179.173 184.665 173.887  0.00  0.00    +0.000 OA
ATOM     36  H   UNL     1     179.534 185.142 174.655  0.00  0.00    +0.000 HD
ENDBRANCH  17   6
ENDBRANCH  15  17
ENDBRANCH   2  16
ENDBRANCH  18   2
TORSDOF 11
