REMARK VINA RESULT:      -7.8      4.815      8.313
REMARK  Name = 5320623
REMARK  11 active torsions:
REMARK  status: ('A' for Active; 'I' for Inactive)
REMARK    1  A    between atoms: O_2  and  C_16
REMARK    2  A    between atoms: O_2  and  C_18
REMARK    3  A    between atoms: O_3  and  C_12
REMARK    4  A    between atoms: O_4  and  C_13
REMARK    5  A    between atoms: O_5  and  C_14
REMARK    6  A    between atoms: O_6  and  C_17
REMARK    7  A    between atoms: O_8  and  C_20
REMARK    8  A    between atoms: O_9  and  C_23
REMARK    9  A    between atoms: O_11  and  C_32
REMARK   10  A    between atoms: C_15  and  C_17
REMARK   11  A    between atoms: C_25  and  C_27
REMARK                            x       y       z     vdW  Elec       q    Type
REMARK                         _______ _______ _______ _____ _____    ______ ____
ROOT
ATOM      7  O   UNL     1     181.371 182.912 169.785  0.00  0.00    +0.000 OA
ATOM     10  O   UNL     1     182.225 178.981 170.435  0.00  0.00    +0.000 OA
ATOM     18  C   UNL     1     182.702 183.175 173.167  0.00  0.00    +0.000 A 
ATOM     19  C   UNL     1     182.150 183.513 171.931  0.00  0.00    +0.000 A 
ATOM     20  C   UNL     1     183.019 181.847 173.453  0.00  0.00    +0.000 A 
ATOM     21  C   UNL     1     181.915 182.519 170.981  0.00  0.00    +0.000 A 
ATOM     22  C   UNL     1     182.233 181.192 171.269  0.00  0.00    +0.000 A 
ATOM     23  C   UNL     1     182.785 180.850 172.505  0.00  0.00    +0.000 A 
ATOM     24  C   UNL     1     181.974 180.164 170.250  0.00  0.00    +0.000 A 
ATOM     25  C   UNL     1     181.134 181.946 168.819  0.00  0.00    +0.000 A 
ATOM     26  C   UNL     1     181.390 180.638 168.979  0.00  0.00    +0.000 A 
ENDROOT
BRANCH  25  27
ATOM     27  C   UNL     1     180.541 182.476 167.574  0.00  0.00    +0.000 A 
ATOM     28  C   UNL     1     180.418 183.854 167.386  0.00  0.00    +0.000 A 
ATOM     29  C   UNL     1     180.100 181.600 166.579  0.00  0.00    +0.000 A 
ATOM     30  C   UNL     1     179.858 184.354 166.211  0.00  0.00    +0.000 A 
ATOM     31  C   UNL     1     179.540 182.099 165.404  0.00  0.00    +0.000 A 
ATOM     32  C   UNL     1     179.418 183.476 165.220  0.00  0.00    +0.000 A 
BRANCH  32  11
ATOM     11  O   UNL     1     178.871 183.964 164.072  0.00  0.00    +0.000 OA
ATOM     39  H   UNL     1     179.479 183.788 163.334  0.00  0.00    +0.000 HD
ENDBRANCH  32  11
ENDBRANCH  25  27
BRANCH  20   8
ATOM      8  O   UNL     1     183.559 181.525 174.665  0.00  0.00    +0.000 OA
ATOM     37  H   UNL     1     183.674 180.560 174.702  0.00  0.00    +0.000 HD
ENDBRANCH  20   8
BRANCH  23   9
ATOM      9  O   UNL     1     183.109 179.565 172.821  0.00  0.00    +0.000 OA
ATOM     38  H   UNL     1     182.311 179.025 172.928  0.00  0.00    +0.000 HD
ENDBRANCH  23   9
BRANCH  18   2
ATOM      2  O   UNL     1     182.928 184.156 174.089  0.00  0.00    +0.000 OA
BRANCH   2  16
ATOM      1  O   UNL     1     185.076 184.197 173.177  0.00  0.00    +0.000 OA
ATOM     12  C   UNL     1     185.988 186.028 175.195  0.00  0.00    +0.000 C 
ATOM     13  C   UNL     1     186.950 185.278 174.273  0.00  0.00    +0.000 C 
ATOM     14  C   UNL     1     184.642 185.310 175.292  0.00  0.00    +0.000 C 
ATOM     15  C   UNL     1     186.274 184.939 172.942  0.00  0.00    +0.000 C 
ATOM     16  C   UNL     1     184.105 184.943 173.908  0.00  0.00    +0.000 C 
BRANCH  12   3
ATOM      3  O   UNL     1     186.585 186.100 176.491  0.00  0.00    +0.000 OA
ATOM     33  H   UNL     1     185.884 186.338 177.121  0.00  0.00    +0.000 HD
ENDBRANCH  12   3
BRANCH  13   4
ATOM      4  O   UNL     1     188.096 186.088 174.026  0.00  0.00    +0.000 OA
ATOM     34  H   UNL     1     187.917 186.977 174.379  0.00  0.00    +0.000 HD
ENDBRANCH  13   4
BRANCH  14   5
ATOM      5  O   UNL     1     183.694 186.167 175.927  0.00  0.00    +0.000 OA
ATOM     35  H   UNL     1     184.099 187.044 176.028  0.00  0.00    +0.000 HD
ENDBRANCH  14   5
BRANCH  15  17
ATOM     17  C   UNL     1     187.173 184.089 172.051  0.00  0.00    +0.000 C 
BRANCH  17   6
ATOM      6  O   UNL     1     188.173 184.921 171.492  0.00  0.00    +0.000 OA
ATOM     36  H   UNL     1     188.120 184.836 170.525  0.00  0.00    +0.000 HD
ENDBRANCH  17   6
ENDBRANCH  15  17
ENDBRANCH   2  16
ENDBRANCH  18   2
TORSDOF 11
