REMARK VINA RESULT:      -8.1      3.548      4.646
REMARK  Name = 5320623
REMARK  11 active torsions:
REMARK  status: ('A' for Active; 'I' for Inactive)
REMARK    1  A    between atoms: O_2  and  C_16
REMARK    2  A    between atoms: O_2  and  C_18
REMARK    3  A    between atoms: O_3  and  C_12
REMARK    4  A    between atoms: O_4  and  C_13
REMARK    5  A    between atoms: O_5  and  C_14
REMARK    6  A    between atoms: O_6  and  C_17
REMARK    7  A    between atoms: O_8  and  C_20
REMARK    8  A    between atoms: O_9  and  C_23
REMARK    9  A    between atoms: O_11  and  C_32
REMARK   10  A    between atoms: C_15  and  C_17
REMARK   11  A    between atoms: C_25  and  C_27
REMARK                            x       y       z     vdW  Elec       q    Type
REMARK                         _______ _______ _______ _____ _____    ______ ____
ROOT
ATOM      7  O   UNL     1     185.923 184.364 166.809  0.00  0.00    +0.000 OA
ATOM     10  O   UNL     1     189.855 184.911 165.892  0.00  0.00    +0.000 OA
ATOM     18  C   UNL     1     187.116 185.467 170.071  0.00  0.00    +0.000 A 
ATOM     19  C   UNL     1     186.276 185.027 169.048  0.00  0.00    +0.000 A 
ATOM     20  C   UNL     1     188.473 185.676 169.823  0.00  0.00    +0.000 A 
ATOM     21  C   UNL     1     186.797 184.796 167.775  0.00  0.00    +0.000 A 
ATOM     22  C   UNL     1     188.154 185.005 167.528  0.00  0.00    +0.000 A 
ATOM     23  C   UNL     1     188.997 185.444 168.550  0.00  0.00    +0.000 A 
ATOM     24  C   UNL     1     188.676 184.752 166.177  0.00  0.00    +0.000 A 
ATOM     25  C   UNL     1     186.411 184.134 165.532  0.00  0.00    +0.000 A 
ATOM     26  C   UNL     1     187.695 184.292 165.174  0.00  0.00    +0.000 A 
ENDROOT
BRANCH  25  27
ATOM     27  C   UNL     1     185.389 183.667 164.574  0.00  0.00    +0.000 A 
ATOM     28  C   UNL     1     184.233 183.032 165.035  0.00  0.00    +0.000 A 
ATOM     29  C   UNL     1     185.574 183.857 163.202  0.00  0.00    +0.000 A 
ATOM     30  C   UNL     1     183.268 182.591 164.130  0.00  0.00    +0.000 A 
ATOM     31  C   UNL     1     184.609 183.416 162.297  0.00  0.00    +0.000 A 
ATOM     32  C   UNL     1     183.456 182.782 162.761  0.00  0.00    +0.000 A 
BRANCH  32  11
ATOM     11  O   UNL     1     182.514 182.351 161.877  0.00  0.00    +0.000 OA
ATOM     39  H   UNL     1     181.675 182.222 162.351  0.00  0.00    +0.000 HD
ENDBRANCH  32  11
ENDBRANCH  25  27
BRANCH  20   8
ATOM      8  O   UNL     1     189.288 186.105 170.830  0.00  0.00    +0.000 OA
ATOM     37  H   UNL     1     188.798 186.756 171.364  0.00  0.00    +0.000 HD
ENDBRANCH  20   8
BRANCH  23   9
ATOM      9  O   UNL     1     190.327 185.661 168.347  0.00  0.00    +0.000 OA
ATOM     38  H   UNL     1     190.535 185.664 167.400  0.00  0.00    +0.000 HD
ENDBRANCH  23   9
BRANCH  18   2
ATOM      2  O   UNL     1     186.596 185.691 171.313  0.00  0.00    +0.000 OA
BRANCH   2  16
ATOM      1  O   UNL     1     185.270 184.108 172.401  0.00  0.00    +0.000 OA
ATOM     12  C   UNL     1     187.092 183.982 174.618  0.00  0.00    +0.000 C 
ATOM     13  C   UNL     1     185.687 183.383 174.676  0.00  0.00    +0.000 C 
ATOM     14  C   UNL     1     187.188 185.066 173.543  0.00  0.00    +0.000 C 
ATOM     15  C   UNL     1     185.209 182.982 173.279  0.00  0.00    +0.000 C 
ATOM     16  C   UNL     1     186.601 184.585 172.216  0.00  0.00    +0.000 C 
BRANCH  12   3
ATOM      3  O   UNL     1     187.383 184.552 175.896  0.00  0.00    +0.000 OA
ATOM     33  H   UNL     1     188.036 185.259 175.757  0.00  0.00    +0.000 HD
ENDBRANCH  12   3
BRANCH  13   4
ATOM      4  O   UNL     1     185.700 182.232 175.517  0.00  0.00    +0.000 OA
ATOM     34  H   UNL     1     185.771 182.535 176.439  0.00  0.00    +0.000 HD
ENDBRANCH  13   4
BRANCH  14   5
ATOM      5  O   UNL     1     188.558 185.402 173.331  0.00  0.00    +0.000 OA
ATOM     35  H   UNL     1     188.618 185.928 172.516  0.00  0.00    +0.000 HD
ENDBRANCH  14   5
BRANCH  15  17
ATOM     17  C   UNL     1     183.765 182.491 173.294  0.00  0.00    +0.000 C 
BRANCH  17   6
ATOM      6  O   UNL     1     183.757 181.125 173.665  0.00  0.00    +0.000 OA
ATOM     36  H   UNL     1     183.146 180.661 173.067  0.00  0.00    +0.000 HD
ENDBRANCH  17   6
ENDBRANCH  15  17
ENDBRANCH   2  16
ENDBRANCH  18   2
TORSDOF 11
