REMARK VINA RESULT:      -7.8      1.907      2.472
REMARK  Name = 5320623
REMARK  11 active torsions:
REMARK  status: ('A' for Active; 'I' for Inactive)
REMARK    1  A    between atoms: O_2  and  C_16
REMARK    2  A    between atoms: O_2  and  C_18
REMARK    3  A    between atoms: O_3  and  C_12
REMARK    4  A    between atoms: O_4  and  C_13
REMARK    5  A    between atoms: O_5  and  C_14
REMARK    6  A    between atoms: O_6  and  C_17
REMARK    7  A    between atoms: O_8  and  C_20
REMARK    8  A    between atoms: O_9  and  C_23
REMARK    9  A    between atoms: O_11  and  C_32
REMARK   10  A    between atoms: C_15  and  C_17
REMARK   11  A    between atoms: C_25  and  C_27
REMARK                            x       y       z     vdW  Elec       q    Type
REMARK                         _______ _______ _______ _____ _____    ______ ____
ROOT
ATOM      7  O   UNL     1     187.807 184.439 169.011  0.00  0.00    +0.000 OA
ATOM     10  O   UNL     1     188.300 187.598 166.486  0.00  0.00    +0.000 OA
ATOM     18  C   UNL     1     186.060 186.986 170.946  0.00  0.00    +0.000 A 
ATOM     19  C   UNL     1     186.608 185.764 170.555  0.00  0.00    +0.000 A 
ATOM     20  C   UNL     1     186.192 188.107 170.125  0.00  0.00    +0.000 A 
ATOM     21  C   UNL     1     187.290 185.666 169.342  0.00  0.00    +0.000 A 
ATOM     22  C   UNL     1     187.421 186.787 168.523  0.00  0.00    +0.000 A 
ATOM     23  C   UNL     1     186.874 188.012 168.912  0.00  0.00    +0.000 A 
ATOM     24  C   UNL     1     188.145 186.656 167.250  0.00  0.00    +0.000 A 
ATOM     25  C   UNL     1     188.482 184.310 167.807  0.00  0.00    +0.000 A 
ATOM     26  C   UNL     1     188.680 185.315 166.939  0.00  0.00    +0.000 A 
ENDROOT
BRANCH  25  27
ATOM     27  C   UNL     1     189.002 182.951 167.554  0.00  0.00    +0.000 A 
ATOM     28  C   UNL     1     188.876 182.375 166.287  0.00  0.00    +0.000 A 
ATOM     29  C   UNL     1     189.621 182.234 168.581  0.00  0.00    +0.000 A 
ATOM     30  C   UNL     1     189.367 181.092 166.049  0.00  0.00    +0.000 A 
ATOM     31  C   UNL     1     190.112 180.950 168.343  0.00  0.00    +0.000 A 
ATOM     32  C   UNL     1     189.984 180.379 167.077  0.00  0.00    +0.000 A 
BRANCH  32  11
ATOM     11  O   UNL     1     190.463 179.126 166.844  0.00  0.00    +0.000 OA
ATOM     39  H   UNL     1     190.912 178.806 167.645  0.00  0.00    +0.000 HD
ENDBRANCH  32  11
ENDBRANCH  25  27
BRANCH  20   8
ATOM      8  O   UNL     1     185.654 189.299 170.516  0.00  0.00    +0.000 OA
ATOM     37  H   UNL     1     185.821 189.955 169.817  0.00  0.00    +0.000 HD
ENDBRANCH  20   8
BRANCH  23   9
ATOM      9  O   UNL     1     186.981 189.129 168.138  0.00  0.00    +0.000 OA
ATOM     38  H   UNL     1     187.895 189.453 168.126  0.00  0.00    +0.000 HD
ENDBRANCH  23   9
BRANCH  18   2
ATOM      2  O   UNL     1     185.395 187.070 172.135  0.00  0.00    +0.000 OA
BRANCH   2  16
ATOM      1  O   UNL     1     184.230 185.231 172.976  0.00  0.00    +0.000 OA
ATOM     12  C   UNL     1     185.745 185.284 175.417  0.00  0.00    +0.000 C 
ATOM     13  C   UNL     1     184.468 184.458 175.262  0.00  0.00    +0.000 C 
ATOM     14  C   UNL     1     185.792 186.427 174.403  0.00  0.00    +0.000 C 
ATOM     15  C   UNL     1     184.249 184.064 173.799  0.00  0.00    +0.000 C 
ATOM     16  C   UNL     1     185.472 185.932 172.992  0.00  0.00    +0.000 C 
BRANCH  12   3
ATOM      3  O   UNL     1     185.766 185.820 176.741  0.00  0.00    +0.000 OA
ATOM     33  H   UNL     1     186.177 185.154 177.318  0.00  0.00    +0.000 HD
ENDBRANCH  12   3
BRANCH  13   4
ATOM      4  O   UNL     1     184.568 183.280 176.057  0.00  0.00    +0.000 OA
ATOM     34  H   UNL     1     184.138 182.553 175.573  0.00  0.00    +0.000 HD
ENDBRANCH  13   4
BRANCH  14   5
ATOM      5  O   UNL     1     187.100 186.996 174.391  0.00  0.00    +0.000 OA
ATOM     35  H   UNL     1     187.696 186.376 173.939  0.00  0.00    +0.000 HD
ENDBRANCH  14   5
BRANCH  15  17
ATOM     17  C   UNL     1     182.922 183.340 173.600  0.00  0.00    +0.000 C 
BRANCH  17   6
ATOM      6  O   UNL     1     182.042 183.715 174.643  0.00  0.00    +0.000 OA
ATOM     36  H   UNL     1     182.575 184.128 175.344  0.00  0.00    +0.000 HD
ENDBRANCH  17   6
ENDBRANCH  15  17
ENDBRANCH   2  16
ENDBRANCH  18   2
TORSDOF 11
