MODEL 1
REMARK VINA RESULT:      -8.8      0.000      0.000
REMARK  12 active torsions:
REMARK  status: ('A' for Active; 'I' for Inactive)
REMARK    1  A    between atoms: O_1  and  C_10 
REMARK    2  A    between atoms: O_2  and  C_17 
REMARK    3  A    between atoms: O_3  and  C_20 
REMARK    4  A    between atoms: O_4  and  C_27 
REMARK    5  A    between atoms: O_6  and  C_29 
REMARK    6  A    between atoms: O_7  and  C_28 
REMARK    7  A    between atoms: O_8  and  C_33 
REMARK    8  A    between atoms: C_11  and  C_20 
REMARK    9  A    between atoms: C_20  and  C_28 
REMARK   10  A    between atoms: C_28  and  C_31 
REMARK   11  A    between atoms: C_31  and  C_32 
REMARK   12  A    between atoms: C_32  and  C_33 
ROOT
HETATM    1  O   UNK     0     153.821 152.554 148.274  0.00  0.00    -0.384 OA
HETATM    2  H   UNK     0     154.331 152.931 149.005  0.00  0.00     0.211 HD
ENDROOT
BRANCH   1   3
HETATM    3  C   UNK     0     152.870 153.511 147.753  0.00  0.00     0.090 C 
HETATM    4  C   UNK     0     151.457 152.872 147.717  0.00  0.00    -0.000 C 
HETATM    5  C   UNK     0     151.680 151.735 146.686  0.00  0.00     0.034 C 
HETATM    6  C   UNK     0     151.108 152.378 149.128  0.00  0.00     0.045 C 
HETATM    7  C   UNK     0     150.358 153.855 147.224  0.00  0.00     0.019 C 
HETATM    8  C   UNK     0     152.587 152.382 145.615  0.00  0.00     0.012 C 
HETATM    9  C   UNK     0     153.201 153.644 146.260  0.00  0.00     0.044 C 
HETATM   10  C   UNK     0     151.154 153.527 150.156  0.00  0.00     0.128 C 
HETATM   11  C   UNK     0     152.491 154.357 150.149  0.00  0.00     0.055 C 
HETATM   12  C   UNK     0     152.472 155.618 151.121  0.00  0.00    -0.021 C 
HETATM   13  C   UNK     0     152.911 154.692 148.702  0.00  0.00    -0.034 C 
HETATM   14  C   UNK     0     153.611 156.609 150.741  0.00  0.00     0.071 C 
HETATM   15  C   UNK     0     152.626 155.187 152.626  0.00  0.00     0.045 C 
HETATM   16  C   UNK     0     151.125 156.384 150.997  0.00  0.00     0.017 C 
HETATM   17  C   UNK     0     155.036 156.123 151.059  0.00  0.00     0.047 C 
HETATM   18  C   UNK     0     153.541 156.984 149.276  0.00  0.00     0.154 C 
HETATM   19  C   UNK     0     155.115 155.192 152.264  0.00  0.00     0.147 C 
HETATM   20  C   UNK     0     153.994 155.457 153.260  0.00  0.00     0.147 C 
HETATM   21  O   UNK     0     153.736 158.134 148.887  0.00  0.00    -0.293 OA
HETATM   22  C   UNK     0     153.326 155.901 148.297  0.00  0.00     0.057 C 
BRANCH   5  23
HETATM   23  C   UNK     0     150.431 151.096 146.096  0.00  0.00     0.084 C 
HETATM   24  C   UNK     0     150.484 149.572 146.288  0.00  0.00     0.049 C 
BRANCH  23  25
HETATM   25  O   UNK     0     149.291 151.579 146.819  0.00  0.00    -0.387 OA
HETATM   26  H   UNK     0     149.166 152.521 146.618  0.00  0.00     0.210 HD
ENDBRANCH  23  25
BRANCH  23  27
HETATM   27  C   UNK     0     150.241 151.453 144.597  0.00  0.00     0.152 C 
BRANCH  27  28
HETATM   28  O   UNK     0     149.183 152.409 144.462  0.00  0.00    -0.393 OA
HETATM   29  H   UNK     0     148.392 151.927 144.168  0.00  0.00     0.210 HD
ENDBRANCH  27  28
BRANCH  27  30
HETATM   30  C   UNK     0     149.921 150.246 143.694  0.00  0.00     0.037 C 
BRANCH  30  31
HETATM   31  C   UNK     0     148.563 150.399 142.985  0.00  0.00     0.040 C 
BRANCH  31  32
HETATM   32  C   UNK     0     147.401 149.635 143.655  0.00  0.00     0.051 C 
HETATM   33  C   UNK     0     146.200 149.592 142.705  0.00  0.00     0.045 C 
HETATM   34  C   UNK     0     147.794 148.212 144.063  0.00  0.00     0.045 C 
BRANCH  32  35
HETATM   35  O   UNK     0     147.009 150.350 144.828  0.00  0.00    -0.391 OA
HETATM   36  H   UNK     0     147.747 150.338 145.460  0.00  0.00     0.210 HD
ENDBRANCH  32  35
ENDBRANCH  31  32
ENDBRANCH  30  31
ENDBRANCH  27  30
ENDBRANCH  23  27
ENDBRANCH   5  23
BRANCH  10  37
HETATM   37  O   UNK     0     150.929 152.951 151.440  0.00  0.00    -0.395 OA
HETATM   38  H   UNK     0     150.357 153.559 151.940  0.00  0.00     0.210 HD
ENDBRANCH  10  37
BRANCH  19  39
HETATM   39  O   UNK     0     156.385 155.358 152.889  0.00  0.00    -0.393 OA
HETATM   40  H   UNK     0     156.880 156.035 152.399  0.00  0.00     0.210 HD
ENDBRANCH  19  39
BRANCH  20  41
HETATM   41  O   UNK     0     154.039 156.812 153.711  0.00  0.00    -0.393 OA
HETATM   42  H   UNK     0     153.859 156.811 154.666  0.00  0.00     0.210 HD
ENDBRANCH  20  41
ENDBRANCH   1   3
TORSDOF 12
ENDMDL
MODEL 2
REMARK VINA RESULT:      -8.7      1.765      2.656
REMARK  12 active torsions:
REMARK  status: ('A' for Active; 'I' for Inactive)
REMARK    1  A    between atoms: O_1  and  C_10 
REMARK    2  A    between atoms: O_2  and  C_17 
REMARK    3  A    between atoms: O_3  and  C_20 
REMARK    4  A    between atoms: O_4  and  C_27 
REMARK    5  A    between atoms: O_6  and  C_29 
REMARK    6  A    between atoms: O_7  and  C_28 
REMARK    7  A    between atoms: O_8  and  C_33 
REMARK    8  A    between atoms: C_11  and  C_20 
REMARK    9  A    between atoms: C_20  and  C_28 
REMARK   10  A    between atoms: C_28  and  C_31 
REMARK   11  A    between atoms: C_31  and  C_32 
REMARK   12  A    between atoms: C_32  and  C_33 
ROOT
HETATM    1  O   UNK     0     154.003 152.681 148.154  0.00  0.00    -0.384 OA
HETATM    2  H   UNK     0     153.644 151.783 148.185  0.00  0.00     0.211 HD
ENDROOT
BRANCH   1   3
HETATM    3  C   UNK     0     153.020 153.621 147.664  0.00  0.00     0.090 C 
HETATM    4  C   UNK     0     151.638 152.926 147.569  0.00  0.00    -0.000 C 
HETATM    5  C   UNK     0     151.927 151.853 146.487  0.00  0.00     0.034 C 
HETATM    6  C   UNK     0     151.287 152.346 148.946  0.00  0.00     0.045 C 
HETATM    7  C   UNK     0     150.506 153.884 147.106  0.00  0.00     0.019 C 
HETATM    8  C   UNK     0     152.823 152.592 145.466  0.00  0.00     0.012 C 
HETATM    9  C   UNK     0     153.370 153.845 146.186  0.00  0.00     0.044 C 
HETATM   10  C   UNK     0     151.266 153.442 150.032  0.00  0.00     0.128 C 
HETATM   11  C   UNK     0     152.566 154.327 150.091  0.00  0.00     0.055 C 
HETATM   12  C   UNK     0     152.475 155.535 151.125  0.00  0.00    -0.021 C 
HETATM   13  C   UNK     0     152.994 154.753 148.671  0.00  0.00    -0.034 C 
HETATM   14  C   UNK     0     153.576 156.592 150.817  0.00  0.00     0.071 C 
HETATM   15  C   UNK     0     152.623 155.035 152.610  0.00  0.00     0.045 C 
HETATM   16  C   UNK     0     151.098 156.249 151.015  0.00  0.00     0.017 C 
HETATM   17  C   UNK     0     155.016 156.152 151.137  0.00  0.00     0.047 C 
HETATM   18  C   UNK     0     153.514 157.038 149.371  0.00  0.00     0.154 C 
HETATM   19  C   UNK     0     155.115 155.165 152.295  0.00  0.00     0.147 C 
HETATM   20  C   UNK     0     153.967 155.331 153.282  0.00  0.00     0.147 C 
HETATM   21  O   UNK     0     153.665 158.213 149.044  0.00  0.00    -0.293 OA
HETATM   22  C   UNK     0     153.362 155.997 148.336  0.00  0.00     0.057 C 
BRANCH   5  23
HETATM   23  C   UNK     0     150.717 151.192 145.842  0.00  0.00     0.084 C 
HETATM   24  C   UNK     0     150.385 149.882 146.576  0.00  0.00     0.049 C 
BRANCH  23  25
HETATM   25  O   UNK     0     149.590 152.065 145.994  0.00  0.00    -0.387 OA
HETATM   26  H   UNK     0     149.277 152.331 145.114  0.00  0.00     0.210 HD
ENDBRANCH  23  25
BRANCH  23  27
HETATM   27  C   UNK     0     150.928 150.933 144.326  0.00  0.00     0.152 C 
BRANCH  27  28
HETATM   28  O   UNK     0     149.679 151.065 143.638  0.00  0.00    -0.393 OA
HETATM   29  H   UNK     0     149.393 151.989 143.730  0.00  0.00     0.210 HD
ENDBRANCH  27  28
BRANCH  27  30
HETATM   30  C   UNK     0     151.518 149.548 143.997  0.00  0.00     0.037 C 
BRANCH  30  31
HETATM   31  C   UNK     0     152.815 149.654 143.174  0.00  0.00     0.040 C 
BRANCH  31  32
HETATM   32  C   UNK     0     153.967 148.758 143.677  0.00  0.00     0.051 C 
HETATM   33  C   UNK     0     153.744 148.415 145.154  0.00  0.00     0.045 C 
HETATM   34  C   UNK     0     154.108 147.471 142.860  0.00  0.00     0.045 C 
BRANCH  32  35
HETATM   35  O   UNK     0     155.187 149.494 143.576  0.00  0.00    -0.391 OA
HETATM   36  H   UNK     0     155.926 148.865 143.528  0.00  0.00     0.210 HD
ENDBRANCH  32  35
ENDBRANCH  31  32
ENDBRANCH  30  31
ENDBRANCH  27  30
ENDBRANCH  23  27
ENDBRANCH   5  23
BRANCH  10  37
HETATM   37  O   UNK     0     151.045 152.792 151.280  0.00  0.00    -0.395 OA
HETATM   38  H   UNK     0     150.707 151.900 151.094  0.00  0.00     0.210 HD
ENDBRANCH  10  37
BRANCH  19  39
HETATM   39  O   UNK     0     156.366 155.352 152.951  0.00  0.00    -0.393 OA
HETATM   40  H   UNK     0     157.064 154.982 152.386  0.00  0.00     0.210 HD
ENDBRANCH  19  39
BRANCH  20  41
HETATM   41  O   UNK     0     153.945 156.662 153.800  0.00  0.00    -0.393 OA
HETATM   42  H   UNK     0     153.141 156.755 154.338  0.00  0.00     0.210 HD
ENDBRANCH  20  41
ENDBRANCH   1   3
TORSDOF 12
ENDMDL
MODEL 3
REMARK VINA RESULT:      -8.4      3.487      8.218
REMARK  12 active torsions:
REMARK  status: ('A' for Active; 'I' for Inactive)
REMARK    1  A    between atoms: O_1  and  C_10 
REMARK    2  A    between atoms: O_2  and  C_17 
REMARK    3  A    between atoms: O_3  and  C_20 
REMARK    4  A    between atoms: O_4  and  C_27 
REMARK    5  A    between atoms: O_6  and  C_29 
REMARK    6  A    between atoms: O_7  and  C_28 
REMARK    7  A    between atoms: O_8  and  C_33 
REMARK    8  A    between atoms: C_11  and  C_20 
REMARK    9  A    between atoms: C_20  and  C_28 
REMARK   10  A    between atoms: C_28  and  C_31 
REMARK   11  A    between atoms: C_31  and  C_32 
REMARK   12  A    between atoms: C_32  and  C_33 
ROOT
HETATM    1  O   UNK     0     150.913 156.804 150.029  0.00  0.00    -0.384 OA
HETATM    2  H   UNK     0     149.989 156.939 150.283  0.00  0.00     0.211 HD
ENDROOT
BRANCH   1   3
HETATM    3  C   UNK     0     151.030 155.789 149.005  0.00  0.00     0.090 C 
HETATM    4  C   UNK     0     151.360 154.424 149.661  0.00  0.00    -0.000 C 
HETATM    5  C   UNK     0     152.756 154.725 150.269  0.00  0.00     0.034 C 
HETATM    6  C   UNK     0     150.279 154.109 150.705  0.00  0.00     0.045 C 
HETATM    7  C   UNK     0     151.445 153.260 148.635  0.00  0.00     0.019 C 
HETATM    8  C   UNK     0     153.449 155.585 149.187  0.00  0.00     0.012 C 
HETATM    9  C   UNK     0     152.333 156.111 148.258  0.00  0.00     0.044 C 
HETATM   10  C   UNK     0     148.874 154.076 150.070  0.00  0.00     0.128 C 
HETATM   11  C   UNK     0     148.509 155.353 149.226  0.00  0.00     0.055 C 
HETATM   12  C   UNK     0     147.111 155.247 148.469  0.00  0.00    -0.021 C 
HETATM   13  C   UNK     0     149.685 155.749 148.309  0.00  0.00    -0.034 C 
HETATM   14  C   UNK     0     147.027 156.315 147.340  0.00  0.00     0.071 C 
HETATM   15  C   UNK     0     145.904 155.430 149.461  0.00  0.00     0.045 C 
HETATM   16  C   UNK     0     146.953 153.851 147.805  0.00  0.00     0.017 C 
HETATM   17  C   UNK     0     146.892 157.771 147.822  0.00  0.00     0.047 C 
HETATM   18  C   UNK     0     148.217 156.220 146.409  0.00  0.00     0.154 C 
HETATM   19  C   UNK     0     146.163 157.913 149.154  0.00  0.00     0.147 C 
HETATM   20  C   UNK     0     145.177 156.776 149.386  0.00  0.00     0.147 C 
HETATM   21  O   UNK     0     148.104 156.336 145.191  0.00  0.00    -0.293 OA
HETATM   22  C   UNK     0     149.556 156.080 147.016  0.00  0.00     0.057 C 
BRANCH   5  23
HETATM   23  C   UNK     0     153.588 153.522 150.691  0.00  0.00     0.084 C 
HETATM   24  C   UNK     0     152.758 152.610 151.609  0.00  0.00     0.049 C 
BRANCH  23  25
HETATM   25  O   UNK     0     153.918 152.765 149.519  0.00  0.00    -0.387 OA
HETATM   26  H   UNK     0     153.096 152.486 149.082  0.00  0.00     0.210 HD
ENDBRANCH  23  25
BRANCH  23  27
HETATM   27  C   UNK     0     154.912 153.940 151.386  0.00  0.00     0.152 C 
BRANCH  27  28
HETATM   28  O   UNK     0     155.559 152.780 151.922  0.00  0.00    -0.393 OA
HETATM   29  H   UNK     0     155.907 153.020 152.798  0.00  0.00     0.210 HD
ENDBRANCH  27  28
BRANCH  27  30
HETATM   30  C   UNK     0     154.735 154.964 152.523  0.00  0.00     0.037 C 
BRANCH  30  31
HETATM   31  C   UNK     0     155.562 156.241 152.284  0.00  0.00     0.040 C 
BRANCH  31  32
HETATM   32  C   UNK     0     154.752 157.552 152.357  0.00  0.00     0.051 C 
HETATM   33  C   UNK     0     154.902 158.322 151.040  0.00  0.00     0.045 C 
HETATM   34  C   UNK     0     153.269 157.310 152.652  0.00  0.00     0.045 C 
BRANCH  32  35
HETATM   35  O   UNK     0     155.295 158.360 153.402  0.00  0.00    -0.391 OA
HETATM   36  H   UNK     0     154.796 159.193 153.442  0.00  0.00     0.210 HD
ENDBRANCH  32  35
ENDBRANCH  31  32
ENDBRANCH  30  31
ENDBRANCH  27  30
ENDBRANCH  23  27
ENDBRANCH   5  23
BRANCH  10  37
HETATM   37  O   UNK     0     147.939 153.890 151.128  0.00  0.00    -0.395 OA
HETATM   38  H   UNK     0     147.676 154.770 151.448  0.00  0.00     0.210 HD
ENDBRANCH  10  37
BRANCH  19  39
HETATM   39  O   UNK     0     145.490 159.168 149.176  0.00  0.00    -0.393 OA
HETATM   40  H   UNK     0     146.158 159.873 149.158  0.00  0.00     0.210 HD
ENDBRANCH  19  39
BRANCH  20  41
HETATM   41  O   UNK     0     144.217 156.728 148.329  0.00  0.00    -0.393 OA
HETATM   42  H   UNK     0     144.519 157.332 147.629  0.00  0.00     0.210 HD
ENDBRANCH  20  41
ENDBRANCH   1   3
TORSDOF 12
ENDMDL
MODEL 4
REMARK VINA RESULT:      -8.1      4.345      7.332
REMARK  12 active torsions:
REMARK  status: ('A' for Active; 'I' for Inactive)
REMARK    1  A    between atoms: O_1  and  C_10 
REMARK    2  A    between atoms: O_2  and  C_17 
REMARK    3  A    between atoms: O_3  and  C_20 
REMARK    4  A    between atoms: O_4  and  C_27 
REMARK    5  A    between atoms: O_6  and  C_29 
REMARK    6  A    between atoms: O_7  and  C_28 
REMARK    7  A    between atoms: O_8  and  C_33 
REMARK    8  A    between atoms: C_11  and  C_20 
REMARK    9  A    between atoms: C_20  and  C_28 
REMARK   10  A    between atoms: C_28  and  C_31 
REMARK   11  A    between atoms: C_31  and  C_32 
REMARK   12  A    between atoms: C_32  and  C_33 
ROOT
HETATM    1  O   UNK     0     148.697 155.330 151.874  0.00  0.00    -0.384 OA
HETATM    2  H   UNK     0     149.345 154.871 152.428  0.00  0.00     0.211 HD
ENDROOT
BRANCH   1   3
HETATM    3  C   UNK     0     149.091 155.314 150.484  0.00  0.00     0.090 C 
HETATM    4  C   UNK     0     148.780 156.689 149.839  0.00  0.00    -0.000 C 
HETATM    5  C   UNK     0     147.233 156.717 149.949  0.00  0.00     0.034 C 
HETATM    6  C   UNK     0     149.484 157.782 150.656  0.00  0.00     0.045 C 
HETATM    7  C   UNK     0     149.228 156.780 148.354  0.00  0.00     0.019 C 
HETATM    8  C   UNK     0     146.815 155.265 149.621  0.00  0.00     0.012 C 
HETATM    9  C   UNK     0     148.080 154.394 149.783  0.00  0.00     0.044 C 
HETATM   10  C   UNK     0     151.007 157.547 150.717  0.00  0.00     0.128 C 
HETATM   11  C   UNK     0     151.428 156.108 151.193  0.00  0.00     0.055 C 
HETATM   12  C   UNK     0     152.996 155.839 151.124  0.00  0.00    -0.021 C 
HETATM   13  C   UNK     0     150.580 155.034 150.480  0.00  0.00    -0.034 C 
HETATM   14  C   UNK     0     153.284 154.310 151.179  0.00  0.00     0.071 C 
HETATM   15  C   UNK     0     153.757 156.562 152.297  0.00  0.00     0.045 C 
HETATM   16  C   UNK     0     153.586 156.379 149.791  0.00  0.00     0.017 C 
HETATM   17  C   UNK     0     153.018 153.640 152.538  0.00  0.00     0.047 C 
HETATM   18  C   UNK     0     152.505 153.570 150.111  0.00  0.00     0.154 C 
HETATM   19  C   UNK     0     153.227 154.566 153.732  0.00  0.00     0.147 C 
HETATM   20  C   UNK     0     154.245 155.658 153.433  0.00  0.00     0.147 C 
HETATM   21  O   UNK     0     153.000 152.653 149.460  0.00  0.00    -0.293 OA
HETATM   22  C   UNK     0     151.081 153.916 149.936  0.00  0.00     0.057 C 
BRANCH   5  23
HETATM   23  C   UNK     0     146.508 157.749 149.096  0.00  0.00     0.084 C 
HETATM   24  C   UNK     0     147.016 157.677 147.647  0.00  0.00     0.049 C 
BRANCH  23  25
HETATM   25  O   UNK     0     145.112 157.420 149.077  0.00  0.00    -0.387 OA
HETATM   26  H   UNK     0     144.646 157.989 149.711  0.00  0.00     0.210 HD
ENDBRANCH  23  25
BRANCH  23  27
HETATM   27  C   UNK     0     146.659 159.188 149.659  0.00  0.00     0.152 C 
BRANCH  27  28
HETATM   28  O   UNK     0     145.374 159.816 149.722  0.00  0.00    -0.393 OA
HETATM   29  H   UNK     0     145.046 159.717 150.632  0.00  0.00     0.210 HD
ENDBRANCH  27  28
BRANCH  27  30
HETATM   30  C   UNK     0     147.601 160.092 148.841  0.00  0.00     0.037 C 
BRANCH  30  31
HETATM   31  C   UNK     0     148.507 160.949 149.744  0.00  0.00     0.040 C 
BRANCH  31  32
HETATM   32  C   UNK     0     149.876 161.304 149.125  0.00  0.00     0.051 C 
HETATM   33  C   UNK     0     150.158 160.378 147.937  0.00  0.00     0.045 C 
HETATM   34  C   UNK     0     149.954 162.766 148.676  0.00  0.00     0.045 C 
BRANCH  32  35
HETATM   35  O   UNK     0     150.887 161.078 150.109  0.00  0.00    -0.391 OA
HETATM   36  H   UNK     0     150.932 161.854 150.691  0.00  0.00     0.210 HD
ENDBRANCH  32  35
ENDBRANCH  31  32
ENDBRANCH  30  31
ENDBRANCH  27  30
ENDBRANCH  23  27
ENDBRANCH   5  23
BRANCH  10  37
HETATM   37  O   UNK     0     151.551 158.540 151.582  0.00  0.00    -0.395 OA
HETATM   38  H   UNK     0     151.419 158.240 152.497  0.00  0.00     0.210 HD
ENDBRANCH  10  37
BRANCH  19  39
HETATM   39  O   UNK     0     153.647 153.787 154.848  0.00  0.00    -0.393 OA
HETATM   40  H   UNK     0     154.590 153.962 155.005  0.00  0.00     0.210 HD
ENDBRANCH  19  39
BRANCH  20  41
HETATM   41  O   UNK     0     155.498 155.081 153.062  0.00  0.00    -0.393 OA
HETATM   42  H   UNK     0     155.871 155.622 152.345  0.00  0.00     0.210 HD
ENDBRANCH  20  41
ENDBRANCH   1   3
TORSDOF 12
ENDMDL
MODEL 5
REMARK VINA RESULT:      -8.1      2.514      3.626
REMARK  12 active torsions:
REMARK  status: ('A' for Active; 'I' for Inactive)
REMARK    1  A    between atoms: O_1  and  C_10 
REMARK    2  A    between atoms: O_2  and  C_17 
REMARK    3  A    between atoms: O_3  and  C_20 
REMARK    4  A    between atoms: O_4  and  C_27 
REMARK    5  A    between atoms: O_6  and  C_29 
REMARK    6  A    between atoms: O_7  and  C_28 
REMARK    7  A    between atoms: O_8  and  C_33 
REMARK    8  A    between atoms: C_11  and  C_20 
REMARK    9  A    between atoms: C_20  and  C_28 
REMARK   10  A    between atoms: C_28  and  C_31 
REMARK   11  A    between atoms: C_31  and  C_32 
REMARK   12  A    between atoms: C_32  and  C_33 
ROOT
HETATM    1  O   UNK     0     153.463 155.515 147.398  0.00  0.00    -0.384 OA
HETATM    2  H   UNK     0     154.262 155.408 147.935  0.00  0.00     0.211 HD
ENDROOT
BRANCH   1   3
HETATM    3  C   UNK     0     152.282 155.127 148.136  0.00  0.00     0.090 C 
HETATM    4  C   UNK     0     152.319 153.602 148.414  0.00  0.00    -0.000 C 
HETATM    5  C   UNK     0     152.246 153.043 146.969  0.00  0.00     0.034 C 
HETATM    6  C   UNK     0     153.626 153.271 149.147  0.00  0.00     0.045 C 
HETATM    7  C   UNK     0     151.111 153.109 149.258  0.00  0.00     0.019 C 
HETATM    8  C   UNK     0     151.234 153.976 146.264  0.00  0.00     0.012 C 
HETATM    9  C   UNK     0     151.121 155.245 147.138  0.00  0.00     0.044 C 
HETATM   10  C   UNK     0     153.750 154.063 150.465  0.00  0.00     0.128 C 
HETATM   11  C   UNK     0     153.549 155.616 150.316  0.00  0.00     0.055 C 
HETATM   12  C   UNK     0     153.549 156.402 151.701  0.00  0.00    -0.021 C 
HETATM   13  C   UNK     0     152.324 155.919 149.427  0.00  0.00    -0.034 C 
HETATM   14  C   UNK     0     152.920 157.814 151.520  0.00  0.00     0.071 C 
HETATM   15  C   UNK     0     155.004 156.542 152.284  0.00  0.00     0.045 C 
HETATM   16  C   UNK     0     152.699 155.645 152.760  0.00  0.00     0.017 C 
HETATM   17  C   UNK     0     153.771 158.813 150.714  0.00  0.00     0.047 C 
HETATM   18  C   UNK     0     151.548 157.723 150.885  0.00  0.00     0.154 C 
HETATM   19  C   UNK     0     155.273 158.584 150.842  0.00  0.00     0.147 C 
HETATM   20  C   UNK     0     155.638 157.932 152.168  0.00  0.00     0.147 C 
HETATM   21  O   UNK     0     150.608 158.421 151.260  0.00  0.00    -0.293 OA
HETATM   22  C   UNK     0     151.386 156.830 149.721  0.00  0.00     0.057 C 
BRANCH   5  23
HETATM   23  C   UNK     0     151.891 151.570 146.826  0.00  0.00     0.084 C 
HETATM   24  C   UNK     0     153.015 150.703 147.416  0.00  0.00     0.049 C 
BRANCH  23  25
HETATM   25  O   UNK     0     150.706 151.313 147.592  0.00  0.00    -0.387 OA
HETATM   26  H   UNK     0     150.048 152.000 147.394  0.00  0.00     0.210 HD
ENDBRANCH  23  25
BRANCH  23  27
HETATM   27  C   UNK     0     151.609 151.173 145.351  0.00  0.00     0.152 C 
BRANCH  27  28
HETATM   28  O   UNK     0     150.833 149.971 145.317  0.00  0.00    -0.393 OA
HETATM   29  H   UNK     0     151.260 149.333 145.913  0.00  0.00     0.210 HD
ENDBRANCH  27  28
BRANCH  27  30
HETATM   30  C   UNK     0     152.876 150.956 144.502  0.00  0.00     0.037 C 
BRANCH  30  31
HETATM   31  C   UNK     0     152.771 149.698 143.620  0.00  0.00     0.040 C 
BRANCH  31  32
HETATM   32  C   UNK     0     153.994 148.760 143.694  0.00  0.00     0.051 C 
HETATM   33  C   UNK     0     154.028 148.067 145.060  0.00  0.00     0.045 C 
HETATM   34  C   UNK     0     153.998 147.712 142.578  0.00  0.00     0.045 C 
BRANCH  32  35
HETATM   35  O   UNK     0     155.177 149.552 143.574  0.00  0.00    -0.391 OA
HETATM   36  H   UNK     0     155.519 149.465 142.668  0.00  0.00     0.210 HD
ENDBRANCH  32  35
ENDBRANCH  31  32
ENDBRANCH  30  31
ENDBRANCH  27  30
ENDBRANCH  23  27
ENDBRANCH   5  23
BRANCH  10  37
HETATM   37  O   UNK     0     155.035 153.774 151.009  0.00  0.00    -0.395 OA
HETATM   38  H   UNK     0     155.134 154.292 151.826  0.00  0.00     0.210 HD
ENDBRANCH  10  37
BRANCH  19  39
HETATM   39  O   UNK     0     155.940 159.835 150.703  0.00  0.00    -0.393 OA
HETATM   40  H   UNK     0     156.736 159.698 150.163  0.00  0.00     0.210 HD
ENDBRANCH  19  39
BRANCH  20  41
HETATM   41  O   UNK     0     155.192 158.739 153.259  0.00  0.00    -0.393 OA
HETATM   42  H   UNK     0     155.858 158.675 153.964  0.00  0.00     0.210 HD
ENDBRANCH  20  41
ENDBRANCH   1   3
TORSDOF 12
ENDMDL
MODEL 6
REMARK VINA RESULT:      -8.0      4.406      6.230
REMARK  12 active torsions:
REMARK  status: ('A' for Active; 'I' for Inactive)
REMARK    1  A    between atoms: O_1  and  C_10 
REMARK    2  A    between atoms: O_2  and  C_17 
REMARK    3  A    between atoms: O_3  and  C_20 
REMARK    4  A    between atoms: O_4  and  C_27 
REMARK    5  A    between atoms: O_6  and  C_29 
REMARK    6  A    between atoms: O_7  and  C_28 
REMARK    7  A    between atoms: O_8  and  C_33 
REMARK    8  A    between atoms: C_11  and  C_20 
REMARK    9  A    between atoms: C_20  and  C_28 
REMARK   10  A    between atoms: C_28  and  C_31 
REMARK   11  A    between atoms: C_31  and  C_32 
REMARK   12  A    between atoms: C_32  and  C_33 
ROOT
HETATM    1  O   UNK     0     148.757 155.393 152.082  0.00  0.00    -0.384 OA
HETATM    2  H   UNK     0     148.094 156.098 152.094  0.00  0.00     0.211 HD
ENDROOT
BRANCH   1   3
HETATM    3  C   UNK     0     149.082 155.003 150.729  0.00  0.00     0.090 C 
HETATM    4  C   UNK     0     148.749 156.166 149.759  0.00  0.00    -0.000 C 
HETATM    5  C   UNK     0     147.210 156.253 149.928  0.00  0.00     0.034 C 
HETATM    6  C   UNK     0     149.501 157.421 150.224  0.00  0.00     0.045 C 
HETATM    7  C   UNK     0     149.124 155.853 148.283  0.00  0.00     0.019 C 
HETATM    8  C   UNK     0     146.765 154.775 150.015  0.00  0.00     0.012 C 
HETATM    9  C   UNK     0     148.031 153.952 150.344  0.00  0.00     0.044 C 
HETATM   10  C   UNK     0     151.024 157.180 150.274  0.00  0.00     0.128 C 
HETATM   11  C   UNK     0     151.457 155.909 151.095  0.00  0.00     0.055 C 
HETATM   12  C   UNK     0     153.018 155.600 151.027  0.00  0.00    -0.021 C 
HETATM   13  C   UNK     0     150.567 154.702 150.731  0.00  0.00    -0.034 C 
HETATM   14  C   UNK     0     153.297 154.134 151.470  0.00  0.00     0.071 C 
HETATM   15  C   UNK     0     153.841 156.591 151.930  0.00  0.00     0.045 C 
HETATM   16  C   UNK     0     153.545 155.757 149.573  0.00  0.00     0.017 C 
HETATM   17  C   UNK     0     153.094 153.852 152.970  0.00  0.00     0.047 C 
HETATM   18  C   UNK     0     152.460 153.155 150.674  0.00  0.00     0.154 C 
HETATM   19  C   UNK     0     153.369 155.055 153.865  0.00  0.00     0.147 C 
HETATM   20  C   UNK     0     154.378 156.009 153.242  0.00  0.00     0.147 C 
HETATM   21  O   UNK     0     152.916 152.089 150.266  0.00  0.00    -0.293 OA
HETATM   22  C   UNK     0     151.032 153.470 150.479  0.00  0.00     0.057 C 
BRANCH   5  23
HETATM   23  C   UNK     0     146.451 157.038 148.867  0.00  0.00     0.084 C 
HETATM   24  C   UNK     0     145.524 156.093 148.084  0.00  0.00     0.049 C 
BRANCH  23  25
HETATM   25  O   UNK     0     145.621 158.004 149.525  0.00  0.00    -0.387 OA
HETATM   26  H   UNK     0     145.639 157.836 150.481  0.00  0.00     0.210 HD
ENDBRANCH  23  25
BRANCH  23  27
HETATM   27  C   UNK     0     147.404 157.794 147.902  0.00  0.00     0.152 C 
BRANCH  27  28
HETATM   28  O   UNK     0     147.398 159.190 148.219  0.00  0.00    -0.393 OA
HETATM   29  H   UNK     0     147.178 159.273 149.163  0.00  0.00     0.210 HD
ENDBRANCH  27  28
BRANCH  27  30
HETATM   30  C   UNK     0     147.052 157.634 146.411  0.00  0.00     0.037 C 
BRANCH  30  31
HETATM   31  C   UNK     0     148.159 158.187 145.494  0.00  0.00     0.040 C 
BRANCH  31  32
HETATM   32  C   UNK     0     147.751 159.429 144.674  0.00  0.00     0.051 C 
HETATM   33  C   UNK     0     148.858 159.768 143.670  0.00  0.00     0.045 C 
HETATM   34  C   UNK     0     146.422 159.236 143.939  0.00  0.00     0.045 C 
BRANCH  32  35
HETATM   35  O   UNK     0     147.616 160.535 145.569  0.00  0.00    -0.391 OA
HETATM   36  H   UNK     0     146.673 160.666 145.761  0.00  0.00     0.210 HD
ENDBRANCH  32  35
ENDBRANCH  31  32
ENDBRANCH  30  31
ENDBRANCH  27  30
ENDBRANCH  23  27
ENDBRANCH   5  23
BRANCH  10  37
HETATM   37  O   UNK     0     151.617 158.355 150.820  0.00  0.00    -0.395 OA
HETATM   38  H   UNK     0     152.576 158.299 150.671  0.00  0.00     0.210 HD
ENDBRANCH  10  37
BRANCH  19  39
HETATM   39  O   UNK     0     153.838 154.590 155.127  0.00  0.00    -0.393 OA
HETATM   40  H   UNK     0     154.808 154.645 155.131  0.00  0.00     0.210 HD
ENDBRANCH  19  39
BRANCH  20  41
HETATM   41  O   UNK     0     155.608 155.329 152.979  0.00  0.00    -0.393 OA
HETATM   42  H   UNK     0     155.933 155.633 152.115  0.00  0.00     0.210 HD
ENDBRANCH  20  41
ENDBRANCH   1   3
TORSDOF 12
ENDMDL
MODEL 7
REMARK VINA RESULT:      -8.0      3.629      8.312
REMARK  12 active torsions:
REMARK  status: ('A' for Active; 'I' for Inactive)
REMARK    1  A    between atoms: O_1  and  C_10 
REMARK    2  A    between atoms: O_2  and  C_17 
REMARK    3  A    between atoms: O_3  and  C_20 
REMARK    4  A    between atoms: O_4  and  C_27 
REMARK    5  A    between atoms: O_6  and  C_29 
REMARK    6  A    between atoms: O_7  and  C_28 
REMARK    7  A    between atoms: O_8  and  C_33 
REMARK    8  A    between atoms: C_11  and  C_20 
REMARK    9  A    between atoms: C_20  and  C_28 
REMARK   10  A    between atoms: C_28  and  C_31 
REMARK   11  A    between atoms: C_31  and  C_32 
REMARK   12  A    between atoms: C_32  and  C_33 
ROOT
HETATM    1  O   UNK     0     149.436 158.430 150.561  0.00  0.00    -0.384 OA
HETATM    2  H   UNK     0     148.547 158.104 150.359  0.00  0.00     0.211 HD
ENDROOT
BRANCH   1   3
HETATM    3  C   UNK     0     150.401 157.949 149.598  0.00  0.00     0.090 C 
HETATM    4  C   UNK     0     151.446 157.052 150.311  0.00  0.00    -0.000 C 
HETATM    5  C   UNK     0     152.114 158.084 151.258  0.00  0.00     0.034 C 
HETATM    6  C   UNK     0     150.704 155.923 151.039  0.00  0.00     0.045 C 
HETATM    7  C   UNK     0     152.490 156.443 149.335  0.00  0.00     0.019 C 
HETATM    8  C   UNK     0     152.215 159.363 150.395  0.00  0.00     0.012 C 
HETATM    9  C   UNK     0     151.239 159.177 149.213  0.00  0.00     0.044 C 
HETATM   10  C   UNK     0     149.852 155.086 150.064  0.00  0.00     0.128 C 
HETATM   11  C   UNK     0     148.877 155.929 149.160  0.00  0.00     0.055 C 
HETATM   12  C   UNK     0     148.102 155.065 148.069  0.00  0.00    -0.021 C 
HETATM   13  C   UNK     0     149.607 157.157 148.578  0.00  0.00    -0.034 C 
HETATM   14  C   UNK     0     147.521 155.991 146.961  0.00  0.00     0.071 C 
HETATM   15  C   UNK     0     146.941 154.225 148.718  0.00  0.00     0.045 C 
HETATM   16  C   UNK     0     149.067 154.060 147.380  0.00  0.00     0.017 C 
HETATM   17  C   UNK     0     146.342 156.879 147.399  0.00  0.00     0.047 C 
HETATM   18  C   UNK     0     148.600 156.873 146.368  0.00  0.00     0.154 C 
HETATM   19  C   UNK     0     145.484 156.264 148.499  0.00  0.00     0.147 C 
HETATM   20  C   UNK     0     145.521 154.742 148.464  0.00  0.00     0.147 C 
HETATM   21  O   UNK     0     148.665 157.101 145.162  0.00  0.00    -0.293 OA
HETATM   22  C   UNK     0     149.528 157.545 147.297  0.00  0.00     0.057 C 
BRANCH   5  23
HETATM   23  C   UNK     0     153.445 157.679 151.875  0.00  0.00     0.084 C 
HETATM   24  C   UNK     0     154.466 157.382 150.764  0.00  0.00     0.049 C 
BRANCH  23  25
HETATM   25  O   UNK     0     153.948 158.786 152.634  0.00  0.00    -0.387 OA
HETATM   26  H   UNK     0     153.677 158.682 153.560  0.00  0.00     0.210 HD
ENDBRANCH  23  25
BRANCH  23  27
HETATM   27  C   UNK     0     153.304 156.462 152.829  0.00  0.00     0.152 C 
BRANCH  27  28
HETATM   28  O   UNK     0     153.717 156.836 154.148  0.00  0.00    -0.393 OA
HETATM   29  H   UNK     0     154.042 156.033 154.589  0.00  0.00     0.210 HD
ENDBRANCH  27  28
BRANCH  27  30
HETATM   30  C   UNK     0     154.116 155.224 152.400  0.00  0.00     0.037 C 
BRANCH  30  31
HETATM   31  C   UNK     0     153.408 153.910 152.776  0.00  0.00     0.040 C 
BRANCH  31  32
HETATM   32  C   UNK     0     153.440 152.828 151.677  0.00  0.00     0.051 C 
HETATM   33  C   UNK     0     152.014 152.344 151.392  0.00  0.00     0.045 C 
HETATM   34  C   UNK     0     154.089 153.326 150.383  0.00  0.00     0.045 C 
BRANCH  32  35
HETATM   35  O   UNK     0     154.193 151.715 152.162  0.00  0.00    -0.391 OA
HETATM   36  H   UNK     0     153.574 151.017 152.435  0.00  0.00     0.210 HD
ENDBRANCH  32  35
ENDBRANCH  31  32
ENDBRANCH  30  31
ENDBRANCH  27  30
ENDBRANCH  23  27
ENDBRANCH   5  23
BRANCH  10  37
HETATM   37  O   UNK     0     149.122 154.144 150.845  0.00  0.00    -0.395 OA
HETATM   38  H   UNK     0     148.210 154.124 150.509  0.00  0.00     0.210 HD
ENDBRANCH  10  37
BRANCH  19  39
HETATM   39  O   UNK     0     144.147 156.733 148.353  0.00  0.00    -0.393 OA
HETATM   40  H   UNK     0     143.760 156.311 147.568  0.00  0.00     0.210 HD
ENDBRANCH  19  39
BRANCH  20  41
HETATM   41  O   UNK     0     145.072 154.263 147.196  0.00  0.00    -0.393 OA
HETATM   42  H   UNK     0     145.809 153.781 146.785  0.00  0.00     0.210 HD
ENDBRANCH  20  41
ENDBRANCH   1   3
TORSDOF 12
ENDMDL
MODEL 8
REMARK VINA RESULT:      -7.9      4.168      6.589
REMARK  12 active torsions:
REMARK  status: ('A' for Active; 'I' for Inactive)
REMARK    1  A    between atoms: O_1  and  C_10 
REMARK    2  A    between atoms: O_2  and  C_17 
REMARK    3  A    between atoms: O_3  and  C_20 
REMARK    4  A    between atoms: O_4  and  C_27 
REMARK    5  A    between atoms: O_6  and  C_29 
REMARK    6  A    between atoms: O_7  and  C_28 
REMARK    7  A    between atoms: O_8  and  C_33 
REMARK    8  A    between atoms: C_11  and  C_20 
REMARK    9  A    between atoms: C_20  and  C_28 
REMARK   10  A    between atoms: C_28  and  C_31 
REMARK   11  A    between atoms: C_31  and  C_32 
REMARK   12  A    between atoms: C_32  and  C_33 
ROOT
HETATM    1  O   UNK     0     150.372 157.552 150.992  0.00  0.00    -0.384 OA
HETATM    2  H   UNK     0     151.332 157.654 150.918  0.00  0.00     0.211 HD
ENDROOT
BRANCH   1   3
HETATM    3  C   UNK     0     149.879 156.553 150.071  0.00  0.00     0.090 C 
HETATM    4  C   UNK     0     149.918 157.114 148.626  0.00  0.00    -0.000 C 
HETATM    5  C   UNK     0     148.898 158.276 148.739  0.00  0.00     0.034 C 
HETATM    6  C   UNK     0     151.351 157.568 148.317  0.00  0.00     0.045 C 
HETATM    7  C   UNK     0     149.459 156.080 147.560  0.00  0.00     0.019 C 
HETATM    8  C   UNK     0     147.775 157.695 149.629  0.00  0.00     0.012 C 
HETATM    9  C   UNK     0     148.370 156.459 150.340  0.00  0.00     0.044 C 
HETATM   10  C   UNK     0     152.357 156.409 148.472  0.00  0.00     0.128 C 
HETATM   11  C   UNK     0     152.275 155.653 149.850  0.00  0.00     0.055 C 
HETATM   12  C   UNK     0     153.225 154.379 149.944  0.00  0.00    -0.021 C 
HETATM   13  C   UNK     0     150.805 155.362 150.219  0.00  0.00    -0.034 C 
HETATM   14  C   UNK     0     152.778 153.457 151.115  0.00  0.00     0.071 C 
HETATM   15  C   UNK     0     154.729 154.796 150.144  0.00  0.00     0.045 C 
HETATM   16  C   UNK     0     153.150 153.542 148.636  0.00  0.00     0.017 C 
HETATM   17  C   UNK     0     153.038 154.015 152.526  0.00  0.00     0.047 C 
HETATM   18  C   UNK     0     151.311 153.099 150.998  0.00  0.00     0.154 C 
HETATM   19  C   UNK     0     154.254 154.931 152.610  0.00  0.00     0.147 C 
HETATM   20  C   UNK     0     155.296 154.592 151.553  0.00  0.00     0.147 C 
HETATM   21  O   UNK     0     150.894 151.968 151.236  0.00  0.00    -0.293 OA
HETATM   22  C   UNK     0     150.362 154.184 150.679  0.00  0.00     0.057 C 
BRANCH   5  23
HETATM   23  C   UNK     0     148.376 158.854 147.431  0.00  0.00     0.084 C 
HETATM   24  C   UNK     0     147.324 157.910 146.827  0.00  0.00     0.049 C 
BRANCH  23  25
HETATM   25  O   UNK     0     147.722 160.099 147.715  0.00  0.00    -0.387 OA
HETATM   26  H   UNK     0     148.377 160.815 147.672  0.00  0.00     0.210 HD
ENDBRANCH  23  25
BRANCH  23  27
HETATM   27  C   UNK     0     149.516 159.128 146.414  0.00  0.00     0.152 C 
BRANCH  27  28
HETATM   28  O   UNK     0     150.089 160.415 146.669  0.00  0.00    -0.393 OA
HETATM   29  H   UNK     0     149.679 160.760 147.480  0.00  0.00     0.210 HD
ENDBRANCH  27  28
BRANCH  27  30
HETATM   30  C   UNK     0     149.074 159.078 144.939  0.00  0.00     0.037 C 
BRANCH  30  31
HETATM   31  C   UNK     0     150.142 158.432 144.037  0.00  0.00     0.040 C 
BRANCH  31  32
HETATM   32  C   UNK     0     150.819 159.405 143.048  0.00  0.00     0.051 C 
HETATM   33  C   UNK     0     149.902 160.607 142.802  0.00  0.00     0.045 C 
HETATM   34  C   UNK     0     152.186 159.885 143.542  0.00  0.00     0.045 C 
BRANCH  32  35
HETATM   35  O   UNK     0     151.000 158.728 141.803  0.00  0.00    -0.391 OA
HETATM   36  H   UNK     0     151.448 157.882 141.972  0.00  0.00     0.210 HD
ENDBRANCH  32  35
ENDBRANCH  31  32
ENDBRANCH  30  31
ENDBRANCH  27  30
ENDBRANCH  23  27
ENDBRANCH   5  23
BRANCH  10  37
HETATM   37  O   UNK     0     153.659 156.953 148.276  0.00  0.00    -0.395 OA
HETATM   38  H   UNK     0     154.178 156.777 149.079  0.00  0.00     0.210 HD
ENDBRANCH  10  37
BRANCH  19  39
HETATM   39  O   UNK     0     154.817 154.827 153.915  0.00  0.00    -0.393 OA
HETATM   40  H   UNK     0     155.782 154.756 153.825  0.00  0.00     0.210 HD
ENDBRANCH  19  39
BRANCH  20  41
HETATM   41  O   UNK     0     155.721 153.235 151.691  0.00  0.00    -0.393 OA
HETATM   42  H   UNK     0     155.582 152.976 152.618  0.00  0.00     0.210 HD
ENDBRANCH  20  41
ENDBRANCH   1   3
TORSDOF 12
ENDMDL
MODEL 9
REMARK VINA RESULT:      -7.9      5.660      7.292
REMARK  12 active torsions:
REMARK  status: ('A' for Active; 'I' for Inactive)
REMARK    1  A    between atoms: O_1  and  C_10 
REMARK    2  A    between atoms: O_2  and  C_17 
REMARK    3  A    between atoms: O_3  and  C_20 
REMARK    4  A    between atoms: O_4  and  C_27 
REMARK    5  A    between atoms: O_6  and  C_29 
REMARK    6  A    between atoms: O_7  and  C_28 
REMARK    7  A    between atoms: O_8  and  C_33 
REMARK    8  A    between atoms: C_11  and  C_20 
REMARK    9  A    between atoms: C_20  and  C_28 
REMARK   10  A    between atoms: C_28  and  C_31 
REMARK   11  A    between atoms: C_31  and  C_32 
REMARK   12  A    between atoms: C_32  and  C_33 
ROOT
HETATM    1  O   UNK     0     155.177 157.391 147.536  0.00  0.00    -0.384 OA
HETATM    2  H   UNK     0     154.680 157.276 146.714  0.00  0.00     0.211 HD
ENDROOT
BRANCH   1   3
HETATM    3  C   UNK     0     154.768 158.592 148.230  0.00  0.00     0.090 C 
HETATM    4  C   UNK     0     153.453 159.129 147.609  0.00  0.00    -0.000 C 
HETATM    5  C   UNK     0     153.933 159.484 146.178  0.00  0.00     0.034 C 
HETATM    6  C   UNK     0     152.399 158.014 147.657  0.00  0.00     0.045 C 
HETATM    7  C   UNK     0     152.908 160.389 148.337  0.00  0.00     0.019 C 
HETATM    8  C   UNK     0     155.336 160.095 146.401  0.00  0.00     0.012 C 
HETATM    9  C   UNK     0     155.782 159.668 147.817  0.00  0.00     0.044 C 
HETATM   10  C   UNK     0     152.155 157.528 149.100  0.00  0.00     0.128 C 
HETATM   11  C   UNK     0     153.459 157.125 149.883  0.00  0.00     0.055 C 
HETATM   12  C   UNK     0     153.205 156.753 151.411  0.00  0.00    -0.021 C 
HETATM   13  C   UNK     0     154.563 158.183 149.675  0.00  0.00    -0.034 C 
HETATM   14  C   UNK     0     154.541 156.800 152.207  0.00  0.00     0.071 C 
HETATM   15  C   UNK     0     152.552 155.329 151.556  0.00  0.00     0.045 C 
HETATM   16  C   UNK     0     152.233 157.773 152.068  0.00  0.00     0.017 C 
HETATM   17  C   UNK     0     155.539 155.673 151.883  0.00  0.00     0.047 C 
HETATM   18  C   UNK     0     155.238 158.133 152.025  0.00  0.00     0.154 C 
HETATM   19  C   UNK     0     154.875 154.370 151.452  0.00  0.00     0.147 C 
HETATM   20  C   UNK     0     153.483 154.217 152.050  0.00  0.00     0.147 C 
HETATM   21  O   UNK     0     155.791 158.712 152.958  0.00  0.00    -0.293 OA
HETATM   22  C   UNK     0     155.324 158.684 150.659  0.00  0.00     0.057 C 
BRANCH   5  23
HETATM   23  C   UNK     0     153.019 160.385 145.357  0.00  0.00     0.084 C 
HETATM   24  C   UNK     0     153.166 161.842 145.825  0.00  0.00     0.049 C 
BRANCH  23  25
HETATM   25  O   UNK     0     153.441 160.330 143.988  0.00  0.00    -0.387 OA
HETATM   26  H   UNK     0     152.730 159.937 143.455  0.00  0.00     0.210 HD
ENDBRANCH  23  25
BRANCH  23  27
HETATM   27  C   UNK     0     151.535 159.934 145.425  0.00  0.00     0.152 C 
BRANCH  27  28
HETATM   28  O   UNK     0     151.225 159.129 144.283  0.00  0.00    -0.393 OA
HETATM   29  H   UNK     0     152.067 158.888 143.860  0.00  0.00     0.210 HD
ENDBRANCH  27  28
BRANCH  27  30
HETATM   30  C   UNK     0     150.523 161.094 145.489  0.00  0.00     0.037 C 
BRANCH  30  31
HETATM   31  C   UNK     0     149.161 160.643 146.047  0.00  0.00     0.040 C 
BRANCH  31  32
HETATM   32  C   UNK     0     148.882 161.094 147.496  0.00  0.00     0.051 C 
HETATM   33  C   UNK     0     149.218 159.954 148.463  0.00  0.00     0.045 C 
HETATM   34  C   UNK     0     149.667 162.351 147.881  0.00  0.00     0.045 C 
BRANCH  32  35
HETATM   35  O   UNK     0     147.487 161.377 147.619  0.00  0.00    -0.391 OA
HETATM   36  H   UNK     0     147.060 161.212 146.762  0.00  0.00     0.210 HD
ENDBRANCH  32  35
ENDBRANCH  31  32
ENDBRANCH  30  31
ENDBRANCH  27  30
ENDBRANCH  23  27
ENDBRANCH   5  23
BRANCH  10  37
HETATM   37  O   UNK     0     151.254 156.427 149.027  0.00  0.00    -0.395 OA
HETATM   38  H   UNK     0     150.951 156.232 149.930  0.00  0.00     0.210 HD
ENDBRANCH  10  37
BRANCH  19  39
HETATM   39  O   UNK     0     155.707 153.281 151.844  0.00  0.00    -0.393 OA
HETATM   40  H   UNK     0     156.449 153.636 152.362  0.00  0.00     0.210 HD
ENDBRANCH  19  39
BRANCH  20  41
HETATM   41  O   UNK     0     153.546 154.262 153.476  0.00  0.00    -0.393 OA
HETATM   42  H   UNK     0     153.822 153.383 153.787  0.00  0.00     0.210 HD
ENDBRANCH  20  41
ENDBRANCH   1   3
TORSDOF 12
ENDMDL
MODEL 10
REMARK VINA RESULT:      -7.9      4.396      8.135
REMARK  12 active torsions:
REMARK  status: ('A' for Active; 'I' for Inactive)
REMARK    1  A    between atoms: O_1  and  C_10 
REMARK    2  A    between atoms: O_2  and  C_17 
REMARK    3  A    between atoms: O_3  and  C_20 
REMARK    4  A    between atoms: O_4  and  C_27 
REMARK    5  A    between atoms: O_6  and  C_29 
REMARK    6  A    between atoms: O_7  and  C_28 
REMARK    7  A    between atoms: O_8  and  C_33 
REMARK    8  A    between atoms: C_11  and  C_20 
REMARK    9  A    between atoms: C_20  and  C_28 
REMARK   10  A    between atoms: C_28  and  C_31 
REMARK   11  A    between atoms: C_31  and  C_32 
REMARK   12  A    between atoms: C_32  and  C_33 
ROOT
HETATM    1  O   UNK     0     153.247 160.439 150.356  0.00  0.00    -0.384 OA
HETATM    2  H   UNK     0     152.467 160.297 150.913  0.00  0.00     0.211 HD
ENDROOT
BRANCH   1   3
HETATM    3  C   UNK     0     153.456 159.327 149.456  0.00  0.00     0.090 C 
HETATM    4  C   UNK     0     153.268 157.994 150.224  0.00  0.00    -0.000 C 
HETATM    5  C   UNK     0     154.437 158.078 151.241  0.00  0.00     0.034 C 
HETATM    6  C   UNK     0     151.876 157.995 150.871  0.00  0.00     0.045 C 
HETATM    7  C   UNK     0     153.417 156.742 149.315  0.00  0.00     0.019 C 
HETATM    8  C   UNK     0     155.598 158.681 150.416  0.00  0.00     0.012 C 
HETATM    9  C   UNK     0     154.963 159.319 149.161  0.00  0.00     0.044 C 
HETATM   10  C   UNK     0     150.764 158.171 149.817  0.00  0.00     0.128 C 
HETATM   11  C   UNK     0     150.958 159.408 148.863  0.00  0.00     0.055 C 
HETATM   12  C   UNK     0     149.875 159.500 147.699  0.00  0.00    -0.021 C 
HETATM   13  C   UNK     0     152.417 159.479 148.364  0.00  0.00    -0.034 C 
HETATM   14  C   UNK     0     150.374 160.450 146.572  0.00  0.00     0.071 C 
HETATM   15  C   UNK     0     148.488 160.006 148.242  0.00  0.00     0.045 C 
HETATM   16  C   UNK     0     149.637 158.103 147.061  0.00  0.00     0.017 C 
HETATM   17  C   UNK     0     150.410 161.944 146.941  0.00  0.00     0.047 C 
HETATM   18  C   UNK     0     151.746 160.038 146.079  0.00  0.00     0.154 C 
HETATM   19  C   UNK     0     149.353 162.351 147.962  0.00  0.00     0.147 C 
HETATM   20  C   UNK     0     148.125 161.454 147.896  0.00  0.00     0.147 C 
HETATM   21  O   UNK     0     152.043 160.056 144.887  0.00  0.00    -0.293 OA
HETATM   22  C   UNK     0     152.768 159.703 147.090  0.00  0.00     0.057 C 
BRANCH   5  23
HETATM   23  C   UNK     0     154.821 156.784 151.945  0.00  0.00     0.084 C 
HETATM   24  C   UNK     0     155.381 155.780 150.923  0.00  0.00     0.049 C 
BRANCH  23  25
HETATM   25  O   UNK     0     155.868 157.071 152.881  0.00  0.00    -0.387 OA
HETATM   26  H   UNK     0     156.563 156.398 152.794  0.00  0.00     0.210 HD
ENDBRANCH  23  25
BRANCH  23  27
HETATM   27  C   UNK     0     153.630 156.164 152.726  0.00  0.00     0.152 C 
BRANCH  27  28
HETATM   28  O   UNK     0     153.806 156.393 154.128  0.00  0.00    -0.393 OA
HETATM   29  H   UNK     0     153.214 155.781 154.598  0.00  0.00     0.210 HD
ENDBRANCH  27  28
BRANCH  27  30
HETATM   30  C   UNK     0     153.445 154.651 152.501  0.00  0.00     0.037 C 
BRANCH  30  31
HETATM   31  C   UNK     0     152.138 154.335 151.752  0.00  0.00     0.040 C 
BRANCH  31  32
HETATM   32  C   UNK     0     152.099 152.940 151.092  0.00  0.00     0.051 C 
HETATM   33  C   UNK     0     152.297 153.082 149.579  0.00  0.00     0.045 C 
HETATM   34  C   UNK     0     153.152 151.990 151.668  0.00  0.00     0.045 C 
BRANCH  32  35
HETATM   35  O   UNK     0     150.807 152.372 151.315  0.00  0.00    -0.391 OA
HETATM   36  H   UNK     0     150.859 151.771 152.076  0.00  0.00     0.210 HD
ENDBRANCH  32  35
ENDBRANCH  31  32
ENDBRANCH  30  31
ENDBRANCH  27  30
ENDBRANCH  23  27
ENDBRANCH   5  23
BRANCH  10  37
HETATM   37  O   UNK     0     149.529 158.272 150.522  0.00  0.00    -0.395 OA
HETATM   38  H   UNK     0     149.307 157.386 150.857  0.00  0.00     0.210 HD
ENDBRANCH  10  37
BRANCH  19  39
HETATM   39  O   UNK     0     148.989 163.709 147.728  0.00  0.00    -0.393 OA
HETATM   40  H   UNK     0     149.739 164.156 147.300  0.00  0.00     0.210 HD
ENDBRANCH  19  39
BRANCH  20  41
HETATM   41  O   UNK     0     147.553 161.489 146.587  0.00  0.00    -0.393 OA
HETATM   42  H   UNK     0     146.586 161.502 146.689  0.00  0.00     0.210 HD
ENDBRANCH  20  41
ENDBRANCH   1   3
TORSDOF 12
ENDMDL
