MODEL 1
REMARK VINA RESULT:      -5.2      0.000      0.000
REMARK  Name = 445858
REMARK                            x       y       z     vdW  Elec       q    Type
REMARK                         _______ _______ _______ _____ _____    ______ ____
ROOT
ATOM      3  C   LIG    1       30.358  25.819  14.334  0.00  0.00    +0.162 A 
ATOM      4  C   LIG    1       30.699  24.712  13.555  0.00  0.00    +0.158 A 
ATOM      5  C   LIG    1       29.872  24.319  12.503  0.00  0.00    +0.050 A 
ATOM      6  C   LIG    1       28.704  25.032  12.229  0.00  0.00    +0.012 A 
ATOM      7  C   LIG    1       28.364  26.137  13.007  0.00  0.00    -0.021 A 
ATOM     16  C   LIG    1       29.190  26.531  14.060  0.00  0.00    +0.057 A 
ENDROOT
BRANCH   3   1
ATOM      1  O   LIG    1       31.157  26.212  15.365  0.00  0.00    -0.491 OA
ATOM      2  C   LIG    1       30.513  26.539  16.595  0.00  0.00    +0.277 C 
ENDBRANCH   3   1
BRANCH   7   8
ATOM      8  C   LIG    1       27.147  26.880  12.721  0.00  0.00    +0.015 C 
ATOM      9  C   LIG    1       25.944  26.665  13.301  0.00  0.00    +0.092 C 
BRANCH   9  10
ATOM     10  C   LIG    1       24.784  27.498  12.929  0.00  0.00    +0.330 C 
ATOM     11  O   LIG    1       24.536  27.943  11.821  0.00  0.00    -0.246 OA
BRANCH  10  12
ATOM     12  O   LIG    1       24.020  27.694  14.030  0.00  0.00    -0.478 OA
ATOM     13  H   LIG    1       23.627  28.593  14.048  0.00  0.00    +0.295 HD
ENDBRANCH  10  12
ENDBRANCH   9  10
ENDBRANCH   7   8
BRANCH   4  14
ATOM     14  O   LIG    1       31.836  24.008  13.813  0.00  0.00    -0.503 OA
ATOM     15  H   LIG    1       32.597  24.613  13.781  0.00  0.00    +0.292 HD
ENDBRANCH   4  14
TORSDOF 5
ENDMDL
MODEL 2
REMARK VINA RESULT:      -5.0      3.154      4.853
REMARK  Name = 445858
REMARK                            x       y       z     vdW  Elec       q    Type
REMARK                         _______ _______ _______ _____ _____    ______ ____
ROOT
ATOM      3  C   LIG    1       28.584  25.620  12.960  0.00  0.00    +0.162 A 
ATOM      4  C   LIG    1       29.053  24.621  13.814  0.00  0.00    +0.158 A 
ATOM      5  C   LIG    1       29.970  24.935  14.816  0.00  0.00    +0.050 A 
ATOM      6  C   LIG    1       30.419  26.248  14.965  0.00  0.00    +0.012 A 
ATOM      7  C   LIG    1       29.951  27.246  14.111  0.00  0.00    -0.021 A 
ATOM     16  C   LIG    1       29.033  26.933  13.109  0.00  0.00    +0.057 A 
ENDROOT
BRANCH   3   1
ATOM      1  O   LIG    1       27.689  25.325  11.976  0.00  0.00    -0.491 OA
ATOM      2  C   LIG    1       26.756  26.345  11.622  0.00  0.00    +0.277 C 
ENDBRANCH   3   1
BRANCH   7   8
ATOM      8  C   LIG    1       30.418  28.614  14.267  0.00  0.00    +0.015 C 
ATOM      9  C   LIG    1       30.338  29.580  13.325  0.00  0.00    +0.092 C 
BRANCH   9  10
ATOM     10  C   LIG    1       30.841  30.938  13.612  0.00  0.00    +0.330 C 
ATOM     11  O   LIG    1       30.475  31.671  14.515  0.00  0.00    -0.246 OA
BRANCH  10  12
ATOM     12  O   LIG    1       31.793  31.249  12.700  0.00  0.00    -0.478 OA
ATOM     13  H   LIG    1       31.489  31.087  11.782  0.00  0.00    +0.295 HD
ENDBRANCH  10  12
ENDBRANCH   9  10
ENDBRANCH   7   8
BRANCH   4  14
ATOM     14  O   LIG    1       28.623  23.336  13.677  0.00  0.00    -0.503 OA
ATOM     15  H   LIG    1       27.657  23.336  13.556  0.00  0.00    +0.292 HD
ENDBRANCH   4  14
TORSDOF 5
ENDMDL
MODEL 3
REMARK VINA RESULT:      -5.0      2.775      5.859
REMARK  Name = 445858
REMARK                            x       y       z     vdW  Elec       q    Type
REMARK                         _______ _______ _______ _____ _____    ______ ____
ROOT
ATOM      3  C   LIG    1       29.694  25.071  13.651  0.00  0.00    +0.162 A 
ATOM      4  C   LIG    1       29.135  26.252  13.161  0.00  0.00    +0.158 A 
ATOM      5  C   LIG    1       29.198  27.420  13.920  0.00  0.00    +0.050 A 
ATOM      6  C   LIG    1       29.820  27.408  15.169  0.00  0.00    +0.012 A 
ATOM      7  C   LIG    1       30.378  26.228  15.658  0.00  0.00    -0.021 A 
ATOM     16  C   LIG    1       30.316  25.059  14.900  0.00  0.00    +0.057 A 
ENDROOT
BRANCH   3   1
ATOM      1  O   LIG    1       29.638  23.923  12.919  0.00  0.00    -0.491 OA
ATOM      2  C   LIG    1       30.712  23.680  12.013  0.00  0.00    +0.277 C 
ENDBRANCH   3   1
BRANCH   7   8
ATOM      8  C   LIG    1       31.027  26.216  16.960  0.00  0.00    +0.015 C 
ATOM      9  C   LIG    1       30.416  26.460  18.141  0.00  0.00    +0.092 C 
BRANCH   9  10
ATOM     10  C   LIG    1       31.187  26.407  19.398  0.00  0.00    +0.330 C 
ATOM     11  O   LIG    1       32.005  25.558  19.712  0.00  0.00    -0.246 OA
BRANCH  10  12
ATOM     12  O   LIG    1       30.841  27.468  20.165  0.00  0.00    -0.478 OA
ATOM     13  H   LIG    1       30.442  28.190  19.633  0.00  0.00    +0.295 HD
ENDBRANCH  10  12
ENDBRANCH   9  10
ENDBRANCH   7   8
BRANCH   4  14
ATOM     14  O   LIG    1       28.524  26.275  11.944  0.00  0.00    -0.503 OA
ATOM     15  H   LIG    1       27.561  26.325  12.073  0.00  0.00    +0.292 HD
ENDBRANCH   4  14
TORSDOF 5
ENDMDL
MODEL 4
REMARK VINA RESULT:      -4.8      2.282      5.526
REMARK  Name = 445858
REMARK                            x       y       z     vdW  Elec       q    Type
REMARK                         _______ _______ _______ _____ _____    ______ ____
ROOT
ATOM      3  C   LIG    1       28.700  26.535  13.436  0.00  0.00    +0.162 A 
ATOM      4  C   LIG    1       29.155  25.512  12.604  0.00  0.00    +0.158 A 
ATOM      5  C   LIG    1       30.220  24.707  13.007  0.00  0.00    +0.050 A 
ATOM      6  C   LIG    1       30.830  24.924  14.242  0.00  0.00    +0.012 A 
ATOM      7  C   LIG    1       30.375  25.946  15.074  0.00  0.00    -0.021 A 
ATOM     16  C   LIG    1       29.310  26.752  14.672  0.00  0.00    +0.057 A 
ENDROOT
BRANCH   3   1
ATOM      1  O   LIG    1       27.661  27.329  13.053  0.00  0.00    -0.491 OA
ATOM      2  C   LIG    1       26.345  26.833  13.292  0.00  0.00    +0.277 C 
ENDBRANCH   3   1
BRANCH   7   8
ATOM      8  C   LIG    1       31.011  26.172  16.363  0.00  0.00    +0.015 C 
ATOM      9  C   LIG    1       30.363  26.311  17.541  0.00  0.00    +0.092 C 
BRANCH   9  10
ATOM     10  C   LIG    1       31.126  26.527  18.786  0.00  0.00    +0.330 C 
ATOM     11  O   LIG    1       31.012  27.469  19.552  0.00  0.00    -0.246 OA
BRANCH  10  12
ATOM     12  O   LIG    1       31.989  25.497  18.950  0.00  0.00    -0.478 OA
ATOM     13  H   LIG    1       31.535  24.683  19.256  0.00  0.00    +0.295 HD
ENDBRANCH  10  12
ENDBRANCH   9  10
ENDBRANCH   7   8
BRANCH   4  14
ATOM     14  O   LIG    1       28.568  25.291  11.394  0.00  0.00    -0.503 OA
ATOM     15  H   LIG    1       28.100  26.098  11.117  0.00  0.00    +0.292 HD
ENDBRANCH   4  14
TORSDOF 5
ENDMDL
MODEL 5
REMARK VINA RESULT:      -4.8      3.124      4.260
REMARK  Name = 445858
REMARK                            x       y       z     vdW  Elec       q    Type
REMARK                         _______ _______ _______ _____ _____    ______ ____
ROOT
ATOM      3  C   LIG    1       29.662  26.118  13.729  0.00  0.00    +0.162 A 
ATOM      4  C   LIG    1       30.490  25.457  14.636  0.00  0.00    +0.158 A 
ATOM      5  C   LIG    1       30.708  25.998  15.903  0.00  0.00    +0.050 A 
ATOM      6  C   LIG    1       30.098  27.200  16.263  0.00  0.00    +0.012 A 
ATOM      7  C   LIG    1       29.271  27.860  15.356  0.00  0.00    -0.021 A 
ATOM     16  C   LIG    1       29.052  27.320  14.089  0.00  0.00    +0.057 A 
ENDROOT
BRANCH   3   1
ATOM      1  O   LIG    1       29.442  25.599  12.488  0.00  0.00    -0.491 OA
ATOM      2  C   LIG    1       28.084  25.404  12.099  0.00  0.00    +0.277 C 
ENDBRANCH   3   1
BRANCH   7   8
ATOM      8  C   LIG    1       28.635  29.112  15.731  0.00  0.00    +0.015 C 
ATOM      9  C   LIG    1       28.051  29.367  16.924  0.00  0.00    +0.092 C 
BRANCH   9  10
ATOM     10  C   LIG    1       27.446  30.688  17.186  0.00  0.00    +0.330 C 
ATOM     11  O   LIG    1       26.967  31.069  18.241  0.00  0.00    -0.246 OA
BRANCH  10  12
ATOM     12  O   LIG    1       27.507  31.426  16.053  0.00  0.00    -0.478 OA
ATOM     13  H   LIG    1       27.651  32.377  16.242  0.00  0.00    +0.295 HD
ENDBRANCH  10  12
ENDBRANCH   9  10
ENDBRANCH   7   8
BRANCH   4  14
ATOM     14  O   LIG    1       31.092  24.283  14.296  0.00  0.00    -0.503 OA
ATOM     15  H   LIG    1       31.441  23.861  15.101  0.00  0.00    +0.292 HD
ENDBRANCH   4  14
TORSDOF 5
ENDMDL
MODEL 6
REMARK VINA RESULT:      -4.7      3.165      3.568
REMARK  Name = 445858
REMARK                            x       y       z     vdW  Elec       q    Type
REMARK                         _______ _______ _______ _____ _____    ______ ____
ROOT
ATOM      3  C   LIG    1       30.432  26.187  15.683  0.00  0.00    +0.162 A 
ATOM      4  C   LIG    1       30.376  25.448  14.500  0.00  0.00    +0.158 A 
ATOM      5  C   LIG    1       29.758  25.986  13.372  0.00  0.00    +0.050 A 
ATOM      6  C   LIG    1       29.197  27.262  13.424  0.00  0.00    +0.012 A 
ATOM      7  C   LIG    1       29.253  28.000  14.606  0.00  0.00    -0.021 A 
ATOM     16  C   LIG    1       29.871  27.463  15.735  0.00  0.00    +0.057 A 
ENDROOT
BRANCH   3   1
ATOM      1  O   LIG    1       31.032  25.672  16.792  0.00  0.00    -0.491 OA
ATOM      2  C   LIG    1       30.830  26.369  18.020  0.00  0.00    +0.277 C 
ENDBRANCH   3   1
BRANCH   7   8
ATOM      8  C   LIG    1       28.669  29.330  14.661  0.00  0.00    +0.015 C 
ATOM      9  C   LIG    1       29.264  30.464  14.227  0.00  0.00    +0.092 C 
BRANCH   9  10
ATOM     10  C   LIG    1       28.558  31.757  14.330  0.00  0.00    +0.330 C 
ATOM     11  O   LIG    1       28.611  32.677  13.531  0.00  0.00    -0.246 OA
BRANCH  10  12
ATOM     12  O   LIG    1       27.828  31.763  15.469  0.00  0.00    -0.478 OA
ATOM     13  H   LIG    1       27.651  32.674  15.787  0.00  0.00    +0.295 HD
ENDBRANCH  10  12
ENDBRANCH   9  10
ENDBRANCH   7   8
BRANCH   4  14
ATOM     14  O   LIG    1       30.919  24.201  14.437  0.00  0.00    -0.503 OA
ATOM     15  H   LIG    1       31.715  24.173  14.996  0.00  0.00    +0.292 HD
ENDBRANCH   4  14
TORSDOF 5
ENDMDL
MODEL 7
REMARK VINA RESULT:      -4.7      3.177      5.107
REMARK  Name = 445858
REMARK                            x       y       z     vdW  Elec       q    Type
REMARK                         _______ _______ _______ _____ _____    ______ ____
ROOT
ATOM      3  C   LIG    1       30.761  26.966  18.129  0.00  0.00    +0.162 A 
ATOM      4  C   LIG    1       30.526  28.324  17.915  0.00  0.00    +0.158 A 
ATOM      5  C   LIG    1       30.232  28.788  16.633  0.00  0.00    +0.050 A 
ATOM      6  C   LIG    1       30.173  27.893  15.564  0.00  0.00    +0.012 A 
ATOM      7  C   LIG    1       30.409  26.536  15.778  0.00  0.00    -0.021 A 
ATOM     16  C   LIG    1       30.703  26.071  17.060  0.00  0.00    +0.057 A 
ENDROOT
BRANCH   3   1
ATOM      1  O   LIG    1       31.051  26.501  19.377  0.00  0.00    -0.491 OA
ATOM      2  C   LIG    1       32.291  25.817  19.541  0.00  0.00    +0.277 C 
ENDBRANCH   3   1
BRANCH   7   8
ATOM      8  C   LIG    1       30.347  25.603  14.664  0.00  0.00    +0.015 C 
ATOM      9  C   LIG    1       29.706  25.823  13.494  0.00  0.00    +0.092 C 
BRANCH   9  10
ATOM     10  C   LIG    1       29.726  24.797  12.434  0.00  0.00    +0.330 C 
ATOM     11  O   LIG    1       30.351  23.749  12.451  0.00  0.00    -0.246 OA
BRANCH  10  12
ATOM     12  O   LIG    1       28.928  25.204  11.419  0.00  0.00    -0.478 OA
ATOM     13  H   LIG    1       28.629  26.131  11.537  0.00  0.00    +0.295 HD
ENDBRANCH  10  12
ENDBRANCH   9  10
ENDBRANCH   7   8
BRANCH   4  14
ATOM     14  O   LIG    1       30.581  29.208  18.951  0.00  0.00    -0.503 OA
ATOM     15  H   LIG    1       30.623  30.112  18.594  0.00  0.00    +0.292 HD
ENDBRANCH   4  14
TORSDOF 5
ENDMDL
MODEL 8
REMARK VINA RESULT:      -4.4      2.838      4.761
REMARK  Name = 445858
REMARK                            x       y       z     vdW  Elec       q    Type
REMARK                         _______ _______ _______ _____ _____    ______ ____
ROOT
ATOM      3  C   LIG    1       29.466  28.633  17.042  0.00  0.00    +0.162 A 
ATOM      4  C   LIG    1       30.167  27.905  18.004  0.00  0.00    +0.158 A 
ATOM      5  C   LIG    1       30.787  26.705  17.657  0.00  0.00    +0.050 A 
ATOM      6  C   LIG    1       30.705  26.231  16.347  0.00  0.00    +0.012 A 
ATOM      7  C   LIG    1       30.004  26.958  15.386  0.00  0.00    -0.021 A 
ATOM     16  C   LIG    1       29.385  28.159  15.732  0.00  0.00    +0.057 A 
ENDROOT
BRANCH   3   1
ATOM      1  O   LIG    1       28.856  29.806  17.370  0.00  0.00    -0.491 OA
ATOM      2  C   LIG    1       29.053  30.907  16.484  0.00  0.00    +0.277 C 
ENDBRANCH   3   1
BRANCH   7   8
ATOM      8  C   LIG    1       29.920  26.465  14.020  0.00  0.00    +0.015 C 
ATOM      9  C   LIG    1       28.926  25.693  13.527  0.00  0.00    +0.092 C 
BRANCH   9  10
ATOM     10  C   LIG    1       28.951  25.265  12.115  0.00  0.00    +0.330 C 
ATOM     11  O   LIG    1       29.859  24.675  11.552  0.00  0.00    -0.246 OA
BRANCH  10  12
ATOM     12  O   LIG    1       27.788  25.633  11.529  0.00  0.00    -0.478 OA
ATOM     13  H   LIG    1       27.332  26.342  12.030  0.00  0.00    +0.295 HD
ENDBRANCH  10  12
ENDBRANCH   9  10
ENDBRANCH   7   8
BRANCH   4  14
ATOM     14  O   LIG    1       30.253  28.357  19.287  0.00  0.00    -0.503 OA
ATOM     15  H   LIG    1       31.139  28.156  19.635  0.00  0.00    +0.292 HD
ENDBRANCH   4  14
TORSDOF 5
ENDMDL
MODEL 9
REMARK VINA RESULT:      -4.4      2.755      4.729
REMARK  Name = 445858
REMARK                            x       y       z     vdW  Elec       q    Type
REMARK                         _______ _______ _______ _____ _____    ______ ____
ROOT
ATOM      3  C   LIG    1       29.231  26.001  13.039  0.00  0.00    +0.162 A 
ATOM      4  C   LIG    1       30.116  24.968  13.349  0.00  0.00    +0.158 A 
ATOM      5  C   LIG    1       30.900  25.044  14.500  0.00  0.00    +0.050 A 
ATOM      6  C   LIG    1       30.799  26.153  15.341  0.00  0.00    +0.012 A 
ATOM      7  C   LIG    1       29.915  27.185  15.030  0.00  0.00    -0.021 A 
ATOM     16  C   LIG    1       29.130  27.110  13.880  0.00  0.00    +0.057 A 
ENDROOT
BRANCH   3   1
ATOM      1  O   LIG    1       28.460  25.938  11.917  0.00  0.00    -0.491 OA
ATOM      2  C   LIG    1       27.086  26.296  12.054  0.00  0.00    +0.277 C 
ENDBRANCH   3   1
BRANCH   7   8
ATOM      8  C   LIG    1       29.810  28.340  15.907  0.00  0.00    +0.015 C 
ATOM      9  C   LIG    1       29.497  28.299  17.222  0.00  0.00    +0.092 C 
BRANCH   9  10
ATOM     10  C   LIG    1       29.432  29.547  18.007  0.00  0.00    +0.330 C 
ATOM     11  O   LIG    1       29.478  30.684  17.567  0.00  0.00    -0.246 OA
BRANCH  10  12
ATOM     12  O   LIG    1       29.309  29.229  19.317  0.00  0.00    -0.478 OA
ATOM     13  H   LIG    1       28.393  29.359  19.642  0.00  0.00    +0.295 HD
ENDBRANCH  10  12
ENDBRANCH   9  10
ENDBRANCH   7   8
BRANCH   4  14
ATOM     14  O   LIG    1       30.223  23.880  12.535  0.00  0.00    -0.503 OA
ATOM     15  H   LIG    1       29.864  24.104  11.659  0.00  0.00    +0.292 HD
ENDBRANCH   4  14
TORSDOF 5
ENDMDL
