MODEL 1
REMARK VINA RESULT:      -8.6      0.000      0.000
REMARK  6 active torsions:
REMARK  status: ('A' for Active; 'I' for Inactive)
REMARK    1  A    between atoms: O_2  and  C_12 
REMARK    2  A    between atoms: O_3  and  C_14 
REMARK    3  A    between atoms: O_5  and  C_16 
REMARK    4  A    between atoms: O_6  and  C_20 
REMARK    5  A    between atoms: O_7  and  C_22 
REMARK    6  A    between atoms: C_10  and  C_11 
ROOT
HETATM    1  O   UNK     0       4.432  43.554  22.968  0.00  0.00    -0.306 OA
HETATM    2  O   UNK     0       1.844  40.985  21.148  0.00  0.00    -0.284 OA
HETATM    3  C   UNK     0       2.803  41.765  23.157  0.00  0.00     0.084 A 
HETATM    4  C   UNK     0       3.704  42.668  23.718  0.00  0.00     0.096 A 
HETATM    5  C   UNK     0       4.253  43.561  21.593  0.00  0.00     0.123 A 
HETATM    6  C   UNK     0       3.422  42.738  20.928  0.00  0.00     0.152 A 
HETATM    7  C   UNK     0       2.618  41.758  21.698  0.00  0.00     0.223 A 
HETATM    8  C   UNK     0       2.089  40.883  23.972  0.00  0.00     0.085 A 
HETATM    9  C   UNK     0       3.899  42.692  25.100  0.00  0.00     0.075 A 
HETATM   10  C   UNK     0       3.187  41.813  25.916  0.00  0.00     0.071 A 
HETATM   11  C   UNK     0       2.285  40.911  25.353  0.00  0.00     0.074 A 
ENDROOT
BRANCH   5  12
HETATM   12  C   UNK     0       5.093  44.559  20.909  0.00  0.00     0.004 A 
HETATM   13  C   UNK     0       4.723  45.904  20.912  0.00  0.00     0.053 A 
HETATM   14  C   UNK     0       5.519  46.849  20.265  0.00  0.00     0.099 A 
HETATM   15  C   UNK     0       6.685  46.448  19.612  0.00  0.00     0.098 A 
HETATM   16  C   UNK     0       7.056  45.104  19.609  0.00  0.00     0.040 A 
HETATM   17  C   UNK     0       6.260  44.159  20.257  0.00  0.00     0.017 A 
BRANCH  14  18
HETATM   18  O   UNK     0       5.146  48.159  20.273  0.00  0.00    -0.358 OA
HETATM   19  H   UNK     0       4.214  48.234  20.533  0.00  0.00     0.217 HD
ENDBRANCH  14  18
BRANCH  15  20
HETATM   20  O   UNK     0       7.472  47.362  18.978  0.00  0.00    -0.358 OA
HETATM   21  H   UNK     0       7.968  47.878  19.633  0.00  0.00     0.217 HD
ENDBRANCH  15  20
ENDBRANCH   5  12
BRANCH   6  22
HETATM   22  O   UNK     0       3.291  42.748  19.556  0.00  0.00    -0.355 OA
HETATM   23  H   UNK     0       4.023  43.246  19.158  0.00  0.00     0.218 HD
ENDBRANCH   6  22
BRANCH   8  24
HETATM   24  O   UNK     0       1.196  39.982  23.475  0.00  0.00    -0.360 OA
HETATM   25  H   UNK     0       0.472  39.839  24.102  0.00  0.00     0.217 HD
ENDBRANCH   8  24
BRANCH  10  26
HETATM   26  O   UNK     0       3.376  41.836  27.264  0.00  0.00    -0.361 OA
HETATM   27  H   UNK     0       3.296  40.930  27.609  0.00  0.00     0.217 HD
ENDBRANCH  10  26
TORSDOF 6
ENDMDL
MODEL 2
REMARK VINA RESULT:      -7.5      1.671      7.057
REMARK  6 active torsions:
REMARK  status: ('A' for Active; 'I' for Inactive)
REMARK    1  A    between atoms: O_2  and  C_12 
REMARK    2  A    between atoms: O_3  and  C_14 
REMARK    3  A    between atoms: O_5  and  C_16 
REMARK    4  A    between atoms: O_6  and  C_20 
REMARK    5  A    between atoms: O_7  and  C_22 
REMARK    6  A    between atoms: C_10  and  C_11 
ROOT
HETATM    1  O   UNK     0       6.108  43.222  21.307  0.00  0.00    -0.306 OA
HETATM    2  O   UNK     0       5.132  47.037  20.262  0.00  0.00    -0.284 OA
HETATM    3  C   UNK     0       6.712  45.288  20.187  0.00  0.00     0.084 A 
HETATM    4  C   UNK     0       6.986  43.978  20.576  0.00  0.00     0.096 A 
HETATM    5  C   UNK     0       4.890  43.779  21.662  0.00  0.00     0.123 A 
HETATM    6  C   UNK     0       4.507  45.033  21.357  0.00  0.00     0.152 A 
HETATM    7  C   UNK     0       5.427  45.890  20.571  0.00  0.00     0.223 A 
HETATM    8  C   UNK     0       7.647  46.012  19.443  0.00  0.00     0.085 A 
HETATM    9  C   UNK     0       8.200  43.385  20.226  0.00  0.00     0.075 A 
HETATM   10  C   UNK     0       9.135  44.106  19.482  0.00  0.00     0.071 A 
HETATM   11  C   UNK     0       8.858  45.417  19.092  0.00  0.00     0.074 A 
ENDROOT
BRANCH   5  12
HETATM   12  C   UNK     0       4.043  42.861  22.444  0.00  0.00     0.004 A 
HETATM   13  C   UNK     0       3.293  41.880  21.795  0.00  0.00     0.053 A 
HETATM   14  C   UNK     0       2.492  41.011  22.535  0.00  0.00     0.099 A 
HETATM   15  C   UNK     0       2.440  41.123  23.925  0.00  0.00     0.098 A 
HETATM   16  C   UNK     0       3.190  42.104  24.574  0.00  0.00     0.040 A 
HETATM   17  C   UNK     0       3.991  42.973  23.834  0.00  0.00     0.017 A 
BRANCH  14  18
HETATM   18  O   UNK     0       1.762  40.058  21.891  0.00  0.00    -0.358 OA
HETATM   19  H   UNK     0       1.097  40.481  21.324  0.00  0.00     0.217 HD
ENDBRANCH  14  18
BRANCH  15  20
HETATM   20  O   UNK     0       1.662  40.279  24.659  0.00  0.00    -0.358 OA
HETATM   21  H   UNK     0       1.312  39.576  24.088  0.00  0.00     0.217 HD
ENDBRANCH  15  20
ENDBRANCH   5  12
BRANCH   6  22
HETATM   22  O   UNK     0       3.301  45.569  21.753  0.00  0.00    -0.355 OA
HETATM   23  H   UNK     0       2.697  45.620  20.995  0.00  0.00     0.218 HD
ENDBRANCH   6  22
BRANCH   8  24
HETATM   24  O   UNK     0       7.428  47.295  19.037  0.00  0.00    -0.360 OA
HETATM   25  H   UNK     0       8.185  47.856  19.261  0.00  0.00     0.217 HD
ENDBRANCH   8  24
BRANCH  10  26
HETATM   26  O   UNK     0      10.319  43.529  19.139  0.00  0.00    -0.361 OA
HETATM   27  H   UNK     0      10.765  44.091  18.482  0.00  0.00     0.217 HD
ENDBRANCH  10  26
TORSDOF 6
ENDMDL
MODEL 3
REMARK VINA RESULT:      -7.2      2.857      7.151
REMARK  6 active torsions:
REMARK  status: ('A' for Active; 'I' for Inactive)
REMARK    1  A    between atoms: O_2  and  C_12 
REMARK    2  A    between atoms: O_3  and  C_14 
REMARK    3  A    between atoms: O_5  and  C_16 
REMARK    4  A    between atoms: O_6  and  C_20 
REMARK    5  A    between atoms: O_7  and  C_22 
REMARK    6  A    between atoms: C_10  and  C_11 
ROOT
HETATM    1  O   UNK     0       7.315  43.323  20.650  0.00  0.00    -0.306 OA
HETATM    2  O   UNK     0       7.923  45.759  17.440  0.00  0.00    -0.284 OA
HETATM    3  C   UNK     0       8.862  44.381  19.108  0.00  0.00     0.084 A 
HETATM    4  C   UNK     0       8.587  43.560  20.199  0.00  0.00     0.096 A 
HETATM    5  C   UNK     0       6.255  43.917  19.981  0.00  0.00     0.123 A 
HETATM    6  C   UNK     0       6.385  44.735  18.921  0.00  0.00     0.152 A 
HETATM    7  C   UNK     0       7.744  45.024  18.402  0.00  0.00     0.223 A 
HETATM    8  C   UNK     0      10.181  44.586  18.694  0.00  0.00     0.085 A 
HETATM    9  C   UNK     0       9.632  42.940  20.887  0.00  0.00     0.075 A 
HETATM   10  C   UNK     0      10.950  43.144  20.476  0.00  0.00     0.071 A 
HETATM   11  C   UNK     0      11.223  43.965  19.382  0.00  0.00     0.074 A 
ENDROOT
BRANCH   5  12
HETATM   12  C   UNK     0       4.945  43.580  20.566  0.00  0.00     0.004 A 
HETATM   13  C   UNK     0       3.972  42.958  19.785  0.00  0.00     0.053 A 
HETATM   14  C   UNK     0       2.732  42.639  20.339  0.00  0.00     0.099 A 
HETATM   15  C   UNK     0       2.466  42.944  21.675  0.00  0.00     0.098 A 
HETATM   16  C   UNK     0       3.440  43.566  22.456  0.00  0.00     0.040 A 
HETATM   17  C   UNK     0       4.680  43.884  21.901  0.00  0.00     0.017 A 
BRANCH  14  18
HETATM   18  O   UNK     0       1.788  42.033  19.567  0.00  0.00    -0.358 OA
HETATM   19  H   UNK     0       1.603  42.579  18.786  0.00  0.00     0.217 HD
ENDBRANCH  14  18
BRANCH  15  20
HETATM   20  O   UNK     0       1.259  42.635  22.228  0.00  0.00    -0.358 OA
HETATM   21  H   UNK     0       1.281  41.731  22.578  0.00  0.00     0.217 HD
ENDBRANCH  15  20
ENDBRANCH   5  12
BRANCH   6  22
HETATM   22  O   UNK     0       5.312  45.336  18.298  0.00  0.00    -0.355 OA
HETATM   23  H   UNK     0       5.040  44.810  17.529  0.00  0.00     0.218 HD
ENDBRANCH   6  22
BRANCH   8  24
HETATM   24  O   UNK     0      10.503  45.379  17.634  0.00  0.00    -0.360 OA
HETATM   25  H   UNK     0      10.077  45.056  16.826  0.00  0.00     0.217 HD
ENDBRANCH   8  24
BRANCH  10  26
HETATM   26  O   UNK     0      11.970  42.539  21.146  0.00  0.00    -0.361 OA
HETATM   27  H   UNK     0      12.692  42.356  20.520  0.00  0.00     0.217 HD
ENDBRANCH  10  26
TORSDOF 6
ENDMDL
MODEL 4
REMARK VINA RESULT:      -7.1      3.049      5.283
REMARK  6 active torsions:
REMARK  status: ('A' for Active; 'I' for Inactive)
REMARK    1  A    between atoms: O_2  and  C_12 
REMARK    2  A    between atoms: O_3  and  C_14 
REMARK    3  A    between atoms: O_5  and  C_16 
REMARK    4  A    between atoms: O_6  and  C_20 
REMARK    5  A    between atoms: O_7  and  C_22 
REMARK    6  A    between atoms: C_10  and  C_11 
ROOT
HETATM    1  O   UNK     0       7.298  43.214  20.348  0.00  0.00    -0.306 OA
HETATM    2  O   UNK     0       5.373  46.757  20.938  0.00  0.00    -0.284 OA
HETATM    3  C   UNK     0       5.301  44.402  21.048  0.00  0.00     0.084 A 
HETATM    4  C   UNK     0       6.013  43.225  20.824  0.00  0.00     0.096 A 
HETATM    5  C   UNK     0       7.920  44.426  20.091  0.00  0.00     0.123 A 
HETATM    6  C   UNK     0       7.341  45.630  20.257  0.00  0.00     0.152 A 
HETATM    7  C   UNK     0       5.950  45.691  20.765  0.00  0.00     0.223 A 
HETATM    8  C   UNK     0       3.992  44.352  21.533  0.00  0.00     0.085 A 
HETATM    9  C   UNK     0       5.418  41.990  21.082  0.00  0.00     0.075 A 
HETATM   10  C   UNK     0       4.111  41.937  21.567  0.00  0.00     0.071 A 
HETATM   11  C   UNK     0       3.400  43.116  21.792  0.00  0.00     0.074 A 
ENDROOT
BRANCH   5  12
HETATM   12  C   UNK     0       9.295  44.271  19.586  0.00  0.00     0.004 A 
HETATM   13  C   UNK     0       9.705  44.972  18.452  0.00  0.00     0.053 A 
HETATM   14  C   UNK     0      11.007  44.825  17.974  0.00  0.00     0.099 A 
HETATM   15  C   UNK     0      11.900  43.978  18.631  0.00  0.00     0.098 A 
HETATM   16  C   UNK     0      11.490  43.278  19.766  0.00  0.00     0.040 A 
HETATM   17  C   UNK     0      10.188  43.424  20.244  0.00  0.00     0.017 A 
BRANCH  14  18
HETATM   18  O   UNK     0      11.396  45.512  16.864  0.00  0.00    -0.358 OA
HETATM   19  H   UNK     0      12.365  45.519  16.805  0.00  0.00     0.217 HD
ENDBRANCH  14  18
BRANCH  15  20
HETATM   20  O   UNK     0      13.175  43.829  18.175  0.00  0.00    -0.358 OA
HETATM   21  H   UNK     0      13.241  43.018  17.647  0.00  0.00     0.217 HD
ENDBRANCH  15  20
ENDBRANCH   5  12
BRANCH   6  22
HETATM   22  O   UNK     0       7.976  46.816  19.961  0.00  0.00    -0.355 OA
HETATM   23  H   UNK     0       8.003  46.946  18.999  0.00  0.00     0.218 HD
ENDBRANCH   6  22
BRANCH   8  24
HETATM   24  O   UNK     0       3.252  45.472  21.770  0.00  0.00    -0.360 OA
HETATM   25  H   UNK     0       2.443  45.465  21.236  0.00  0.00     0.217 HD
ENDBRANCH   8  24
BRANCH  10  26
HETATM   26  O   UNK     0       3.529  40.732  21.820  0.00  0.00    -0.361 OA
HETATM   27  H   UNK     0       2.785  40.606  21.206  0.00  0.00     0.217 HD
ENDBRANCH  10  26
TORSDOF 6
ENDMDL
MODEL 5
REMARK VINA RESULT:      -7.0      4.191      7.873
REMARK  6 active torsions:
REMARK  status: ('A' for Active; 'I' for Inactive)
REMARK    1  A    between atoms: O_2  and  C_12 
REMARK    2  A    between atoms: O_3  and  C_14 
REMARK    3  A    between atoms: O_5  and  C_16 
REMARK    4  A    between atoms: O_6  and  C_20 
REMARK    5  A    between atoms: O_7  and  C_22 
REMARK    6  A    between atoms: C_10  and  C_11 
ROOT
HETATM    1  O   UNK     0       9.214  43.317  20.682  0.00  0.00    -0.306 OA
HETATM    2  O   UNK     0      10.899  45.213  17.493  0.00  0.00    -0.284 OA
HETATM    3  C   UNK     0      11.158  43.694  19.278  0.00  0.00     0.084 A 
HETATM    4  C   UNK     0      10.524  43.079  20.356  0.00  0.00     0.096 A 
HETATM    5  C   UNK     0       8.486  44.197  19.896  0.00  0.00     0.123 A 
HETATM    6  C   UNK     0       8.981  44.861  18.835  0.00  0.00     0.152 A 
HETATM    7  C   UNK     0      10.395  44.639  18.449  0.00  0.00     0.223 A 
HETATM    8  C   UNK     0      12.497  43.414  18.995  0.00  0.00     0.085 A 
HETATM    9  C   UNK     0      11.227  42.181  21.160  0.00  0.00     0.075 A 
HETATM   10  C   UNK     0      12.564  41.900  20.879  0.00  0.00     0.071 A 
HETATM   11  C   UNK     0      13.197  42.515  19.799  0.00  0.00     0.074 A 
ENDROOT
BRANCH   5  12
HETATM   12  C   UNK     0       7.095  44.361  20.354  0.00  0.00     0.004 A 
HETATM   13  C   UNK     0       6.087  43.552  19.830  0.00  0.00     0.053 A 
HETATM   14  C   UNK     0       4.771  43.707  20.264  0.00  0.00     0.099 A 
HETATM   15  C   UNK     0       4.462  44.673  21.223  0.00  0.00     0.098 A 
HETATM   16  C   UNK     0       5.470  45.482  21.748  0.00  0.00     0.040 A 
HETATM   17  C   UNK     0       6.786  45.326  21.314  0.00  0.00     0.017 A 
BRANCH  14  18
HETATM   18  O   UNK     0       3.794  42.913  19.743  0.00  0.00    -0.358 OA
HETATM   19  H   UNK     0       3.611  43.177  18.827  0.00  0.00     0.217 HD
ENDBRANCH  14  18
BRANCH  15  20
HETATM   20  O   UNK     0       3.180  44.833  21.656  0.00  0.00    -0.358 OA
HETATM   21  H   UNK     0       2.729  45.495  21.109  0.00  0.00     0.217 HD
ENDBRANCH  15  20
ENDBRANCH   5  12
BRANCH   6  22
HETATM   22  O   UNK     0       8.239  45.755  18.094  0.00  0.00    -0.355 OA
HETATM   23  H   UNK     0       8.499  46.663  18.315  0.00  0.00     0.218 HD
ENDBRANCH   6  22
BRANCH   8  24
HETATM   24  O   UNK     0      13.163  43.988  17.954  0.00  0.00    -0.360 OA
HETATM   25  H   UNK     0      14.121  43.942  18.096  0.00  0.00     0.217 HD
ENDBRANCH   8  24
BRANCH  10  26
HETATM   26  O   UNK     0      13.252  41.023  21.662  0.00  0.00    -0.361 OA
HETATM   27  H   UNK     0      12.849  40.141  21.575  0.00  0.00     0.217 HD
ENDBRANCH  10  26
TORSDOF 6
ENDMDL
MODEL 6
REMARK VINA RESULT:      -7.0      2.425      7.219
REMARK  6 active torsions:
REMARK  status: ('A' for Active; 'I' for Inactive)
REMARK    1  A    between atoms: O_2  and  C_12 
REMARK    2  A    between atoms: O_3  and  C_14 
REMARK    3  A    between atoms: O_5  and  C_16 
REMARK    4  A    between atoms: O_6  and  C_20 
REMARK    5  A    between atoms: O_7  and  C_22 
REMARK    6  A    between atoms: C_10  and  C_11 
ROOT
HETATM    1  O   UNK     0       6.250  43.667  21.372  0.00  0.00    -0.306 OA
HETATM    2  O   UNK     0       8.101  45.791  24.316  0.00  0.00    -0.284 OA
HETATM    3  C   UNK     0       8.029  45.176  22.040  0.00  0.00     0.084 A 
HETATM    4  C   UNK     0       7.352  44.427  21.080  0.00  0.00     0.096 A 
HETATM    5  C   UNK     0       5.781  43.654  22.677  0.00  0.00     0.123 A 
HETATM    6  C   UNK     0       6.347  44.326  23.697  0.00  0.00     0.152 A 
HETATM    7  C   UNK     0       7.545  45.157  23.429  0.00  0.00     0.223 A 
HETATM    8  C   UNK     0       9.149  45.931  21.684  0.00  0.00     0.085 A 
HETATM    9  C   UNK     0       7.794  44.426  19.756  0.00  0.00     0.075 A 
HETATM   10  C   UNK     0       8.911  45.180  19.398  0.00  0.00     0.071 A 
HETATM   11  C   UNK     0       9.587  45.930  20.360  0.00  0.00     0.074 A 
ENDROOT
BRANCH   5  12
HETATM   12  C   UNK     0       4.593  42.801  22.853  0.00  0.00     0.004 A 
HETATM   13  C   UNK     0       3.384  43.154  22.255  0.00  0.00     0.053 A 
HETATM   14  C   UNK     0       2.260  42.345  22.422  0.00  0.00     0.099 A 
HETATM   15  C   UNK     0       2.345  41.182  23.188  0.00  0.00     0.098 A 
HETATM   16  C   UNK     0       3.554  40.828  23.786  0.00  0.00     0.040 A 
HETATM   17  C   UNK     0       4.679  41.637  23.618  0.00  0.00     0.017 A 
BRANCH  14  18
HETATM   18  O   UNK     0       1.084  42.702  21.835  0.00  0.00    -0.358 OA
HETATM   19  H   UNK     0       1.002  43.669  21.825  0.00  0.00     0.217 HD
ENDBRANCH  14  18
BRANCH  15  20
HETATM   20  O   UNK     0       1.255  40.383  23.356  0.00  0.00    -0.358 OA
HETATM   21  H   UNK     0       1.322  39.911  24.201  0.00  0.00     0.217 HD
ENDBRANCH  15  20
ENDBRANCH   5  12
BRANCH   6  22
HETATM   22  O   UNK     0       5.875  44.266  24.990  0.00  0.00    -0.355 OA
HETATM   23  H   UNK     0       4.908  44.350  24.993  0.00  0.00     0.218 HD
ENDBRANCH   6  22
BRANCH   8  24
HETATM   24  O   UNK     0       9.846  46.681  22.584  0.00  0.00    -0.360 OA
HETATM   25  H   UNK     0       9.318  46.831  23.383  0.00  0.00     0.217 HD
ENDBRANCH   8  24
BRANCH  10  26
HETATM   26  O   UNK     0       9.343  45.181  18.106  0.00  0.00    -0.361 OA
HETATM   27  H   UNK     0       8.916  45.916  17.632  0.00  0.00     0.217 HD
ENDBRANCH  10  26
TORSDOF 6
ENDMDL
MODEL 7
REMARK VINA RESULT:      -7.0      1.861      3.414
REMARK  6 active torsions:
REMARK  status: ('A' for Active; 'I' for Inactive)
REMARK    1  A    between atoms: O_2  and  C_12 
REMARK    2  A    between atoms: O_3  and  C_14 
REMARK    3  A    between atoms: O_5  and  C_16 
REMARK    4  A    between atoms: O_6  and  C_20 
REMARK    5  A    between atoms: O_7  and  C_22 
REMARK    6  A    between atoms: C_10  and  C_11 
ROOT
HETATM    1  O   UNK     0       5.333  42.748  21.658  0.00  0.00    -0.306 OA
HETATM    2  O   UNK     0       5.077  43.766  25.595  0.00  0.00    -0.284 OA
HETATM    3  C   UNK     0       4.226  42.491  23.803  0.00  0.00     0.084 A 
HETATM    4  C   UNK     0       4.366  42.186  22.450  0.00  0.00     0.096 A 
HETATM    5  C   UNK     0       6.218  43.648  22.231  0.00  0.00     0.123 A 
HETATM    6  C   UNK     0       6.186  44.033  23.520  0.00  0.00     0.152 A 
HETATM    7  C   UNK     0       5.154  43.455  24.414  0.00  0.00     0.223 A 
HETATM    8  C   UNK     0       3.220  41.888  24.561  0.00  0.00     0.085 A 
HETATM    9  C   UNK     0       3.497  41.276  21.847  0.00  0.00     0.075 A 
HETATM   10  C   UNK     0       2.491  40.672  22.602  0.00  0.00     0.071 A 
HETATM   11  C   UNK     0       2.353  40.978  23.956  0.00  0.00     0.074 A 
ENDROOT
BRANCH   5  12
HETATM   12  C   UNK     0       7.204  44.175  21.272  0.00  0.00     0.004 A 
HETATM   13  C   UNK     0       7.115  45.496  20.834  0.00  0.00     0.053 A 
HETATM   14  C   UNK     0       8.050  45.995  19.926  0.00  0.00     0.099 A 
HETATM   15  C   UNK     0       9.074  45.172  19.456  0.00  0.00     0.098 A 
HETATM   16  C   UNK     0       9.163  43.851  19.895  0.00  0.00     0.040 A 
HETATM   17  C   UNK     0       8.229  43.352  20.803  0.00  0.00     0.017 A 
BRANCH  14  18
HETATM   18  O   UNK     0       7.952  47.286  19.503  0.00  0.00    -0.358 OA
HETATM   19  H   UNK     0       8.655  47.475  18.861  0.00  0.00     0.217 HD
ENDBRANCH  14  18
BRANCH  15  20
HETATM   20  O   UNK     0       9.993  45.648  18.571  0.00  0.00    -0.358 OA
HETATM   21  H   UNK     0      10.822  45.847  19.035  0.00  0.00     0.217 HD
ENDBRANCH  15  20
ENDBRANCH   5  12
BRANCH   6  22
HETATM   22  O   UNK     0       7.061  44.956  24.052  0.00  0.00    -0.355 OA
HETATM   23  H   UNK     0       7.169  45.700  23.438  0.00  0.00     0.218 HD
ENDBRANCH   6  22
BRANCH   8  24
HETATM   24  O   UNK     0       3.041  42.151  25.886  0.00  0.00    -0.360 OA
HETATM   25  H   UNK     0       2.492  41.466  26.298  0.00  0.00     0.217 HD
ENDBRANCH   8  24
BRANCH  10  26
HETATM   26  O   UNK     0       1.643  39.784  22.014  0.00  0.00    -0.361 OA
HETATM   27  H   UNK     0       1.423  39.087  22.656  0.00  0.00     0.217 HD
ENDBRANCH  10  26
TORSDOF 6
ENDMDL
MODEL 8
REMARK VINA RESULT:      -7.0      2.507      6.785
REMARK  6 active torsions:
REMARK  status: ('A' for Active; 'I' for Inactive)
REMARK    1  A    between atoms: O_2  and  C_12 
REMARK    2  A    between atoms: O_3  and  C_14 
REMARK    3  A    between atoms: O_5  and  C_16 
REMARK    4  A    between atoms: O_6  and  C_20 
REMARK    5  A    between atoms: O_7  and  C_22 
REMARK    6  A    between atoms: C_10  and  C_11 
ROOT
HETATM    1  O   UNK     0       4.112  41.584  23.845  0.00  0.00    -0.306 OA
HETATM    2  O   UNK     0       3.025  44.627  21.362  0.00  0.00    -0.284 OA
HETATM    3  C   UNK     0       4.565  43.790  22.940  0.00  0.00     0.084 A 
HETATM    4  C   UNK     0       4.881  42.715  23.769  0.00  0.00     0.096 A 
HETATM    5  C   UNK     0       2.978  41.500  23.052  0.00  0.00     0.123 A 
HETATM    6  C   UNK     0       2.558  42.468  22.217  0.00  0.00     0.152 A 
HETATM    7  C   UNK     0       3.356  43.713  22.106  0.00  0.00     0.223 A 
HETATM    8  C   UNK     0       5.387  44.919  22.905  0.00  0.00     0.085 A 
HETATM    9  C   UNK     0       6.022  42.765  24.571  0.00  0.00     0.075 A 
HETATM   10  C   UNK     0       6.844  43.891  24.539  0.00  0.00     0.071 A 
HETATM   11  C   UNK     0       6.527  44.966  23.707  0.00  0.00     0.074 A 
ENDROOT
BRANCH   5  12
HETATM   12  C   UNK     0       2.244  40.235  23.229  0.00  0.00     0.004 A 
HETATM   13  C   UNK     0       2.234  39.285  22.208  0.00  0.00     0.053 A 
HETATM   14  C   UNK     0       1.539  38.087  22.376  0.00  0.00     0.099 A 
HETATM   15  C   UNK     0       0.855  37.839  23.566  0.00  0.00     0.098 A 
HETATM   16  C   UNK     0       0.866  38.788  24.588  0.00  0.00     0.040 A 
HETATM   17  C   UNK     0       1.561  39.986  24.420  0.00  0.00     0.017 A 
BRANCH  14  18
HETATM   18  O   UNK     0       1.533  37.168  21.371  0.00  0.00    -0.358 OA
HETATM   19  H   UNK     0       0.902  37.436  20.684  0.00  0.00     0.217 HD
ENDBRANCH  14  18
BRANCH  15  20
HETATM   20  O   UNK     0       0.175  36.672  23.743  0.00  0.00    -0.358 OA
HETATM   21  H   UNK     0       0.506  36.003  23.124  0.00  0.00     0.217 HD
ENDBRANCH  15  20
ENDBRANCH   5  12
BRANCH   6  22
HETATM   22  O   UNK     0       1.407  42.368  21.466  0.00  0.00    -0.355 OA
HETATM   23  H   UNK     0       1.026  43.250  21.326  0.00  0.00     0.218 HD
ENDBRANCH   6  22
BRANCH   8  24
HETATM   24  O   UNK     0       5.123  45.995  22.112  0.00  0.00    -0.360 OA
HETATM   25  H   UNK     0       5.593  45.920  21.268  0.00  0.00     0.217 HD
ENDBRANCH   8  24
BRANCH  10  26
HETATM   26  O   UNK     0       7.958  43.941  25.321  0.00  0.00    -0.361 OA
HETATM   27  H   UNK     0       8.645  43.376  24.927  0.00  0.00     0.217 HD
ENDBRANCH  10  26
TORSDOF 6
ENDMDL
MODEL 9
REMARK VINA RESULT:      -6.9     20.313     21.750
REMARK  6 active torsions:
REMARK  status: ('A' for Active; 'I' for Inactive)
REMARK    1  A    between atoms: O_2  and  C_12 
REMARK    2  A    between atoms: O_3  and  C_14 
REMARK    3  A    between atoms: O_5  and  C_16 
REMARK    4  A    between atoms: O_6  and  C_20 
REMARK    5  A    between atoms: O_7  and  C_22 
REMARK    6  A    between atoms: C_10  and  C_11 
ROOT
HETATM    1  O   UNK     0     -14.117  53.658  21.429  0.00  0.00    -0.306 OA
HETATM    2  O   UNK     0     -15.032  55.044  17.708  0.00  0.00    -0.284 OA
HETATM    3  C   UNK     0     -14.591  55.539  19.972  0.00  0.00     0.084 A 
HETATM    4  C   UNK     0     -14.279  55.002  21.219  0.00  0.00     0.096 A 
HETATM    5  C   UNK     0     -14.255  52.797  20.351  0.00  0.00     0.123 A 
HETATM    6  C   UNK     0     -14.562  53.186  19.100  0.00  0.00     0.152 A 
HETATM    7  C   UNK     0     -14.753  54.631  18.826  0.00  0.00     0.223 A 
HETATM    8  C   UNK     0     -14.747  56.919  19.817  0.00  0.00     0.085 A 
HETATM    9  C   UNK     0     -14.124  55.843  22.322  0.00  0.00     0.075 A 
HETATM   10  C   UNK     0     -14.278  57.221  22.170  0.00  0.00     0.071 A 
HETATM   11  C   UNK     0     -14.590  57.757  20.921  0.00  0.00     0.074 A 
ENDROOT
BRANCH   5  12
HETATM   12  C   UNK     0     -14.055  51.383  20.714  0.00  0.00     0.004 A 
HETATM   13  C   UNK     0     -14.319  50.952  22.013  0.00  0.00     0.053 A 
HETATM   14  C   UNK     0     -14.129  49.613  22.356  0.00  0.00     0.099 A 
HETATM   15  C   UNK     0     -13.675  48.706  21.398  0.00  0.00     0.098 A 
HETATM   16  C   UNK     0     -13.411  49.137  20.099  0.00  0.00     0.040 A 
HETATM   17  C   UNK     0     -13.601  50.476  19.756  0.00  0.00     0.017 A 
BRANCH  14  18
HETATM   18  O   UNK     0     -14.388  49.203  23.629  0.00  0.00    -0.358 OA
HETATM   19  H   UNK     0     -14.134  49.899  24.256  0.00  0.00     0.217 HD
ENDBRANCH  14  18
BRANCH  15  20
HETATM   20  O   UNK     0     -13.488  47.395  21.721  0.00  0.00    -0.358 OA
HETATM   21  H   UNK     0     -13.265  47.318  22.662  0.00  0.00     0.217 HD
ENDBRANCH  15  20
ENDBRANCH   5  12
BRANCH   6  22
HETATM   22  O   UNK     0     -14.725  52.302  18.056  0.00  0.00    -0.355 OA
HETATM   23  H   UNK     0     -15.653  52.021  18.003  0.00  0.00     0.218 HD
ENDBRANCH   6  22
BRANCH   8  24
HETATM   24  O   UNK     0     -15.052  57.495  18.620  0.00  0.00    -0.360 OA
HETATM   25  H   UNK     0     -15.901  57.958  18.672  0.00  0.00     0.217 HD
ENDBRANCH   8  24
BRANCH  10  26
HETATM   26  O   UNK     0     -14.126  58.043  23.246  0.00  0.00    -0.361 OA
HETATM   27  H   UNK     0     -13.978  58.951  22.929  0.00  0.00     0.217 HD
ENDBRANCH  10  26
TORSDOF 6
ENDMDL
