MODEL 1
REMARK VINA RESULT:    -8.591      0.000      0.000
REMARK INTER + INTRA:         -10.613
REMARK INTER:                 -10.327
REMARK INTRA:                  -0.286
REMARK UNBOUND:                -0.265
REMARK  6 active torsions:
REMARK  status: ('A' for Active; 'I' for Inactive)
REMARK    1  A    between atoms: O_2  and  C_12 
REMARK    2  A    between atoms: O_3  and  C_14 
REMARK    3  A    between atoms: O_5  and  C_16 
REMARK    4  A    between atoms: O_6  and  C_20 
REMARK    5  A    between atoms: O_7  and  C_22 
REMARK    6  A    between atoms: C_10  and  C_11 
ROOT
HETATM    1  O   UNK     0       4.483  43.569  22.938  0.00  0.00    -0.306 OA
HETATM    2  O   UNK     0       1.813  41.044  21.177  0.00  0.00    -0.284 OA
HETATM    3  C   UNK     0       2.833  41.804  23.163  0.00  0.00     0.084 A 
HETATM    4  C   UNK     0       3.761  42.692  23.704  0.00  0.00     0.096 A 
HETATM    5  C   UNK     0       4.270  43.583  21.568  0.00  0.00     0.123 A 
HETATM    6  C   UNK     0       3.410  42.773  20.922  0.00  0.00     0.152 A 
HETATM    7  C   UNK     0       2.611  41.804  21.709  0.00  0.00     0.223 A 
HETATM    8  C   UNK     0       2.126  40.930  23.994  0.00  0.00     0.085 A 
HETATM    9  C   UNK     0       3.990  42.709  25.080  0.00  0.00     0.075 A 
HETATM   10  C   UNK     0       3.286  41.838  25.912  0.00  0.00     0.071 A 
HETATM   11  C   UNK     0       2.357  40.950  25.369  0.00  0.00     0.074 A 
ENDROOT
BRANCH   5  12
HETATM   12  C   UNK     0       5.107  44.570  20.865  0.00  0.00     0.004 A 
HETATM   13  C   UNK     0       4.761  45.921  20.888  0.00  0.00     0.053 A 
HETATM   14  C   UNK     0       5.554  46.856  20.223  0.00  0.00     0.099 A 
HETATM   15  C   UNK     0       6.695  46.439  19.535  0.00  0.00     0.098 A 
HETATM   16  C   UNK     0       7.041  45.089  19.513  0.00  0.00     0.040 A 
HETATM   17  C   UNK     0       6.248  44.154  20.178  0.00  0.00     0.017 A 
BRANCH  14  18
HETATM   18  O   UNK     0       5.205  48.172  20.249  0.00  0.00    -0.358 OA
HETATM   19  H   UNK     0       5.999  48.724  20.156  0.00  0.00     0.217 HD
ENDBRANCH  14  18
BRANCH  15  20
HETATM   20  O   UNK     0       7.479  47.343  18.883  0.00  0.00    -0.358 OA
HETATM   21  H   UNK     0       7.147  48.241  19.044  0.00  0.00     0.217 HD
ENDBRANCH  15  20
ENDBRANCH   5  12
BRANCH   6  22
HETATM   22  O   UNK     0       3.246  42.789  19.554  0.00  0.00    -0.355 OA
HETATM   23  H   UNK     0       3.476  41.921  19.184  0.00  0.00     0.218 HD
ENDBRANCH   6  22
BRANCH   8  24
HETATM   24  O   UNK     0       1.208  40.043  23.516  0.00  0.00    -0.360 OA
HETATM   25  H   UNK     0       0.641  39.722  24.233  0.00  0.00     0.217 HD
ENDBRANCH   8  24
BRANCH  10  26
HETATM   26  O   UNK     0       3.509  41.854  27.255  0.00  0.00    -0.361 OA
HETATM   27  H   UNK     0       4.214  42.496  27.450  0.00  0.00     0.217 HD
ENDBRANCH  10  26
TORSDOF 6
ENDMDL
MODEL 2
REMARK VINA RESULT:    -8.082      1.429      3.271
REMARK INTER + INTRA:         -10.000
REMARK INTER:                  -9.731
REMARK INTRA:                  -0.269
REMARK UNBOUND:                -0.265
REMARK  6 active torsions:
REMARK  status: ('A' for Active; 'I' for Inactive)
REMARK    1  A    between atoms: O_2  and  C_12 
REMARK    2  A    between atoms: O_3  and  C_14 
REMARK    3  A    between atoms: O_5  and  C_16 
REMARK    4  A    between atoms: O_6  and  C_20 
REMARK    5  A    between atoms: O_7  and  C_22 
REMARK    6  A    between atoms: C_10  and  C_11 
ROOT
HETATM    1  O   UNK     0       4.233  43.482  21.895  0.00  0.00    -0.306 OA
HETATM    2  O   UNK     0       4.735  43.529  25.939  0.00  0.00    -0.284 OA
HETATM    3  C   UNK     0       3.765  42.487  24.058  0.00  0.00     0.084 A 
HETATM    4  C   UNK     0       3.632  42.527  22.672  0.00  0.00     0.096 A 
HETATM    5  C   UNK     0       5.018  44.442  22.515  0.00  0.00     0.123 A 
HETATM    6  C   UNK     0       5.220  44.520  23.843  0.00  0.00     0.152 A 
HETATM    7  C   UNK     0       4.585  43.510  24.724  0.00  0.00     0.223 A 
HETATM    8  C   UNK     0       3.128  41.488  24.799  0.00  0.00     0.085 A 
HETATM    9  C   UNK     0       2.858  41.568  22.017  0.00  0.00     0.075 A 
HETATM   10  C   UNK     0       2.220  40.570  22.754  0.00  0.00     0.071 A 
HETATM   11  C   UNK     0       2.355  40.531  24.142  0.00  0.00     0.074 A 
ENDROOT
BRANCH   5  12
HETATM   12  C   UNK     0       5.604  45.407  21.568  0.00  0.00     0.004 A 
HETATM   13  C   UNK     0       6.963  45.345  21.260  0.00  0.00     0.053 A 
HETATM   14  C   UNK     0       7.517  46.257  20.362  0.00  0.00     0.099 A 
HETATM   15  C   UNK     0       6.712  47.232  19.773  0.00  0.00     0.098 A 
HETATM   16  C   UNK     0       5.353  47.294  20.080  0.00  0.00     0.040 A 
HETATM   17  C   UNK     0       4.798  46.381  20.977  0.00  0.00     0.017 A 
BRANCH  14  18
HETATM   18  O   UNK     0       8.846  46.189  20.071  0.00  0.00    -0.358 OA
HETATM   19  H   UNK     0       9.351  46.017  20.882  0.00  0.00     0.217 HD
ENDBRANCH  14  18
BRANCH  15  20
HETATM   20  O   UNK     0       7.241  48.128  18.893  0.00  0.00    -0.358 OA
HETATM   21  H   UNK     0       6.531  48.654  18.493  0.00  0.00     0.217 HD
ENDBRANCH  15  20
ENDBRANCH   5  12
BRANCH   6  22
HETATM   22  O   UNK     0       5.980  45.508  24.432  0.00  0.00    -0.355 OA
HETATM   23  H   UNK     0       6.907  45.417  24.160  0.00  0.00     0.218 HD
ENDBRANCH   6  22
BRANCH   8  24
HETATM   24  O   UNK     0       3.225  41.405  26.156  0.00  0.00    -0.360 OA
HETATM   25  H   UNK     0       2.672  40.684  26.493  0.00  0.00     0.217 HD
ENDBRANCH   8  24
BRANCH  10  26
HETATM   26  O   UNK     0       1.464  39.634  22.117  0.00  0.00    -0.361 OA
HETATM   27  H   UNK     0       0.530  39.768  22.353  0.00  0.00     0.217 HD
ENDBRANCH  10  26
TORSDOF 6
ENDMDL
MODEL 3
REMARK VINA RESULT:    -7.507      1.660      7.048
REMARK INTER + INTRA:          -9.308
REMARK INTER:                  -9.010
REMARK INTRA:                  -0.298
REMARK UNBOUND:                -0.265
REMARK  6 active torsions:
REMARK  status: ('A' for Active; 'I' for Inactive)
REMARK    1  A    between atoms: O_2  and  C_12 
REMARK    2  A    between atoms: O_3  and  C_14 
REMARK    3  A    between atoms: O_5  and  C_16 
REMARK    4  A    between atoms: O_6  and  C_20 
REMARK    5  A    between atoms: O_7  and  C_22 
REMARK    6  A    between atoms: C_10  and  C_11 
ROOT
HETATM    1  O   UNK     0       6.087  43.237  21.257  0.00  0.00    -0.306 OA
HETATM    2  O   UNK     0       5.122  47.062  20.236  0.00  0.00    -0.284 OA
HETATM    3  C   UNK     0       6.692  45.305  20.141  0.00  0.00     0.084 A 
HETATM    4  C   UNK     0       6.963  43.993  20.523  0.00  0.00     0.096 A 
HETATM    5  C   UNK     0       4.874  43.799  21.624  0.00  0.00     0.123 A 
HETATM    6  C   UNK     0       4.495  45.056  21.327  0.00  0.00     0.152 A 
HETATM    7  C   UNK     0       5.413  45.913  20.538  0.00  0.00     0.223 A 
HETATM    8  C   UNK     0       7.625  46.028  19.392  0.00  0.00     0.085 A 
HETATM    9  C   UNK     0       8.171  43.396  20.160  0.00  0.00     0.075 A 
HETATM   10  C   UNK     0       9.104  44.115  19.413  0.00  0.00     0.071 A 
HETATM   11  C   UNK     0       8.831  45.429  19.030  0.00  0.00     0.074 A 
ENDROOT
BRANCH   5  12
HETATM   12  C   UNK     0       4.029  42.882  22.408  0.00  0.00     0.004 A 
HETATM   13  C   UNK     0       3.282  41.897  21.763  0.00  0.00     0.053 A 
HETATM   14  C   UNK     0       2.482  41.029  22.505  0.00  0.00     0.099 A 
HETATM   15  C   UNK     0       2.429  41.146  23.895  0.00  0.00     0.098 A 
HETATM   16  C   UNK     0       3.176  42.130  24.541  0.00  0.00     0.040 A 
HETATM   17  C   UNK     0       3.976  42.999  23.798  0.00  0.00     0.017 A 
BRANCH  14  18
HETATM   18  O   UNK     0       1.755  40.072  21.864  0.00  0.00    -0.358 OA
HETATM   19  H   UNK     0       1.752  40.248  20.909  0.00  0.00     0.217 HD
ENDBRANCH  14  18
BRANCH  15  20
HETATM   20  O   UNK     0       1.653  40.302  24.631  0.00  0.00    -0.358 OA
HETATM   21  H   UNK     0       0.876  40.036  24.114  0.00  0.00     0.217 HD
ENDBRANCH  15  20
ENDBRANCH   5  12
BRANCH   6  22
HETATM   22  O   UNK     0       3.295  45.597  21.735  0.00  0.00    -0.355 OA
HETATM   23  H   UNK     0       2.620  44.900  21.788  0.00  0.00     0.218 HD
ENDBRANCH   6  22
BRANCH   8  24
HETATM   24  O   UNK     0       7.409  47.313  18.994  0.00  0.00    -0.360 OA
HETATM   25  H   UNK     0       7.932  47.928  19.530  0.00  0.00     0.217 HD
ENDBRANCH   8  24
BRANCH  10  26
HETATM   26  O   UNK     0      10.283  43.533  19.058  0.00  0.00    -0.361 OA
HETATM   27  H   UNK     0      10.705  43.166  19.854  0.00  0.00     0.217 HD
ENDBRANCH  10  26
TORSDOF 6
ENDMDL
MODEL 4
REMARK VINA RESULT:    -7.115      2.994      5.179
REMARK INTER + INTRA:          -8.836
REMARK INTER:                  -8.864
REMARK INTRA:                   0.028
REMARK UNBOUND:                -0.265
REMARK  6 active torsions:
REMARK  status: ('A' for Active; 'I' for Inactive)
REMARK    1  A    between atoms: O_2  and  C_12 
REMARK    2  A    between atoms: O_3  and  C_14 
REMARK    3  A    between atoms: O_5  and  C_16 
REMARK    4  A    between atoms: O_6  and  C_20 
REMARK    5  A    between atoms: O_7  and  C_22 
REMARK    6  A    between atoms: C_10  and  C_11 
ROOT
HETATM    1  O   UNK     0       7.205  43.198  20.396  0.00  0.00    -0.306 OA
HETATM    2  O   UNK     0       5.264  46.741  20.929  0.00  0.00    -0.284 OA
HETATM    3  C   UNK     0       5.201  44.388  21.074  0.00  0.00     0.084 A 
HETATM    4  C   UNK     0       5.919  43.211  20.869  0.00  0.00     0.096 A 
HETATM    5  C   UNK     0       7.822  44.409  20.123  0.00  0.00     0.123 A 
HETATM    6  C   UNK     0       7.239  45.612  20.269  0.00  0.00     0.152 A 
HETATM    7  C   UNK     0       5.846  45.676  20.773  0.00  0.00     0.223 A 
HETATM    8  C   UNK     0       3.891  44.340  21.557  0.00  0.00     0.085 A 
HETATM    9  C   UNK     0       5.328  41.977  21.144  0.00  0.00     0.075 A 
HETATM   10  C   UNK     0       4.020  41.926  21.626  0.00  0.00     0.071 A 
HETATM   11  C   UNK     0       3.304  43.106  21.832  0.00  0.00     0.074 A 
ENDROOT
BRANCH   5  12
HETATM   12  C   UNK     0       9.199  44.252  19.623  0.00  0.00     0.004 A 
HETATM   13  C   UNK     0       9.604  44.923  18.469  0.00  0.00     0.053 A 
HETATM   14  C   UNK     0      10.908  44.775  17.996  0.00  0.00     0.099 A 
HETATM   15  C   UNK     0      11.808  43.956  18.678  0.00  0.00     0.098 A 
HETATM   16  C   UNK     0      11.404  43.285  19.833  0.00  0.00     0.040 A 
HETATM   17  C   UNK     0      10.100  43.433  20.305  0.00  0.00     0.017 A 
BRANCH  14  18
HETATM   18  O   UNK     0      11.291  45.433  16.867  0.00  0.00    -0.358 OA
HETATM   19  H   UNK     0      11.309  44.816  16.117  0.00  0.00     0.217 HD
ENDBRANCH  14  18
BRANCH  15  20
HETATM   20  O   UNK     0      13.085  43.805  18.228  0.00  0.00    -0.358 OA
HETATM   21  H   UNK     0      13.461  44.673  18.014  0.00  0.00     0.217 HD
ENDBRANCH  15  20
ENDBRANCH   5  12
BRANCH   6  22
HETATM   22  O   UNK     0       7.870  46.797  19.958  0.00  0.00    -0.355 OA
HETATM   23  H   UNK     0       7.406  47.539  20.379  0.00  0.00     0.218 HD
ENDBRANCH   6  22
BRANCH   8  24
HETATM   24  O   UNK     0       3.147  45.461  21.774  0.00  0.00    -0.360 OA
HETATM   25  H   UNK     0       2.205  45.276  21.638  0.00  0.00     0.217 HD
ENDBRANCH   8  24
BRANCH  10  26
HETATM   26  O   UNK     0       3.443  40.723  21.896  0.00  0.00    -0.361 OA
HETATM   27  H   UNK     0       3.012  40.392  21.088  0.00  0.00     0.217 HD
ENDBRANCH  10  26
TORSDOF 6
ENDMDL
MODEL 5
REMARK VINA RESULT:    -7.106      1.739      7.153
REMARK INTER + INTRA:          -8.824
REMARK INTER:                  -8.494
REMARK INTRA:                  -0.331
REMARK UNBOUND:                -0.265
REMARK  6 active torsions:
REMARK  status: ('A' for Active; 'I' for Inactive)
REMARK    1  A    between atoms: O_2  and  C_12 
REMARK    2  A    between atoms: O_3  and  C_14 
REMARK    3  A    between atoms: O_5  and  C_16 
REMARK    4  A    between atoms: O_6  and  C_20 
REMARK    5  A    between atoms: O_7  and  C_22 
REMARK    6  A    between atoms: C_10  and  C_11 
ROOT
HETATM    1  O   UNK     0       4.952  44.670  21.386  0.00  0.00    -0.306 OA
HETATM    2  O   UNK     0       8.897  43.700  21.071  0.00  0.00    -0.284 OA
HETATM    3  C   UNK     0       7.179  45.248  20.611  0.00  0.00     0.084 A 
HETATM    4  C   UNK     0       5.819  45.521  20.751  0.00  0.00     0.096 A 
HETATM    5  C   UNK     0       5.453  43.494  21.923  0.00  0.00     0.123 A 
HETATM    6  C   UNK     0       6.740  43.110  21.849  0.00  0.00     0.152 A 
HETATM    7  C   UNK     0       7.714  43.996  21.167  0.00  0.00     0.223 A 
HETATM    8  C   UNK     0       8.015  46.152  19.952  0.00  0.00     0.085 A 
HETATM    9  C   UNK     0       5.287  46.701  20.230  0.00  0.00     0.075 A 
HETATM   10  C   UNK     0       6.120  47.606  19.572  0.00  0.00     0.071 A 
HETATM   11  C   UNK     0       7.481  47.331  19.433  0.00  0.00     0.074 A 
ENDROOT
BRANCH   5  12
HETATM   12  C   UNK     0       4.418  42.674  22.576  0.00  0.00     0.004 A 
HETATM   13  C   UNK     0       3.641  41.798  21.819  0.00  0.00     0.053 A 
HETATM   14  C   UNK     0       2.661  41.021  22.437  0.00  0.00     0.099 A 
HETATM   15  C   UNK     0       2.459  41.120  23.814  0.00  0.00     0.098 A 
HETATM   16  C   UNK     0       3.236  41.996  24.572  0.00  0.00     0.040 A 
HETATM   17  C   UNK     0       4.216  42.773  23.953  0.00  0.00     0.017 A 
BRANCH  14  18
HETATM   18  O   UNK     0       1.906  40.170  21.688  0.00  0.00    -0.358 OA
HETATM   19  H   UNK     0       1.784  40.538  20.797  0.00  0.00     0.217 HD
ENDBRANCH  14  18
BRANCH  15  20
HETATM   20  O   UNK     0       1.507  40.365  24.430  0.00  0.00    -0.358 OA
HETATM   21  H   UNK     0       1.257  39.623  23.858  0.00  0.00     0.217 HD
ENDBRANCH  15  20
ENDBRANCH   5  12
BRANCH   6  22
HETATM   22  O   UNK     0       7.200  41.918  22.366  0.00  0.00    -0.355 OA
HETATM   23  H   UNK     0       8.171  41.922  22.394  0.00  0.00     0.218 HD
ENDBRANCH   6  22
BRANCH   8  24
HETATM   24  O   UNK     0       9.350  45.933  19.789  0.00  0.00    -0.360 OA
HETATM   25  H   UNK     0       9.546  45.698  18.870  0.00  0.00     0.217 HD
ENDBRANCH   8  24
BRANCH  10  26
HETATM   26  O   UNK     0       5.602  48.758  19.063  0.00  0.00    -0.361 OA
HETATM   27  H   UNK     0       6.305  49.238  18.591  0.00  0.00     0.217 HD
ENDBRANCH  10  26
TORSDOF 6
ENDMDL
MODEL 6
REMARK VINA RESULT:    -7.017      4.176      7.841
REMARK INTER + INTRA:          -8.718
REMARK INTER:                  -8.383
REMARK INTRA:                  -0.335
REMARK UNBOUND:                -0.265
REMARK  6 active torsions:
REMARK  status: ('A' for Active; 'I' for Inactive)
REMARK    1  A    between atoms: O_2  and  C_12 
REMARK    2  A    between atoms: O_3  and  C_14 
REMARK    3  A    between atoms: O_5  and  C_16 
REMARK    4  A    between atoms: O_6  and  C_20 
REMARK    5  A    between atoms: O_7  and  C_22 
REMARK    6  A    between atoms: C_10  and  C_11 
ROOT
HETATM    1  O   UNK     0       9.199  43.321  20.667  0.00  0.00    -0.306 OA
HETATM    2  O   UNK     0      10.839  45.185  17.436  0.00  0.00    -0.284 OA
HETATM    3  C   UNK     0      11.126  43.692  19.239  0.00  0.00     0.084 A 
HETATM    4  C   UNK     0      10.507  43.088  20.331  0.00  0.00     0.096 A 
HETATM    5  C   UNK     0       8.457  44.185  19.877  0.00  0.00     0.123 A 
HETATM    6  C   UNK     0       8.937  44.838  18.802  0.00  0.00     0.152 A 
HETATM    7  C   UNK     0      10.349  44.621  18.404  0.00  0.00     0.223 A 
HETATM    8  C   UNK     0      12.464  43.417  18.946  0.00  0.00     0.085 A 
HETATM    9  C   UNK     0      11.225  42.205  21.140  0.00  0.00     0.075 A 
HETATM   10  C   UNK     0      12.561  41.929  20.849  0.00  0.00     0.071 A 
HETATM   11  C   UNK     0      13.179  42.534  19.755  0.00  0.00     0.074 A 
ENDROOT
BRANCH   5  12
HETATM   12  C   UNK     0       7.070  44.346  20.347  0.00  0.00     0.004 A 
HETATM   13  C   UNK     0       6.058  43.543  19.822  0.00  0.00     0.053 A 
HETATM   14  C   UNK     0       4.745  43.695  20.267  0.00  0.00     0.099 A 
HETATM   15  C   UNK     0       4.444  44.652  21.238  0.00  0.00     0.098 A 
HETATM   16  C   UNK     0       5.456  45.454  21.763  0.00  0.00     0.040 A 
HETATM   17  C   UNK     0       6.769  45.302  21.318  0.00  0.00     0.017 A 
BRANCH  14  18
HETATM   18  O   UNK     0       3.764  42.907  19.746  0.00  0.00    -0.358 OA
HETATM   19  H   UNK     0       3.266  43.403  19.075  0.00  0.00     0.217 HD
ENDBRANCH  14  18
BRANCH  15  20
HETATM   20  O   UNK     0       3.165  44.808  21.682  0.00  0.00    -0.358 OA
HETATM   21  H   UNK     0       2.681  45.400  21.085  0.00  0.00     0.217 HD
ENDBRANCH  15  20
ENDBRANCH   5  12
BRANCH   6  22
HETATM   22  O   UNK     0       8.181  45.717  18.057  0.00  0.00    -0.355 OA
HETATM   23  H   UNK     0       7.660  45.228  17.399  0.00  0.00     0.218 HD
ENDBRANCH   6  22
BRANCH   8  24
HETATM   24  O   UNK     0      13.116  43.981  17.890  0.00  0.00    -0.360 OA
HETATM   25  H   UNK     0      12.665  44.790  17.605  0.00  0.00     0.217 HD
ENDBRANCH   8  24
BRANCH  10  26
HETATM   26  O   UNK     0      13.262  41.067  21.637  0.00  0.00    -0.361 OA
HETATM   27  H   UNK     0      13.699  40.407  21.070  0.00  0.00     0.217 HD
ENDBRANCH  10  26
TORSDOF 6
ENDMDL
MODEL 7
REMARK VINA RESULT:    -7.003      2.409      7.202
REMARK INTER + INTRA:          -8.701
REMARK INTER:                  -8.530
REMARK INTRA:                  -0.171
REMARK UNBOUND:                -0.265
REMARK  6 active torsions:
REMARK  status: ('A' for Active; 'I' for Inactive)
REMARK    1  A    between atoms: O_2  and  C_12 
REMARK    2  A    between atoms: O_3  and  C_14 
REMARK    3  A    between atoms: O_5  and  C_16 
REMARK    4  A    between atoms: O_6  and  C_20 
REMARK    5  A    between atoms: O_7  and  C_22 
REMARK    6  A    between atoms: C_10  and  C_11 
ROOT
HETATM    1  O   UNK     0       6.276  43.677  21.256  0.00  0.00    -0.306 OA
HETATM    2  O   UNK     0       8.113  45.832  24.186  0.00  0.00    -0.284 OA
HETATM    3  C   UNK     0       8.061  45.181  21.919  0.00  0.00     0.084 A 
HETATM    4  C   UNK     0       7.388  44.423  20.964  0.00  0.00     0.096 A 
HETATM    5  C   UNK     0       5.793  43.689  22.555  0.00  0.00     0.123 A 
HETATM    6  C   UNK     0       6.353  44.371  23.570  0.00  0.00     0.152 A 
HETATM    7  C   UNK     0       7.561  45.189  23.303  0.00  0.00     0.223 A 
HETATM    8  C   UNK     0       9.191  45.922  21.564  0.00  0.00     0.085 A 
HETATM    9  C   UNK     0       7.844  44.398  19.645  0.00  0.00     0.075 A 
HETATM   10  C   UNK     0       8.972  45.136  19.287  0.00  0.00     0.071 A 
HETATM   11  C   UNK     0       9.644  45.896  20.245  0.00  0.00     0.074 A 
ENDROOT
BRANCH   5  12
HETATM   12  C   UNK     0       4.596  42.848  22.732  0.00  0.00     0.004 A 
HETATM   13  C   UNK     0       3.406  43.183  22.087  0.00  0.00     0.053 A 
HETATM   14  C   UNK     0       2.273  42.386  22.254  0.00  0.00     0.099 A 
HETATM   15  C   UNK     0       2.331  41.254  23.067  0.00  0.00     0.098 A 
HETATM   16  C   UNK     0       3.522  40.918  23.711  0.00  0.00     0.040 A 
HETATM   17  C   UNK     0       4.654  41.715  23.544  0.00  0.00     0.017 A 
BRANCH  14  18
HETATM   18  O   UNK     0       1.115  42.724  21.621  0.00  0.00    -0.358 OA
HETATM   19  H   UNK     0       1.095  42.323  20.737  0.00  0.00     0.217 HD
ENDBRANCH  14  18
BRANCH  15  20
HETATM   20  O   UNK     0       1.232  40.466  23.236  0.00  0.00    -0.358 OA
HETATM   21  H   UNK     0       1.033  40.000  22.409  0.00  0.00     0.217 HD
ENDBRANCH  15  20
ENDBRANCH   5  12
BRANCH   6  22
HETATM   22  O   UNK     0       5.867  44.337  24.859  0.00  0.00    -0.355 OA
HETATM   23  H   UNK     0       5.605  45.229  25.138  0.00  0.00     0.218 HD
ENDBRANCH   6  22
BRANCH   8  24
HETATM   24  O   UNK     0       9.884  46.680  22.459  0.00  0.00    -0.360 OA
HETATM   25  H   UNK     0      10.807  46.388  22.510  0.00  0.00     0.217 HD
ENDBRANCH   8  24
BRANCH  10  26
HETATM   26  O   UNK     0       9.417  45.113  18.000  0.00  0.00    -0.361 OA
HETATM   27  H   UNK     0      10.361  45.351  17.990  0.00  0.00     0.217 HD
ENDBRANCH  10  26
TORSDOF 6
ENDMDL
MODEL 8
REMARK VINA RESULT:    -6.964      1.553      6.689
REMARK INTER + INTRA:          -8.654
REMARK INTER:                  -9.061
REMARK INTRA:                   0.407
REMARK UNBOUND:                -0.265
REMARK  6 active torsions:
REMARK  status: ('A' for Active; 'I' for Inactive)
REMARK    1  A    between atoms: O_2  and  C_12 
REMARK    2  A    between atoms: O_3  and  C_14 
REMARK    3  A    between atoms: O_5  and  C_16 
REMARK    4  A    between atoms: O_6  and  C_20 
REMARK    5  A    between atoms: O_7  and  C_22 
REMARK    6  A    between atoms: C_10  and  C_11 
ROOT
HETATM    1  O   UNK     0       5.719  44.226  22.368  0.00  0.00    -0.306 OA
HETATM    2  O   UNK     0       3.980  43.245  18.816  0.00  0.00    -0.284 OA
HETATM    3  C   UNK     0       5.685  44.415  19.948  0.00  0.00     0.084 A 
HETATM    4  C   UNK     0       6.233  44.714  21.195  0.00  0.00     0.096 A 
HETATM    5  C   UNK     0       4.616  43.388  22.310  0.00  0.00     0.123 A 
HETATM    6  C   UNK     0       3.990  43.030  21.174  0.00  0.00     0.152 A 
HETATM    7  C   UNK     0       4.507  43.538  19.881  0.00  0.00     0.223 A 
HETATM    8  C   UNK     0       6.251  44.944  18.785  0.00  0.00     0.085 A 
HETATM    9  C   UNK     0       7.349  45.546  21.285  0.00  0.00     0.075 A 
HETATM   10  C   UNK     0       7.916  46.075  20.125  0.00  0.00     0.071 A 
HETATM   11  C   UNK     0       7.367  45.774  18.878  0.00  0.00     0.074 A 
ENDROOT
BRANCH   5  12
HETATM   12  C   UNK     0       4.168  42.935  23.638  0.00  0.00     0.004 A 
HETATM   13  C   UNK     0       3.295  41.853  23.749  0.00  0.00     0.053 A 
HETATM   14  C   UNK     0       2.871  41.424  25.006  0.00  0.00     0.099 A 
HETATM   15  C   UNK     0       3.319  42.079  26.154  0.00  0.00     0.098 A 
HETATM   16  C   UNK     0       4.192  43.161  26.044  0.00  0.00     0.040 A 
HETATM   17  C   UNK     0       4.616  43.589  24.786  0.00  0.00     0.017 A 
BRANCH  14  18
HETATM   18  O   UNK     0       2.018  40.367  25.102  0.00  0.00    -0.358 OA
HETATM   19  H   UNK     0       1.318  40.567  25.745  0.00  0.00     0.217 HD
ENDBRANCH  14  18
BRANCH  15  20
HETATM   20  O   UNK     0       2.914  41.668  27.388  0.00  0.00    -0.358 OA
HETATM   21  H   UNK     0       3.042  40.710  27.473  0.00  0.00     0.217 HD
ENDBRANCH  15  20
ENDBRANCH   5  12
BRANCH   6  22
HETATM   22  O   UNK     0       2.874  42.221  21.153  0.00  0.00    -0.355 OA
HETATM   23  H   UNK     0       2.414  42.315  20.303  0.00  0.00     0.218 HD
ENDBRANCH   6  22
BRANCH   8  24
HETATM   24  O   UNK     0       5.755  44.683  17.543  0.00  0.00    -0.360 OA
HETATM   25  H   UNK     0       4.925  45.163  17.400  0.00  0.00     0.217 HD
ENDBRANCH   8  24
BRANCH  10  26
HETATM   26  O   UNK     0       9.006  46.887  20.212  0.00  0.00    -0.361 OA
HETATM   27  H   UNK     0       9.197  47.057  21.151  0.00  0.00     0.217 HD
ENDBRANCH  10  26
TORSDOF 6
ENDMDL
MODEL 9
REMARK VINA RESULT:    -6.921     28.607     30.632
REMARK INTER + INTRA:          -8.602
REMARK INTER:                  -8.337
REMARK INTRA:                  -0.265
REMARK UNBOUND:                -0.265
REMARK  6 active torsions:
REMARK  status: ('A' for Active; 'I' for Inactive)
REMARK    1  A    between atoms: O_2  and  C_12 
REMARK    2  A    between atoms: O_3  and  C_14 
REMARK    3  A    between atoms: O_5  and  C_16 
REMARK    4  A    between atoms: O_6  and  C_20 
REMARK    5  A    between atoms: O_7  and  C_22 
REMARK    6  A    between atoms: C_10  and  C_11 
ROOT
HETATM    1  O   UNK     0      16.964  68.582   8.997  0.00  0.00    -0.306 OA
HETATM    2  O   UNK     0      17.555  64.898  10.634  0.00  0.00    -0.284 OA
HETATM    3  C   UNK     0      18.379  67.078  10.273  0.00  0.00     0.084 A 
HETATM    4  C   UNK     0      18.117  68.316   9.689  0.00  0.00     0.096 A 
HETATM    5  C   UNK     0      16.013  67.580   8.886  0.00  0.00     0.123 A 
HETATM    6  C   UNK     0      16.146  66.342   9.395  0.00  0.00     0.152 A 
HETATM    7  C   UNK     0      17.379  66.006  10.147  0.00  0.00     0.223 A 
HETATM    8  C   UNK     0      19.573  66.864  10.965  0.00  0.00     0.085 A 
HETATM    9  C   UNK     0      19.051  69.348   9.792  0.00  0.00     0.075 A 
HETATM   10  C   UNK     0      20.244  69.136  10.483  0.00  0.00     0.071 A 
HETATM   11  C   UNK     0      20.504  67.897  11.068  0.00  0.00     0.074 A 
ENDROOT
BRANCH   5  12
HETATM   12  C   UNK     0      14.825  67.998   8.120  0.00  0.00     0.004 A 
HETATM   13  C   UNK     0      13.882  68.845   8.702  0.00  0.00     0.053 A 
HETATM   14  C   UNK     0      12.758  69.241   7.977  0.00  0.00     0.099 A 
HETATM   15  C   UNK     0      12.577  68.788   6.670  0.00  0.00     0.098 A 
HETATM   16  C   UNK     0      13.520  67.941   6.088  0.00  0.00     0.040 A 
HETATM   17  C   UNK     0      14.644  67.546   6.813  0.00  0.00     0.017 A 
BRANCH  14  18
HETATM   18  O   UNK     0      11.842  70.067   8.555  0.00  0.00    -0.358 OA
HETATM   19  H   UNK     0      10.972  69.636   8.565  0.00  0.00     0.217 HD
ENDBRANCH  14  18
BRANCH  15  20
HETATM   20  O   UNK     0      11.484  69.169   5.951  0.00  0.00    -0.358 OA
HETATM   21  H   UNK     0      11.292  70.105   6.117  0.00  0.00     0.217 HD
ENDBRANCH  15  20
ENDBRANCH   5  12
BRANCH   6  22
HETATM   22  O   UNK     0      15.194  65.357   9.238  0.00  0.00    -0.355 OA
HETATM   23  H   UNK     0      14.568  65.383   9.980  0.00  0.00     0.218 HD
ENDBRANCH   6  22
BRANCH   8  24
HETATM   24  O   UNK     0      19.877  65.673  11.554  0.00  0.00    -0.360 OA
HETATM   25  H   UNK     0      20.708  65.321  11.200  0.00  0.00     0.217 HD
ENDBRANCH   8  24
BRANCH  10  26
HETATM   26  O   UNK     0      21.156  70.143  10.586  0.00  0.00    -0.361 OA
HETATM   27  H   UNK     0      21.875  69.858  11.176  0.00  0.00     0.217 HD
ENDBRANCH  10  26
TORSDOF 6
ENDMDL
