MODEL 1
REMARK VINA RESULT:      -6.2      0.000      0.000
REMARK  5 active torsions:
REMARK  status: ('A' for Active; 'I' for Inactive)
REMARK    1  A    between atoms: C_3  and  O_1 
REMARK    2  A    between atoms: C_4  and  O_14 
REMARK    3  A    between atoms: C_7  and  C_8 
REMARK    4  A    between atoms: C_9  and  C_10 
REMARK    5  A    between atoms: C_10  and  O_12 
ROOT
ATOM      1  C   LIG     1      71.822  38.034  31.465  0.00  0.00     0.162 A 
ATOM      2  C   LIG     1      72.334  39.300  31.178  0.00  0.00     0.158 A 
ATOM      3  C   LIG     1      73.712  39.514  31.196  0.00  0.00     0.050 A 
ATOM      4  C   LIG     1      74.578  38.464  31.501  0.00  0.00     0.012 A 
ATOM      5  C   LIG     1      74.066  37.199  31.788  0.00  0.00    -0.021 A 
ATOM      6  C   LIG     1      72.688  36.983  31.770  0.00  0.00     0.057 A 
ENDROOT
BRANCH   5   7
ATOM      7  C   LIG     1      74.969  36.104  32.105  0.00  0.00     0.015 C 
ATOM      8  C   LIG     1      74.790  35.207  33.100  0.00  0.00     0.092 C 
BRANCH   8   9
ATOM      9  C   LIG     1      75.779  34.131  33.314  0.00  0.00     0.330 C 
ATOM     10  O   LIG     1      75.738  33.270  34.177  0.00  0.00    -0.246 OA
BRANCH   9  11
ATOM     11  O   LIG     1      76.756  34.249  32.385  0.00  0.00    -0.478 OA
ATOM     12  H   LIG     1      77.362  33.478  32.389  0.00  0.00     0.295 HD
ENDBRANCH   9  11
ENDBRANCH   8   9
ENDBRANCH   5   7
BRANCH   1  13
ATOM     13  O   LIG     1      70.477  37.812  31.452  0.00  0.00    -0.491 OA
ATOM     14  C   LIG     1      70.038  36.483  31.727  0.00  0.00     0.277 C 
ENDBRANCH   1  13
BRANCH   2  15
ATOM     15  O   LIG     1      71.499  40.333  30.880  0.00  0.00    -0.503 OA
ATOM     16  H   LIG     1      71.271  40.803  31.701  0.00  0.00     0.292 HD
ENDBRANCH   2  15
TORSDOF 5
ENDMDL
MODEL 2
REMARK VINA RESULT:      -6.2     24.159     25.888
REMARK  5 active torsions:
REMARK  status: ('A' for Active; 'I' for Inactive)
REMARK    1  A    between atoms: C_3  and  O_1 
REMARK    2  A    between atoms: C_4  and  O_14 
REMARK    3  A    between atoms: C_7  and  C_8 
REMARK    4  A    between atoms: C_9  and  C_10 
REMARK    5  A    between atoms: C_10  and  O_12 
ROOT
ATOM      1  C   LIG     1      56.492  17.801  26.936  0.00  0.00     0.162 A 
ATOM      2  C   LIG     1      55.701  16.675  27.163  0.00  0.00     0.158 A 
ATOM      3  C   LIG     1      56.281  15.406  27.171  0.00  0.00     0.050 A 
ATOM      4  C   LIG     1      57.652  15.264  26.952  0.00  0.00     0.012 A 
ATOM      5  C   LIG     1      58.441  16.390  26.725  0.00  0.00    -0.021 A 
ATOM      6  C   LIG     1      57.863  17.659  26.717  0.00  0.00     0.057 A 
ENDROOT
BRANCH   5   7
ATOM      7  C   LIG     1      59.870  16.242  26.498  0.00  0.00     0.015 C 
ATOM      8  C   LIG     1      60.548  16.728  25.435  0.00  0.00     0.092 C 
BRANCH   8   9
ATOM      9  C   LIG     1      62.005  16.518  25.326  0.00  0.00     0.330 C 
ATOM     10  O   LIG     1      62.768  17.104  24.575  0.00  0.00    -0.246 OA
BRANCH   9  11
ATOM     11  O   LIG     1      62.372  15.556  26.205  0.00  0.00    -0.478 OA
ATOM     12  H   LIG     1      62.106  15.777  27.122  0.00  0.00     0.295 HD
ENDBRANCH   9  11
ENDBRANCH   8   9
ENDBRANCH   5   7
BRANCH   1  13
ATOM     13  O   LIG     1      55.937  19.046  26.924  0.00  0.00    -0.491 OA
ATOM     14  C   LIG     1      56.834  20.155  26.909  0.00  0.00     0.277 C 
ENDBRANCH   1  13
BRANCH   2  15
ATOM     15  O   LIG     1      54.362  16.801  27.376  0.00  0.00    -0.503 OA
ATOM     16  H   LIG     1      54.216  17.412  28.119  0.00  0.00     0.292 HD
ENDBRANCH   2  15
TORSDOF 5
ENDMDL
MODEL 3
REMARK VINA RESULT:      -6.1     18.652     19.704
REMARK  5 active torsions:
REMARK  status: ('A' for Active; 'I' for Inactive)
REMARK    1  A    between atoms: C_3  and  O_1 
REMARK    2  A    between atoms: C_4  and  O_14 
REMARK    3  A    between atoms: C_7  and  C_8 
REMARK    4  A    between atoms: C_9  and  C_10 
REMARK    5  A    between atoms: C_10  and  O_12 
ROOT
ATOM      1  C   LIG     1      80.112  28.768  15.186  0.00  0.00     0.162 A 
ATOM      2  C   LIG     1      81.328  28.131  15.432  0.00  0.00     0.158 A 
ATOM      3  C   LIG     1      81.349  26.895  16.077  0.00  0.00     0.050 A 
ATOM      4  C   LIG     1      80.154  26.296  16.476  0.00  0.00     0.012 A 
ATOM      5  C   LIG     1      78.939  26.933  16.231  0.00  0.00    -0.021 A 
ATOM      6  C   LIG     1      78.917  28.169  15.585  0.00  0.00     0.057 A 
ENDROOT
BRANCH   5   7
ATOM      7  C   LIG     1      77.693  26.308  16.646  0.00  0.00     0.015 C 
ATOM      8  C   LIG     1      77.516  25.596  17.782  0.00  0.00     0.092 C 
BRANCH   8   9
ATOM      9  C   LIG     1      76.194  25.019  18.095  0.00  0.00     0.330 C 
ATOM     10  O   LIG     1      75.160  25.194  17.471  0.00  0.00    -0.246 OA
BRANCH   9  11
ATOM     11  O   LIG     1      76.308  24.250  19.203  0.00  0.00    -0.478 OA
ATOM     12  H   LIG     1      76.924  24.640  19.859  0.00  0.00     0.295 HD
ENDBRANCH   9  11
ENDBRANCH   8   9
ENDBRANCH   5   7
BRANCH   1  13
ATOM     13  O   LIG     1      80.079  29.977  14.557  0.00  0.00    -0.491 OA
ATOM     14  C   LIG     1      78.837  30.679  14.570  0.00  0.00     0.277 C 
ENDBRANCH   1  13
BRANCH   2  15
ATOM     15  O   LIG     1      82.502  28.706  15.047  0.00  0.00    -0.503 OA
ATOM     16  H   LIG     1      82.972  28.098  14.450  0.00  0.00     0.292 HD
ENDBRANCH   2  15
TORSDOF 5
ENDMDL
MODEL 4
REMARK VINA RESULT:      -5.9     18.601     18.872
REMARK  5 active torsions:
REMARK  status: ('A' for Active; 'I' for Inactive)
REMARK    1  A    between atoms: C_3  and  O_1 
REMARK    2  A    between atoms: C_4  and  O_14 
REMARK    3  A    between atoms: C_7  and  C_8 
REMARK    4  A    between atoms: C_9  and  C_10 
REMARK    5  A    between atoms: C_10  and  O_12 
ROOT
ATOM      1  C   LIG     1      75.569  32.972  14.020  0.00  0.00     0.162 A 
ATOM      2  C   LIG     1      76.271  33.890  13.237  0.00  0.00     0.158 A 
ATOM      3  C   LIG     1      77.631  33.702  12.993  0.00  0.00     0.050 A 
ATOM      4  C   LIG     1      78.290  32.597  13.532  0.00  0.00     0.012 A 
ATOM      5  C   LIG     1      77.590  31.681  14.315  0.00  0.00    -0.021 A 
ATOM      6  C   LIG     1      76.229  31.867  14.559  0.00  0.00     0.057 A 
ENDROOT
BRANCH   5   7
ATOM      7  C   LIG     1      78.277  30.528  14.876  0.00  0.00     0.015 C 
ATOM      8  C   LIG     1      79.517  30.113  14.532  0.00  0.00     0.092 C 
BRANCH   8   9
ATOM      9  C   LIG     1      80.109  28.930  15.186  0.00  0.00     0.330 C 
ATOM     10  O   LIG     1      79.507  28.057  15.789  0.00  0.00    -0.246 OA
BRANCH   9  11
ATOM     11  O   LIG     1      81.451  28.961  15.008  0.00  0.00    -0.478 OA
ATOM     12  H   LIG     1      81.694  29.205  14.090  0.00  0.00     0.295 HD
ENDBRANCH   9  11
ENDBRANCH   8   9
ENDBRANCH   5   7
BRANCH   1  13
ATOM     13  O   LIG     1      74.241  33.146  14.267  0.00  0.00    -0.491 OA
ATOM     14  C   LIG     1      73.706  32.497  15.419  0.00  0.00     0.277 C 
ENDBRANCH   1  13
BRANCH   2  15
ATOM     15  O   LIG     1      75.638  34.973  12.706  0.00  0.00    -0.503 OA
ATOM     16  H   LIG     1      74.765  34.699  12.375  0.00  0.00     0.292 HD
ENDBRANCH   2  15
TORSDOF 5
ENDMDL
MODEL 5
REMARK VINA RESULT:      -5.8     18.033     18.794
REMARK  5 active torsions:
REMARK  status: ('A' for Active; 'I' for Inactive)
REMARK    1  A    between atoms: C_3  and  O_1 
REMARK    2  A    between atoms: C_4  and  O_14 
REMARK    3  A    between atoms: C_7  and  C_8 
REMARK    4  A    between atoms: C_9  and  C_10 
REMARK    5  A    between atoms: C_10  and  O_12 
ROOT
ATOM      1  C   LIG     1      75.857  33.325  13.214  0.00  0.00     0.162 A 
ATOM      2  C   LIG     1      76.916  32.685  13.859  0.00  0.00     0.158 A 
ATOM      3  C   LIG     1      76.691  31.993  15.049  0.00  0.00     0.050 A 
ATOM      4  C   LIG     1      75.408  31.941  15.594  0.00  0.00     0.012 A 
ATOM      5  C   LIG     1      74.350  32.580  14.949  0.00  0.00    -0.021 A 
ATOM      6  C   LIG     1      74.574  33.273  13.759  0.00  0.00     0.057 A 
ENDROOT
BRANCH   5   7
ATOM      7  C   LIG     1      73.012  32.525  15.517  0.00  0.00     0.015 C 
ATOM      8  C   LIG     1      71.860  32.580  14.812  0.00  0.00     0.092 C 
BRANCH   8   9
ATOM      9  C   LIG     1      70.561  32.504  15.509  0.00  0.00     0.330 C 
ATOM     10  O   LIG     1      69.495  32.937  15.104  0.00  0.00    -0.246 OA
BRANCH   9  11
ATOM     11  O   LIG     1      70.738  31.865  16.689  0.00  0.00    -0.478 OA
ATOM     12  H   LIG     1      71.586  32.110  17.115  0.00  0.00     0.295 HD
ENDBRANCH   9  11
ENDBRANCH   8   9
ENDBRANCH   5   7
BRANCH   1  13
ATOM     13  O   LIG     1      76.064  34.005  12.052  0.00  0.00    -0.491 OA
ATOM     14  C   LIG     1      75.133  35.036  11.730  0.00  0.00     0.277 C 
ENDBRANCH   1  13
BRANCH   2  15
ATOM     15  O   LIG     1      78.173  32.730  13.337  0.00  0.00    -0.503 OA
ATOM     16  H   LIG     1      78.730  32.077  13.796  0.00  0.00     0.292 HD
ENDBRANCH   2  15
TORSDOF 5
ENDMDL
MODEL 6
REMARK VINA RESULT:      -5.8     22.915     25.299
REMARK  5 active torsions:
REMARK  status: ('A' for Active; 'I' for Inactive)
REMARK    1  A    between atoms: C_3  and  O_1 
REMARK    2  A    between atoms: C_4  and  O_14 
REMARK    3  A    between atoms: C_7  and  C_8 
REMARK    4  A    between atoms: C_9  and  C_10 
REMARK    5  A    between atoms: C_10  and  O_12 
ROOT
ATOM      1  C   LIG     1      58.102  15.808  27.727  0.00  0.00     0.162 A 
ATOM      2  C   LIG     1      59.122  15.979  26.791  0.00  0.00     0.158 A 
ATOM      3  C   LIG     1      59.606  17.257  26.513  0.00  0.00     0.050 A 
ATOM      4  C   LIG     1      59.071  18.365  27.171  0.00  0.00     0.012 A 
ATOM      5  C   LIG     1      58.052  18.194  28.106  0.00  0.00    -0.021 A 
ATOM      6  C   LIG     1      57.567  16.916  28.385  0.00  0.00     0.057 A 
ENDROOT
BRANCH   5   7
ATOM      7  C   LIG     1      57.494  19.348  28.793  0.00  0.00     0.015 C 
ATOM      8  C   LIG     1      58.167  20.483  29.088  0.00  0.00     0.092 C 
BRANCH   8   9
ATOM      9  C   LIG     1      57.482  21.591  29.782  0.00  0.00     0.330 C 
ATOM     10  O   LIG     1      58.014  22.545  30.326  0.00  0.00    -0.246 OA
BRANCH   9  11
ATOM     11  O   LIG     1      56.146  21.382  29.720  0.00  0.00    -0.478 OA
ATOM     12  H   LIG     1      55.749  21.281  30.611  0.00  0.00     0.295 HD
ENDBRANCH   9  11
ENDBRANCH   8   9
ENDBRANCH   5   7
BRANCH   1  13
ATOM     13  O   LIG     1      57.620  14.565  28.007  0.00  0.00    -0.491 OA
ATOM     14  C   LIG     1      56.207  14.386  27.930  0.00  0.00     0.277 C 
ENDBRANCH   1  13
BRANCH   2  15
ATOM     15  O   LIG     1      59.652  14.905  26.141  0.00  0.00    -0.503 OA
ATOM     16  H   LIG     1      59.422  14.961  25.197  0.00  0.00     0.292 HD
ENDBRANCH   2  15
TORSDOF 5
ENDMDL
MODEL 7
REMARK VINA RESULT:      -5.8     18.181     18.924
REMARK  5 active torsions:
REMARK  status: ('A' for Active; 'I' for Inactive)
REMARK    1  A    between atoms: C_3  and  O_1 
REMARK    2  A    between atoms: C_4  and  O_14 
REMARK    3  A    between atoms: C_7  and  C_8 
REMARK    4  A    between atoms: C_9  and  C_10 
REMARK    5  A    between atoms: C_10  and  O_12 
ROOT
ATOM      1  C   LIG     1      76.213  33.101  13.700  0.00  0.00     0.162 A 
ATOM      2  C   LIG     1      76.229  34.246  12.903  0.00  0.00     0.158 A 
ATOM      3  C   LIG     1      75.032  34.876  12.563  0.00  0.00     0.050 A 
ATOM      4  C   LIG     1      73.819  34.361  13.020  0.00  0.00     0.012 A 
ATOM      5  C   LIG     1      73.803  33.217  13.816  0.00  0.00    -0.021 A 
ATOM      6  C   LIG     1      74.999  32.587  14.157  0.00  0.00     0.057 A 
ENDROOT
BRANCH   5   7
ATOM      7  C   LIG     1      72.538  32.681  14.293  0.00  0.00     0.015 C 
ATOM      8  C   LIG     1      71.662  33.334  15.090  0.00  0.00     0.092 C 
BRANCH   8   9
ATOM      9  C   LIG     1      70.403  32.681  15.498  0.00  0.00     0.330 C 
ATOM     10  O   LIG     1      69.569  33.130  16.267  0.00  0.00    -0.246 OA
BRANCH   9  11
ATOM     11  O   LIG     1      70.312  31.484  14.873  0.00  0.00    -0.478 OA
ATOM     12  H   LIG     1      70.727  30.765  15.395  0.00  0.00     0.295 HD
ENDBRANCH   9  11
ENDBRANCH   8   9
ENDBRANCH   5   7
BRANCH   1  13
ATOM     13  O   LIG     1      77.376  32.476  14.038  0.00  0.00    -0.491 OA
ATOM     14  C   LIG     1      77.303  31.481  15.057  0.00  0.00     0.277 C 
ENDBRANCH   1  13
BRANCH   2  15
ATOM     15  O   LIG     1      77.408  34.757  12.450  0.00  0.00    -0.503 OA
ATOM     16  H   LIG     1      78.141  34.338  12.932  0.00  0.00     0.292 HD
ENDBRANCH   2  15
TORSDOF 5
ENDMDL
MODEL 8
REMARK VINA RESULT:      -5.6      2.664      5.540
REMARK  5 active torsions:
REMARK  status: ('A' for Active; 'I' for Inactive)
REMARK    1  A    between atoms: C_3  and  O_1 
REMARK    2  A    between atoms: C_4  and  O_14 
REMARK    3  A    between atoms: C_7  and  C_8 
REMARK    4  A    between atoms: C_9  and  C_10 
REMARK    5  A    between atoms: C_10  and  O_12 
ROOT
ATOM      1  C   LIG     1      74.411  37.538  30.998  0.00  0.00     0.162 A 
ATOM      2  C   LIG     1      74.788  36.584  31.944  0.00  0.00     0.158 A 
ATOM      3  C   LIG     1      74.034  35.422  32.101  0.00  0.00     0.050 A 
ATOM      4  C   LIG     1      72.901  35.213  31.314  0.00  0.00     0.012 A 
ATOM      5  C   LIG     1      72.524  36.166  30.369  0.00  0.00    -0.021 A 
ATOM      6  C   LIG     1      73.278  37.329  30.210  0.00  0.00     0.057 A 
ENDROOT
BRANCH   5   7
ATOM      7  C   LIG     1      71.345  35.948  29.547  0.00  0.00     0.015 C 
ATOM      8  C   LIG     1      70.335  35.097  29.837  0.00  0.00     0.092 C 
BRANCH   8   9
ATOM      9  C   LIG     1      69.184  34.974  28.922  0.00  0.00     0.330 C 
ATOM     10  O   LIG     1      68.766  33.944  28.417  0.00  0.00    -0.246 OA
BRANCH   9  11
ATOM     11  O   LIG     1      68.651  36.203  28.726  0.00  0.00    -0.478 OA
ATOM     12  H   LIG     1      69.217  36.761  28.151  0.00  0.00     0.295 HD
ENDBRANCH   9  11
ENDBRANCH   8   9
ENDBRANCH   5   7
BRANCH   1  13
ATOM     13  O   LIG     1      75.139  38.678  30.836  0.00  0.00    -0.491 OA
ATOM     14  C   LIG     1      74.414  39.877  30.569  0.00  0.00     0.277 C 
ENDBRANCH   1  13
BRANCH   2  15
ATOM     15  O   LIG     1      75.891  36.778  32.720  0.00  0.00    -0.503 OA
ATOM     16  H   LIG     1      75.743  37.550  33.293  0.00  0.00     0.292 HD
ENDBRANCH   2  15
TORSDOF 5
ENDMDL
MODEL 9
REMARK VINA RESULT:      -5.5      2.983      3.942
REMARK  5 active torsions:
REMARK  status: ('A' for Active; 'I' for Inactive)
REMARK    1  A    between atoms: C_3  and  O_1 
REMARK    2  A    between atoms: C_4  and  O_14 
REMARK    3  A    between atoms: C_7  and  C_8 
REMARK    4  A    between atoms: C_9  and  C_10 
REMARK    5  A    between atoms: C_10  and  O_12 
ROOT
ATOM      1  C   LIG     1      73.939  37.567  29.316  0.00  0.00     0.162 A 
ATOM      2  C   LIG     1      72.860  37.582  28.432  0.00  0.00     0.158 A 
ATOM      3  C   LIG     1      71.755  36.764  28.666  0.00  0.00     0.050 A 
ATOM      4  C   LIG     1      71.729  35.930  29.785  0.00  0.00     0.012 A 
ATOM      5  C   LIG     1      72.807  35.916  30.668  0.00  0.00    -0.021 A 
ATOM      6  C   LIG     1      73.913  36.734  30.435  0.00  0.00     0.057 A 
ENDROOT
BRANCH   5   7
ATOM      7  C   LIG     1      72.780  35.048  31.835  0.00  0.00     0.015 C 
ATOM      8  C   LIG     1      72.208  35.350  33.022  0.00  0.00     0.092 C 
BRANCH   8   9
ATOM      9  C   LIG     1      72.239  34.375  34.129  0.00  0.00     0.330 C 
ATOM     10  O   LIG     1      73.236  33.897  34.646  0.00  0.00    -0.246 OA
BRANCH   9  11
ATOM     11  O   LIG     1      70.967  34.088  34.492  0.00  0.00    -0.478 OA
ATOM     12  H   LIG     1      70.534  33.476  33.859  0.00  0.00     0.295 HD
ENDBRANCH   9  11
ENDBRANCH   8   9
ENDBRANCH   5   7
BRANCH   1  13
ATOM     13  O   LIG     1      75.024  38.362  29.097  0.00  0.00    -0.491 OA
ATOM     14  C   LIG     1      75.048  39.623  29.762  0.00  0.00     0.277 C 
ENDBRANCH   1  13
BRANCH   2  15
ATOM     15  O   LIG     1      72.874  38.390  27.335  0.00  0.00    -0.503 OA
ATOM     16  H   LIG     1      72.436  39.231  27.556  0.00  0.00     0.292 HD
ENDBRANCH   2  15
TORSDOF 5
ENDMDL
