MODEL 1
REMARK VINA RESULT:    -9.808      0.000      0.000
REMARK INTER + INTRA:         -14.126
REMARK INTER:                 -13.821
REMARK INTRA:                  -0.305
REMARK UNBOUND:                -0.305
REMARK  Name = 341
REMARK  10 active torsions:
REMARK  status: ('A' for Active; 'I' for Inactive)
REMARK    1  A    between atoms: O_1  and  C_10
REMARK    2  A    between atoms: O_1  and  C_19
REMARK    3  A    between atoms: O_2  and  C_12
REMARK    4  A    between atoms: O_3  and  C_15
REMARK    5  A    between atoms: O_4  and  C_20
REMARK    6  A    between atoms: O_5  and  C_21
REMARK    7  A    between atoms: O_6  and  C_22
REMARK    8  A    between atoms: O_8  and  C_23
REMARK    9  A    between atoms: C_11  and  C_19
REMARK   10  A    between atoms: C_13  and  C_23
REMARK                            x       y       z     vdW  Elec       q    Type
REMARK                         _______ _______ _______ _____ _____    ______ ____
ROOT
ATOM      1  O   UNL     1      82.573  86.793 101.932  0.00  0.00    +0.000 OA
ENDROOT
BRANCH   1   2
ATOM      2  C   UNL     1      81.995  85.529 101.794  0.00  0.00    +0.000 A 
ATOM      3  C   UNL     1      80.708  85.424 101.311  0.00  0.00    +0.000 A 
ATOM      4  C   UNL     1      82.179  83.160 102.011  0.00  0.00    +0.000 A 
ATOM      5  C   UNL     1      82.745  84.428 102.147  0.00  0.00    +0.000 A 
ATOM      6  C   UNL     1      80.143  84.156 101.176  0.00  0.00    +0.000 A 
ATOM      7  C   UNL     1      80.878  83.024 101.526  0.00  0.00    +0.000 A 
BRANCH   3   8
ATOM      8  O   UNL     1      79.990  86.532 100.970  0.00  0.00    +0.000 OA
ATOM      9  H   UNL     1      80.467  87.317 101.289  0.00  0.00    +0.000 HD
ENDBRANCH   3   8
BRANCH   6  10
ATOM     10  O   UNL     1      78.875  84.011 100.700  0.00  0.00    +0.000 OA
ATOM     11  H   UNL     1      78.333  84.757 101.011  0.00  0.00    +0.000 HD
ENDBRANCH   6  10
BRANCH   4  13
ATOM     12  O   UNL     1      83.373  81.131 101.581  0.00  0.00    +0.000 OA
ATOM     13  C   UNL     1      82.947  81.979 102.373  0.00  0.00    +0.000 C 
BRANCH  13  14
ATOM     14  O   UNL     1      83.163  81.889 103.713  0.00  0.00    +0.000 OA
ATOM     15  H   UNL     1      82.475  82.363 104.228  0.00  0.00    +0.000 HD
ENDBRANCH  13  14
ENDBRANCH   4  13
ENDBRANCH   1   2
BRANCH   1  17
ATOM     16  O   UNL     1      84.273  86.288 100.419  0.00  0.00    +0.000 OA
ATOM     17  C   UNL     1      83.504  87.105 100.944  0.00  0.00    +0.000 C 
BRANCH  17  18
ATOM     18  C   UNL     1      83.449  88.518 100.603  0.00  0.00    +0.000 A 
ATOM     19  C   UNL     1      84.535  89.346 100.882  0.00  0.00    +0.000 A 
ATOM     20  C   UNL     1      82.307  89.046  99.998  0.00  0.00    +0.000 A 
ATOM     21  C   UNL     1      82.253  90.401  99.674  0.00  0.00    +0.000 A 
ATOM     22  C   UNL     1      84.482  90.702 100.557  0.00  0.00    +0.000 A 
ATOM     23  C   UNL     1      83.340  91.229  99.953  0.00  0.00    +0.000 A 
BRANCH  21  24
ATOM     24  O   UNL     1      81.132  90.904  99.086  0.00  0.00    +0.000 OA
ATOM     25  H   UNL     1      80.367  90.387  99.394  0.00  0.00    +0.000 HD
ENDBRANCH  21  24
BRANCH  22  26
ATOM     26  O   UNL     1      85.549  91.500 100.838  0.00  0.00    +0.000 OA
ATOM     27  H   UNL     1      85.233  92.405 101.006  0.00  0.00    +0.000 HD
ENDBRANCH  22  26
BRANCH  23  28
ATOM     28  O   UNL     1      83.288  92.554  99.636  0.00  0.00    +0.000 OA
ATOM     29  H   UNL     1      83.703  93.059 100.356  0.00  0.00    +0.000 HD
ENDBRANCH  23  28
ENDBRANCH  17  18
ENDBRANCH   1  17
TORSDOF 10
ENDMDL
MODEL 2
REMARK VINA RESULT:    -9.740      1.873      3.159
REMARK INTER + INTRA:         -14.031
REMARK INTER:                 -13.489
REMARK INTRA:                  -0.542
REMARK UNBOUND:                -0.305
REMARK  Name = 341
REMARK  10 active torsions:
REMARK  status: ('A' for Active; 'I' for Inactive)
REMARK    1  A    between atoms: O_1  and  C_10
REMARK    2  A    between atoms: O_1  and  C_19
REMARK    3  A    between atoms: O_2  and  C_12
REMARK    4  A    between atoms: O_3  and  C_15
REMARK    5  A    between atoms: O_4  and  C_20
REMARK    6  A    between atoms: O_5  and  C_21
REMARK    7  A    between atoms: O_6  and  C_22
REMARK    8  A    between atoms: O_8  and  C_23
REMARK    9  A    between atoms: C_11  and  C_19
REMARK   10  A    between atoms: C_13  and  C_23
REMARK                            x       y       z     vdW  Elec       q    Type
REMARK                         _______ _______ _______ _____ _____    ______ ____
ROOT
ATOM      1  O   UNL     1      80.799  84.254  99.985  0.00  0.00    +0.000 OA
ENDROOT
BRANCH   1   2
ATOM      2  C   UNL     1      81.171  83.706 101.215  0.00  0.00    +0.000 A 
ATOM      3  C   UNL     1      80.382  83.934 102.322  0.00  0.00    +0.000 A 
ATOM      4  C   UNL     1      82.703  82.396 102.492  0.00  0.00    +0.000 A 
ATOM      5  C   UNL     1      82.322  82.950 101.270  0.00  0.00    +0.000 A 
ATOM      6  C   UNL     1      80.764  83.380 103.543  0.00  0.00    +0.000 A 
ATOM      7  C   UNL     1      81.924  82.611 103.629  0.00  0.00    +0.000 A 
BRANCH   3   8
ATOM      8  O   UNL     1      79.247  84.686 102.238  0.00  0.00    +0.000 OA
ATOM      9  H   UNL     1      79.234  85.305 102.988  0.00  0.00    +0.000 HD
ENDBRANCH   3   8
BRANCH   6  10
ATOM     10  O   UNL     1      80.009  83.581 104.660  0.00  0.00    +0.000 OA
ATOM     11  H   UNL     1      79.366  82.856 104.742  0.00  0.00    +0.000 HD
ENDBRANCH   6  10
BRANCH   4  13
ATOM     12  O   UNL     1      84.178  80.798 103.489  0.00  0.00    +0.000 OA
ATOM     13  C   UNL     1      83.911  81.592 102.581  0.00  0.00    +0.000 C 
BRANCH  13  14
ATOM     14  O   UNL     1      84.753  81.800 101.532  0.00  0.00    +0.000 OA
ATOM     15  H   UNL     1      85.466  82.436 101.755  0.00  0.00    +0.000 HD
ENDBRANCH  13  14
ENDBRANCH   4  13
ENDBRANCH   1   2
BRANCH   1  17
ATOM     16  O   UNL     1      82.401  84.034  98.307  0.00  0.00    +0.000 OA
ATOM     17  C   UNL     1      81.870  84.694  99.210  0.00  0.00    +0.000 C 
BRANCH  17  18
ATOM     18  C   UNL     1      82.276  86.036  99.595  0.00  0.00    +0.000 A 
ATOM     19  C   UNL     1      81.482  87.130  99.252  0.00  0.00    +0.000 A 
ATOM     20  C   UNL     1      83.462  86.230 100.303  0.00  0.00    +0.000 A 
ATOM     21  C   UNL     1      83.853  87.518 100.670  0.00  0.00    +0.000 A 
ATOM     22  C   UNL     1      81.872  88.418  99.618  0.00  0.00    +0.000 A 
ATOM     23  C   UNL     1      83.058  88.612 100.327  0.00  0.00    +0.000 A 
BRANCH  21  24
ATOM     24  O   UNL     1      85.014  87.694 101.360  0.00  0.00    +0.000 OA
ATOM     25  H   UNL     1      84.916  88.479 101.926  0.00  0.00    +0.000 HD
ENDBRANCH  21  24
BRANCH  22  26
ATOM     26  O   UNL     1      81.088  89.478  99.275  0.00  0.00    +0.000 OA
ATOM     27  H   UNL     1      81.647  90.173  98.885  0.00  0.00    +0.000 HD
ENDBRANCH  22  26
BRANCH  23  28
ATOM     28  O   UNL     1      83.439  89.871 100.685  0.00  0.00    +0.000 OA
ATOM     29  H   UNL     1      84.330  90.035 100.331  0.00  0.00    +0.000 HD
ENDBRANCH  23  28
ENDBRANCH  17  18
ENDBRANCH   1  17
TORSDOF 10
ENDMDL
MODEL 3
REMARK VINA RESULT:    -9.433      2.535      4.279
REMARK INTER + INTRA:         -13.598
REMARK INTER:                 -13.026
REMARK INTRA:                  -0.572
REMARK UNBOUND:                -0.305
REMARK  Name = 341
REMARK  10 active torsions:
REMARK  status: ('A' for Active; 'I' for Inactive)
REMARK    1  A    between atoms: O_1  and  C_10
REMARK    2  A    between atoms: O_1  and  C_19
REMARK    3  A    between atoms: O_2  and  C_12
REMARK    4  A    between atoms: O_3  and  C_15
REMARK    5  A    between atoms: O_4  and  C_20
REMARK    6  A    between atoms: O_5  and  C_21
REMARK    7  A    between atoms: O_6  and  C_22
REMARK    8  A    between atoms: O_8  and  C_23
REMARK    9  A    between atoms: C_11  and  C_19
REMARK   10  A    between atoms: C_13  and  C_23
REMARK                            x       y       z     vdW  Elec       q    Type
REMARK                         _______ _______ _______ _____ _____    ______ ____
ROOT
ATOM      1  O   UNL     1      81.897  82.450  99.504  0.00  0.00    +0.000 OA
ENDROOT
BRANCH   1   2
ATOM      2  C   UNL     1      82.020  82.369 100.894  0.00  0.00    +0.000 A 
ATOM      3  C   UNL     1      83.161  81.822 101.440  0.00  0.00    +0.000 A 
ATOM      4  C   UNL     1      81.098  82.777 103.057  0.00  0.00    +0.000 A 
ATOM      5  C   UNL     1      80.985  82.849 101.668  0.00  0.00    +0.000 A 
ATOM      6  C   UNL     1      83.272  81.750 102.828  0.00  0.00    +0.000 A 
ATOM      7  C   UNL     1      82.241  82.227 103.637  0.00  0.00    +0.000 A 
BRANCH   3   8
ATOM      8  O   UNL     1      84.169  81.356 100.649  0.00  0.00    +0.000 OA
ATOM      9  H   UNL     1      84.159  81.854  99.814  0.00  0.00    +0.000 HD
ENDBRANCH   3   8
BRANCH   6  10
ATOM     10  O   UNL     1      84.385  81.218 103.407  0.00  0.00    +0.000 OA
ATOM     11  H   UNL     1      84.165  80.927 104.308  0.00  0.00    +0.000 HD
ENDBRANCH   6  10
BRANCH   4  13
ATOM     12  O   UNL     1      79.002  83.844 103.497  0.00  0.00    +0.000 OA
ATOM     13  C   UNL     1      80.023  83.277 103.900  0.00  0.00    +0.000 C 
BRANCH  13  14
ATOM     14  O   UNL     1      80.252  83.054 105.222  0.00  0.00    +0.000 OA
ATOM     15  H   UNL     1      79.716  83.647 105.791  0.00  0.00    +0.000 HD
ENDBRANCH  13  14
ENDBRANCH   4  13
ENDBRANCH   1   2
BRANCH   1  17
ATOM     16  O   UNL     1      83.706  82.931  98.117  0.00  0.00    +0.000 OA
ATOM     17  C   UNL     1      82.819  83.299  98.899  0.00  0.00    +0.000 C 
BRANCH  17  18
ATOM     18  C   UNL     1      82.599  84.680  99.299  0.00  0.00    +0.000 A 
ATOM     19  C   UNL     1      83.498  85.309 100.159  0.00  0.00    +0.000 A 
ATOM     20  C   UNL     1      81.484  85.374  98.826  0.00  0.00    +0.000 A 
ATOM     21  C   UNL     1      81.271  86.697  99.212  0.00  0.00    +0.000 A 
ATOM     22  C   UNL     1      83.286  86.633 100.545  0.00  0.00    +0.000 A 
ATOM     23  C   UNL     1      82.172  87.326 100.072  0.00  0.00    +0.000 A 
BRANCH  21  24
ATOM     24  O   UNL     1      80.179  87.363  98.745  0.00  0.00    +0.000 OA
ATOM     25  H   UNL     1      80.407  87.760  97.886  0.00  0.00    +0.000 HD
ENDBRANCH  21  24
BRANCH  22  26
ATOM     26  O   UNL     1      84.171  87.235 101.387  0.00  0.00    +0.000 OA
ATOM     27  H   UNL     1      83.686  87.830 101.985  0.00  0.00    +0.000 HD
ENDBRANCH  22  26
BRANCH  23  28
ATOM     28  O   UNL     1      81.964  88.620 100.450  0.00  0.00    +0.000 OA
ATOM     29  H   UNL     1      81.959  89.176  99.652  0.00  0.00    +0.000 HD
ENDBRANCH  23  28
ENDBRANCH  17  18
ENDBRANCH   1  17
TORSDOF 10
ENDMDL
MODEL 4
REMARK VINA RESULT:    -9.375      2.601      4.676
REMARK INTER + INTRA:         -13.516
REMARK INTER:                 -13.277
REMARK INTRA:                  -0.239
REMARK UNBOUND:                -0.305
REMARK  Name = 341
REMARK  10 active torsions:
REMARK  status: ('A' for Active; 'I' for Inactive)
REMARK    1  A    between atoms: O_1  and  C_10
REMARK    2  A    between atoms: O_1  and  C_19
REMARK    3  A    between atoms: O_2  and  C_12
REMARK    4  A    between atoms: O_3  and  C_15
REMARK    5  A    between atoms: O_4  and  C_20
REMARK    6  A    between atoms: O_5  and  C_21
REMARK    7  A    between atoms: O_6  and  C_22
REMARK    8  A    between atoms: O_8  and  C_23
REMARK    9  A    between atoms: C_11  and  C_19
REMARK   10  A    between atoms: C_13  and  C_23
REMARK                            x       y       z     vdW  Elec       q    Type
REMARK                         _______ _______ _______ _____ _____    ______ ____
ROOT
ATOM      1  O   UNL     1      82.066  82.376  99.241  0.00  0.00    +0.000 OA
ENDROOT
BRANCH   1   2
ATOM      2  C   UNL     1      82.097  82.368 100.638  0.00  0.00    +0.000 A 
ATOM      3  C   UNL     1      83.169  81.795 101.286  0.00  0.00    +0.000 A 
ATOM      4  C   UNL     1      81.064  82.944 102.710  0.00  0.00    +0.000 A 
ATOM      5  C   UNL     1      81.044  82.944 101.316  0.00  0.00    +0.000 A 
ATOM      6  C   UNL     1      83.189  81.795 102.680  0.00  0.00    +0.000 A 
ATOM      7  C   UNL     1      82.137  82.369 103.393  0.00  0.00    +0.000 A 
BRANCH   3   8
ATOM      8  O   UNL     1      84.198  81.233 100.589  0.00  0.00    +0.000 OA
ATOM      9  H   UNL     1      84.462  80.412 101.040  0.00  0.00    +0.000 HD
ENDBRANCH   3   8
BRANCH   6  10
ATOM     10  O   UNL     1      84.233  81.240 103.358  0.00  0.00    +0.000 OA
ATOM     11  H   UNL     1      83.936  80.994 104.251  0.00  0.00    +0.000 HD
ENDBRANCH   6  10
BRANCH   4  13
ATOM     12  O   UNL     1      80.007  84.638 104.027  0.00  0.00    +0.000 OA
ATOM     13  C   UNL     1      79.968  83.545 103.453  0.00  0.00    +0.000 C 
BRANCH  13  14
ATOM     14  O   UNL     1      78.852  82.766 103.458  0.00  0.00    +0.000 OA
ATOM     15  H   UNL     1      78.193  83.075 104.115  0.00  0.00    +0.000 HD
ENDBRANCH  13  14
ENDBRANCH   4  13
ENDBRANCH   1   2
BRANCH   1  17
ATOM     16  O   UNL     1      83.791  83.047  97.824  0.00  0.00    +0.000 OA
ATOM     17  C   UNL     1      82.915  83.314  98.658  0.00  0.00    +0.000 C 
BRANCH  17  18
ATOM     18  C   UNL     1      82.631  84.653  99.150  0.00  0.00    +0.000 A 
ATOM     19  C   UNL     1      81.496  85.332  98.707  0.00  0.00    +0.000 A 
ATOM     20  C   UNL     1      83.495  85.259 100.062  0.00  0.00    +0.000 A 
ATOM     21  C   UNL     1      83.224  86.544 100.532  0.00  0.00    +0.000 A 
ATOM     22  C   UNL     1      81.224  86.617  99.177  0.00  0.00    +0.000 A 
ATOM     23  C   UNL     1      82.089  87.223 100.089  0.00  0.00    +0.000 A 
BRANCH  21  24
ATOM     24  O   UNL     1      84.077  87.125 101.421  0.00  0.00    +0.000 OA
ATOM     25  H   UNL     1      84.987  86.985 101.107  0.00  0.00    +0.000 HD
ENDBRANCH  21  24
BRANCH  22  26
ATOM     26  O   UNL     1      80.114  87.271  98.735  0.00  0.00    +0.000 OA
ATOM     27  H   UNL     1      79.335  86.703  98.872  0.00  0.00    +0.000 HD
ENDBRANCH  22  26
BRANCH  23  28
ATOM     28  O   UNL     1      81.823  88.479 100.548  0.00  0.00    +0.000 OA
ATOM     29  H   UNL     1      80.934  88.480 100.944  0.00  0.00    +0.000 HD
ENDBRANCH  23  28
ENDBRANCH  17  18
ENDBRANCH   1  17
TORSDOF 10
ENDMDL
MODEL 5
REMARK VINA RESULT:    -9.307      1.878      3.521
REMARK INTER + INTRA:         -13.420
REMARK INTER:                 -13.362
REMARK INTRA:                  -0.058
REMARK UNBOUND:                -0.305
REMARK  Name = 341
REMARK  10 active torsions:
REMARK  status: ('A' for Active; 'I' for Inactive)
REMARK    1  A    between atoms: O_1  and  C_10
REMARK    2  A    between atoms: O_1  and  C_19
REMARK    3  A    between atoms: O_2  and  C_12
REMARK    4  A    between atoms: O_3  and  C_15
REMARK    5  A    between atoms: O_4  and  C_20
REMARK    6  A    between atoms: O_5  and  C_21
REMARK    7  A    between atoms: O_6  and  C_22
REMARK    8  A    between atoms: O_8  and  C_23
REMARK    9  A    between atoms: C_11  and  C_19
REMARK   10  A    between atoms: C_13  and  C_23
REMARK                            x       y       z     vdW  Elec       q    Type
REMARK                         _______ _______ _______ _____ _____    ______ ____
ROOT
ATOM      1  O   UNL     1      81.829  84.224 100.309  0.00  0.00    +0.000 OA
ENDROOT
BRANCH   1   2
ATOM      2  C   UNL     1      81.884  83.510 101.509  0.00  0.00    +0.000 A 
ATOM      3  C   UNL     1      83.028  82.810 101.826  0.00  0.00    +0.000 A 
ATOM      4  C   UNL     1      80.825  82.831 103.536  0.00  0.00    +0.000 A 
ATOM      5  C   UNL     1      80.781  83.539 102.335  0.00  0.00    +0.000 A 
ATOM      6  C   UNL     1      83.071  82.103 103.028  0.00  0.00    +0.000 A 
ATOM      7  C   UNL     1      81.969  82.113 103.883  0.00  0.00    +0.000 A 
BRANCH   3   8
ATOM      8  O   UNL     1      84.105  82.799 100.989  0.00  0.00    +0.000 OA
ATOM      9  H   UNL     1      84.827  83.294 101.414  0.00  0.00    +0.000 HD
ENDBRANCH   3   8
BRANCH   6  10
ATOM     10  O   UNL     1      84.184  81.400 103.378  0.00  0.00    +0.000 OA
ATOM     11  H   UNL     1      84.002  80.905 104.195  0.00  0.00    +0.000 HD
ENDBRANCH   6  10
BRANCH   4  13
ATOM     12  O   UNL     1      78.508  83.058 104.090  0.00  0.00    +0.000 OA
ATOM     13  C   UNL     1      79.677  82.845 104.430  0.00  0.00    +0.000 C 
BRANCH  13  14
ATOM     14  O   UNL     1      80.019  82.590 105.722  0.00  0.00    +0.000 OA
ATOM     15  H   UNL     1      79.928  81.638 105.943  0.00  0.00    +0.000 HD
ENDBRANCH  13  14
ENDBRANCH   4  13
ENDBRANCH   1   2
BRANCH   1  17
ATOM     16  O   UNL     1      79.760  85.292 100.416  0.00  0.00    +0.000 OA
ATOM     17  C   UNL     1      80.996  85.339 100.348  0.00  0.00    +0.000 C 
BRANCH  17  18
ATOM     18  C   UNL     1      81.770  86.570 100.307  0.00  0.00    +0.000 A 
ATOM     19  C   UNL     1      83.069  86.594 100.813  0.00  0.00    +0.000 A 
ATOM     20  C   UNL     1      81.211  87.728  99.765  0.00  0.00    +0.000 A 
ATOM     21  C   UNL     1      81.952  88.909  99.728  0.00  0.00    +0.000 A 
ATOM     22  C   UNL     1      83.811  87.775 100.776  0.00  0.00    +0.000 A 
ATOM     23  C   UNL     1      83.252  88.932 100.234  0.00  0.00    +0.000 A 
BRANCH  21  24
ATOM     24  O   UNL     1      81.394  90.033  99.198  0.00  0.00    +0.000 OA
ATOM     25  H   UNL     1      81.180  89.857  98.265  0.00  0.00    +0.000 HD
ENDBRANCH  21  24
BRANCH  22  26
ATOM     26  O   UNL     1      85.078  87.786 101.275  0.00  0.00    +0.000 OA
ATOM     27  H   UNL     1      85.698  87.515 100.575  0.00  0.00    +0.000 HD
ENDBRANCH  22  26
BRANCH  23  28
ATOM     28  O   UNL     1      83.977  90.087 100.198  0.00  0.00    +0.000 OA
ATOM     29  H   UNL     1      84.769  89.969 100.751  0.00  0.00    +0.000 HD
ENDBRANCH  23  28
ENDBRANCH  17  18
ENDBRANCH   1  17
TORSDOF 10
ENDMDL
MODEL 6
REMARK VINA RESULT:    -9.307      1.905      6.687
REMARK INTER + INTRA:         -13.420
REMARK INTER:                 -13.373
REMARK INTRA:                  -0.047
REMARK UNBOUND:                -0.305
REMARK  Name = 341
REMARK  10 active torsions:
REMARK  status: ('A' for Active; 'I' for Inactive)
REMARK    1  A    between atoms: O_1  and  C_10
REMARK    2  A    between atoms: O_1  and  C_19
REMARK    3  A    between atoms: O_2  and  C_12
REMARK    4  A    between atoms: O_3  and  C_15
REMARK    5  A    between atoms: O_4  and  C_20
REMARK    6  A    between atoms: O_5  and  C_21
REMARK    7  A    between atoms: O_6  and  C_22
REMARK    8  A    between atoms: O_8  and  C_23
REMARK    9  A    between atoms: C_11  and  C_19
REMARK   10  A    between atoms: C_13  and  C_23
REMARK                            x       y       z     vdW  Elec       q    Type
REMARK                         _______ _______ _______ _____ _____    ______ ____
ROOT
ATOM      1  O   UNL     1      80.727  85.342 102.660  0.00  0.00    +0.000 OA
ENDROOT
BRANCH   1   2
ATOM      2  C   UNL     1      81.173  86.146 101.608  0.00  0.00    +0.000 A 
ATOM      3  C   UNL     1      80.399  86.262 100.473  0.00  0.00    +0.000 A 
ATOM      4  C   UNL     1      82.833  87.604 100.708  0.00  0.00    +0.000 A 
ATOM      5  C   UNL     1      82.379  86.798 101.751  0.00  0.00    +0.000 A 
ATOM      6  C   UNL     1      80.854  87.069  99.430  0.00  0.00    +0.000 A 
ATOM      7  C   UNL     1      82.071  87.740  99.547  0.00  0.00    +0.000 A 
BRANCH   3   8
ATOM      8  O   UNL     1      79.209  85.605 100.359  0.00  0.00    +0.000 OA
ATOM      9  H   UNL     1      79.390  84.688 100.090  0.00  0.00    +0.000 HD
ENDBRANCH   3   8
BRANCH   6  10
ATOM     10  O   UNL     1      80.117  87.211  98.293  0.00  0.00    +0.000 OA
ATOM     11  H   UNL     1      80.586  86.783  97.557  0.00  0.00    +0.000 HD
ENDBRANCH   6  10
BRANCH   4  13
ATOM     12  O   UNL     1      84.261  89.524 100.700  0.00  0.00    +0.000 OA
ATOM     13  C   UNL     1      84.101  88.306 100.831  0.00  0.00    +0.000 C 
BRANCH  13  14
ATOM     14  O   UNL     1      85.135  87.469 101.117  0.00  0.00    +0.000 OA
ATOM     15  H   UNL     1      85.648  87.234 100.314  0.00  0.00    +0.000 HD
ENDBRANCH  13  14
ENDBRANCH   4  13
ENDBRANCH   1   2
BRANCH   1  17
ATOM     16  O   UNL     1      79.233  83.602 102.246  0.00  0.00    +0.000 OA
ATOM     17  C   UNL     1      80.389  84.045 102.283  0.00  0.00    +0.000 C 
BRANCH  17  18
ATOM     18  C   UNL     1      81.573  83.279 101.929  0.00  0.00    +0.000 A 
ATOM     19  C   UNL     1      81.990  83.215 100.599  0.00  0.00    +0.000 A 
ATOM     20  C   UNL     1      82.291  82.605 102.918  0.00  0.00    +0.000 A 
ATOM     21  C   UNL     1      83.425  81.868 102.577  0.00  0.00    +0.000 A 
ATOM     22  C   UNL     1      83.125  82.478 100.258  0.00  0.00    +0.000 A 
ATOM     23  C   UNL     1      83.842  81.805 101.247  0.00  0.00    +0.000 A 
BRANCH  21  24
ATOM     24  O   UNL     1      84.115  81.214 103.552  0.00  0.00    +0.000 OA
ATOM     25  H   UNL     1      84.638  81.868 104.048  0.00  0.00    +0.000 HD
ENDBRANCH  21  24
BRANCH  22  26
ATOM     26  O   UNL     1      83.520  82.421  98.956  0.00  0.00    +0.000 OA
ATOM     27  H   UNL     1      83.752  83.318  98.655  0.00  0.00    +0.000 HD
ENDBRANCH  22  26
BRANCH  23  28
ATOM     28  O   UNL     1      84.950  81.085 100.913  0.00  0.00    +0.000 OA
ATOM     29  H   UNL     1      84.691  80.399 100.274  0.00  0.00    +0.000 HD
ENDBRANCH  23  28
ENDBRANCH  17  18
ENDBRANCH   1  17
TORSDOF 10
ENDMDL
MODEL 7
REMARK VINA RESULT:    -9.301      2.020      2.844
REMARK INTER + INTRA:         -13.412
REMARK INTER:                 -13.223
REMARK INTRA:                  -0.189
REMARK UNBOUND:                -0.305
REMARK  Name = 341
REMARK  10 active torsions:
REMARK  status: ('A' for Active; 'I' for Inactive)
REMARK    1  A    between atoms: O_1  and  C_10
REMARK    2  A    between atoms: O_1  and  C_19
REMARK    3  A    between atoms: O_2  and  C_12
REMARK    4  A    between atoms: O_3  and  C_15
REMARK    5  A    between atoms: O_4  and  C_20
REMARK    6  A    between atoms: O_5  and  C_21
REMARK    7  A    between atoms: O_6  and  C_22
REMARK    8  A    between atoms: O_8  and  C_23
REMARK    9  A    between atoms: C_11  and  C_19
REMARK   10  A    between atoms: C_13  and  C_23
REMARK                            x       y       z     vdW  Elec       q    Type
REMARK                         _______ _______ _______ _____ _____    ______ ____
ROOT
ATOM      1  O   UNL     1      80.389  86.652 100.254  0.00  0.00    +0.000 OA
ENDROOT
BRANCH   1   2
ATOM      2  C   UNL     1      80.941  85.387 100.476  0.00  0.00    +0.000 A 
ATOM      3  C   UNL     1      80.941  84.866 101.751  0.00  0.00    +0.000 A 
ATOM      4  C   UNL     1      82.016  83.443  99.606  0.00  0.00    +0.000 A 
ATOM      5  C   UNL     1      81.465  84.707  99.398  0.00  0.00    +0.000 A 
ATOM      6  C   UNL     1      81.493  83.602 101.959  0.00  0.00    +0.000 A 
ATOM      7  C   UNL     1      82.030  82.891 100.887  0.00  0.00    +0.000 A 
BRANCH   3   8
ATOM      8  O   UNL     1      80.415  85.562 102.799  0.00  0.00    +0.000 OA
ATOM      9  H   UNL     1      80.020  86.382 102.455  0.00  0.00    +0.000 HD
ENDBRANCH   3   8
BRANCH   6  10
ATOM     10  O   UNL     1      81.510  83.050 103.205  0.00  0.00    +0.000 OA
ATOM     11  H   UNL     1      81.602  82.086 103.123  0.00  0.00    +0.000 HD
ENDBRANCH   6  10
BRANCH   4  13
ATOM     12  O   UNL     1      83.779  82.529  98.271  0.00  0.00    +0.000 OA
ATOM     13  C   UNL     1      82.575  82.700  98.488  0.00  0.00    +0.000 C 
BRANCH  13  14
ATOM     14  O   UNL     1      81.614  82.190  97.670  0.00  0.00    +0.000 OA
ATOM     15  H   UNL     1      80.849  81.843  98.176  0.00  0.00    +0.000 HD
ENDBRANCH  13  14
ENDBRANCH   4  13
ENDBRANCH   1   2
BRANCH   1  17
ATOM     16  O   UNL     1      80.711  87.259  98.026  0.00  0.00    +0.000 OA
ATOM     17  C   UNL     1      80.999  87.367  99.226  0.00  0.00    +0.000 C 
BRANCH  17  18
ATOM     18  C   UNL     1      82.015  88.267  99.748  0.00  0.00    +0.000 A 
ATOM     19  C   UNL     1      83.181  87.750 100.313  0.00  0.00    +0.000 A 
ATOM     20  C   UNL     1      81.823  89.648  99.689  0.00  0.00    +0.000 A 
ATOM     21  C   UNL     1      82.796  90.510 100.193  0.00  0.00    +0.000 A 
ATOM     22  C   UNL     1      84.155  88.612 100.817  0.00  0.00    +0.000 A 
ATOM     23  C   UNL     1      83.962  89.992 100.757  0.00  0.00    +0.000 A 
BRANCH  21  24
ATOM     24  O   UNL     1      82.594  91.856 100.130  0.00  0.00    +0.000 OA
ATOM     25  H   UNL     1      82.756  92.230 101.014  0.00  0.00    +0.000 HD
ENDBRANCH  21  24
BRANCH  22  26
ATOM     26  O   UNL     1      85.288  88.094 101.367  0.00  0.00    +0.000 OA
ATOM     27  H   UNL     1      85.930  87.909 100.659  0.00  0.00    +0.000 HD
ENDBRANCH  22  26
BRANCH  23  28
ATOM     28  O   UNL     1      84.914  90.835 101.249  0.00  0.00    +0.000 OA
ATOM     29  H   UNL     1      85.779  90.558 100.902  0.00  0.00    +0.000 HD
ENDBRANCH  23  28
ENDBRANCH  17  18
ENDBRANCH   1  17
TORSDOF 10
ENDMDL
MODEL 8
REMARK VINA RESULT:    -9.219      2.389      4.389
REMARK INTER + INTRA:         -13.296
REMARK INTER:                 -13.172
REMARK INTRA:                  -0.124
REMARK UNBOUND:                -0.305
REMARK  Name = 341
REMARK  10 active torsions:
REMARK  status: ('A' for Active; 'I' for Inactive)
REMARK    1  A    between atoms: O_1  and  C_10
REMARK    2  A    between atoms: O_1  and  C_19
REMARK    3  A    between atoms: O_2  and  C_12
REMARK    4  A    between atoms: O_3  and  C_15
REMARK    5  A    between atoms: O_4  and  C_20
REMARK    6  A    between atoms: O_5  and  C_21
REMARK    7  A    between atoms: O_6  and  C_22
REMARK    8  A    between atoms: O_8  and  C_23
REMARK    9  A    between atoms: C_11  and  C_19
REMARK   10  A    between atoms: C_13  and  C_23
REMARK                            x       y       z     vdW  Elec       q    Type
REMARK                         _______ _______ _______ _____ _____    ______ ____
ROOT
ATOM      1  O   UNL     1      80.373  83.244 102.149  0.00  0.00    +0.000 OA
ENDROOT
BRANCH   1   2
ATOM      2  C   UNL     1      81.514  82.778 101.491  0.00  0.00    +0.000 A 
ATOM      3  C   UNL     1      82.564  82.278 102.231  0.00  0.00    +0.000 A 
ATOM      4  C   UNL     1      82.673  82.372  99.445  0.00  0.00    +0.000 A 
ATOM      5  C   UNL     1      81.540  82.836 100.114  0.00  0.00    +0.000 A 
ATOM      6  C   UNL     1      83.696  81.815 101.561  0.00  0.00    +0.000 A 
ATOM      7  C   UNL     1      83.751  81.862 100.168  0.00  0.00    +0.000 A 
BRANCH   3   8
ATOM      8  O   UNL     1      82.510  82.232 103.592  0.00  0.00    +0.000 OA
ATOM      9  H   UNL     1      83.348  81.862 103.920  0.00  0.00    +0.000 HD
ENDBRANCH   3   8
BRANCH   6  10
ATOM     10  O   UNL     1      84.754  81.311 102.256  0.00  0.00    +0.000 OA
ATOM     11  H   UNL     1      85.171  80.607 101.731  0.00  0.00    +0.000 HD
ENDBRANCH   6  10
BRANCH   4  13
ATOM     12  O   UNL     1      83.731  82.691  97.323  0.00  0.00    +0.000 OA
ATOM     13  C   UNL     1      82.729  82.419  97.992  0.00  0.00    +0.000 C 
BRANCH  13  14
ATOM     14  O   UNL     1      81.533  82.123  97.415  0.00  0.00    +0.000 OA
ATOM     15  H   UNL     1      81.608  82.037  96.441  0.00  0.00    +0.000 HD
ENDBRANCH  13  14
ENDBRANCH   4  13
ENDBRANCH   1   2
BRANCH   1  17
ATOM     16  O   UNL     1      80.281  84.710 103.959  0.00  0.00    +0.000 OA
ATOM     17  C   UNL     1      80.538  84.480 102.769  0.00  0.00    +0.000 C 
BRANCH  17  18
ATOM     18  C   UNL     1      81.062  85.465 101.837  0.00  0.00    +0.000 A 
ATOM     19  C   UNL     1      82.343  85.985 102.019  0.00  0.00    +0.000 A 
ATOM     20  C   UNL     1      80.281  85.894 100.762  0.00  0.00    +0.000 A 
ATOM     21  C   UNL     1      80.783  86.841  99.870  0.00  0.00    +0.000 A 
ATOM     22  C   UNL     1      82.846  86.933 101.126  0.00  0.00    +0.000 A 
ATOM     23  C   UNL     1      82.065  87.360 100.052  0.00  0.00    +0.000 A 
BRANCH  21  24
ATOM     24  O   UNL     1      80.010  87.253  98.827  0.00  0.00    +0.000 OA
ATOM     25  H   UNL     1      79.762  88.182  98.978  0.00  0.00    +0.000 HD
ENDBRANCH  21  24
BRANCH  22  26
ATOM     26  O   UNL     1      84.098  87.433 101.316  0.00  0.00    +0.000 OA
ATOM     27  H   UNL     1      84.148  87.836 102.200  0.00  0.00    +0.000 HD
ENDBRANCH  22  26
BRANCH  23  28
ATOM     28  O   UNL     1      82.556  88.287  99.180  0.00  0.00    +0.000 OA
ATOM     29  H   UNL     1      81.807  88.763  98.783  0.00  0.00    +0.000 HD
ENDBRANCH  23  28
ENDBRANCH  17  18
ENDBRANCH   1  17
TORSDOF 10
ENDMDL
MODEL 9
REMARK VINA RESULT:    -9.191      1.627      3.400
REMARK INTER + INTRA:         -13.257
REMARK INTER:                 -13.570
REMARK INTRA:                   0.313
REMARK UNBOUND:                -0.305
REMARK  Name = 341
REMARK  10 active torsions:
REMARK  status: ('A' for Active; 'I' for Inactive)
REMARK    1  A    between atoms: O_1  and  C_10
REMARK    2  A    between atoms: O_1  and  C_19
REMARK    3  A    between atoms: O_2  and  C_12
REMARK    4  A    between atoms: O_3  and  C_15
REMARK    5  A    between atoms: O_4  and  C_20
REMARK    6  A    between atoms: O_5  and  C_21
REMARK    7  A    between atoms: O_6  and  C_22
REMARK    8  A    between atoms: O_8  and  C_23
REMARK    9  A    between atoms: C_11  and  C_19
REMARK   10  A    between atoms: C_13  and  C_23
REMARK                            x       y       z     vdW  Elec       q    Type
REMARK                         _______ _______ _______ _____ _____    ______ ____
ROOT
ATOM      1  O   UNL     1      81.828  85.710  98.891  0.00  0.00    +0.000 OA
ENDROOT
BRANCH   1   2
ATOM      2  C   UNL     1      81.810  84.790  99.943  0.00  0.00    +0.000 A 
ATOM      3  C   UNL     1      83.000  84.279 100.412  0.00  0.00    +0.000 A 
ATOM      4  C   UNL     1      80.559  83.515 101.525  0.00  0.00    +0.000 A 
ATOM      5  C   UNL     1      80.589  84.431 100.473  0.00  0.00    +0.000 A 
ATOM      6  C   UNL     1      82.969  83.362 101.463  0.00  0.00    +0.000 A 
ATOM      7  C   UNL     1      81.748  82.980 102.020  0.00  0.00    +0.000 A 
BRANCH   3   8
ATOM      8  O   UNL     1      84.193  84.652  99.868  0.00  0.00    +0.000 OA
ATOM      9  H   UNL     1      84.578  85.352 100.424  0.00  0.00    +0.000 HD
ENDBRANCH   3   8
BRANCH   6  10
ATOM     10  O   UNL     1      84.124  82.836 101.957  0.00  0.00    +0.000 OA
ATOM     11  H   UNL     1      84.753  82.713 101.226  0.00  0.00    +0.000 HD
ENDBRANCH   6  10
BRANCH   4  13
ATOM     12  O   UNL     1      78.349  82.598 101.492  0.00  0.00    +0.000 OA
ATOM     13  C   UNL     1      79.286  83.119 102.106  0.00  0.00    +0.000 C 
BRANCH  13  14
ATOM     14  O   UNL     1      79.218  83.381 103.440  0.00  0.00    +0.000 OA
ATOM     15  H   UNL     1      80.080  83.235 103.886  0.00  0.00    +0.000 HD
ENDBRANCH  13  14
ENDBRANCH   4  13
ENDBRANCH   1   2
BRANCH   1  17
ATOM     16  O   UNL     1      79.954  87.092  99.002  0.00  0.00    +0.000 OA
ATOM     17  C   UNL     1      81.167  86.905  99.168  0.00  0.00    +0.000 C 
BRANCH  17  18
ATOM     18  C   UNL     1      82.088  87.902  99.689  0.00  0.00    +0.000 A 
ATOM     19  C   UNL     1      81.792  89.259  99.559  0.00  0.00    +0.000 A 
ATOM     20  C   UNL     1      83.270  87.502 100.314  0.00  0.00    +0.000 A 
ATOM     21  C   UNL     1      84.154  88.459 100.810  0.00  0.00    +0.000 A 
ATOM     22  C   UNL     1      82.677  90.217 100.056  0.00  0.00    +0.000 A 
ATOM     23  C   UNL     1      83.858  89.816 100.681  0.00  0.00    +0.000 A 
BRANCH  21  24
ATOM     24  O   UNL     1      85.305  88.056 101.417  0.00  0.00    +0.000 OA
ATOM     25  H   UNL     1      85.304  88.393 102.330  0.00  0.00    +0.000 HD
ENDBRANCH  21  24
BRANCH  22  26
ATOM     26  O   UNL     1      82.378  91.539  99.921  0.00  0.00    +0.000 OA
ATOM     27  H   UNL     1      81.453  91.684 100.187  0.00  0.00    +0.000 HD
ENDBRANCH  22  26
BRANCH  23  28
ATOM     28  O   UNL     1      84.723  90.753 101.166  0.00  0.00    +0.000 OA
ATOM     29  H   UNL     1      84.253  91.294 101.823  0.00  0.00    +0.000 HD
ENDBRANCH  23  28
ENDBRANCH  17  18
ENDBRANCH   1  17
TORSDOF 10
ENDMDL
MODEL 10
REMARK VINA RESULT:    -8.992     10.920     15.011
REMARK INTER + INTRA:         -12.976
REMARK INTER:                 -12.571
REMARK INTRA:                  -0.405
REMARK UNBOUND:                -0.305
REMARK  Name = 341
REMARK  10 active torsions:
REMARK  status: ('A' for Active; 'I' for Inactive)
REMARK    1  A    between atoms: O_1  and  C_10
REMARK    2  A    between atoms: O_1  and  C_19
REMARK    3  A    between atoms: O_2  and  C_12
REMARK    4  A    between atoms: O_3  and  C_15
REMARK    5  A    between atoms: O_4  and  C_20
REMARK    6  A    between atoms: O_5  and  C_21
REMARK    7  A    between atoms: O_6  and  C_22
REMARK    8  A    between atoms: O_8  and  C_23
REMARK    9  A    between atoms: C_11  and  C_19
REMARK   10  A    between atoms: C_13  and  C_23
REMARK                            x       y       z     vdW  Elec       q    Type
REMARK                         _______ _______ _______ _____ _____    ______ ____
ROOT
ATOM      1  O   UNL     1      93.355  94.923 104.188  0.00  0.00    +0.000 OA
ENDROOT
BRANCH   1   2
ATOM      2  C   UNL     1      92.353  94.535 103.294  0.00  0.00    +0.000 A 
ATOM      3  C   UNL     1      92.655  93.642 102.289  0.00  0.00    +0.000 A 
ATOM      4  C   UNL     1      90.083  94.683 102.575  0.00  0.00    +0.000 A 
ATOM      5  C   UNL     1      91.092  95.065 103.459  0.00  0.00    +0.000 A 
ATOM      6  C   UNL     1      91.646  93.261 101.405  0.00  0.00    +0.000 A 
ATOM      7  C   UNL     1      90.360  93.781 101.547  0.00  0.00    +0.000 A 
BRANCH   3   8
ATOM      8  O   UNL     1      93.913  93.133 102.150  0.00  0.00    +0.000 OA
ATOM      9  H   UNL     1      94.349  93.153 103.019  0.00  0.00    +0.000 HD
ENDBRANCH   3   8
BRANCH   6  10
ATOM     10  O   UNL     1      91.904  92.378 100.399  0.00  0.00    +0.000 OA
ATOM     11  H   UNL     1      91.175  91.737 100.346  0.00  0.00    +0.000 HD
ENDBRANCH   6  10
BRANCH   4  13
ATOM     12  O   UNL     1      87.792  95.006 101.965  0.00  0.00    +0.000 OA
ATOM     13  C   UNL     1      88.742  95.224 102.725  0.00  0.00    +0.000 C 
BRANCH  13  14
ATOM     14  O   UNL     1      88.621  96.021 103.822  0.00  0.00    +0.000 OA
ATOM     15  H   UNL     1      88.207  96.883 103.604  0.00  0.00    +0.000 HD
ENDBRANCH  13  14
ENDBRANCH   4  13
ENDBRANCH   1   2
BRANCH   1  17
ATOM     16  O   UNL     1      93.568  96.911 102.990  0.00  0.00    +0.000 OA
ATOM     17  C   UNL     1      93.842  96.211 103.973  0.00  0.00    +0.000 C 
BRANCH  17  18
ATOM     18  C   UNL     1      94.709  96.629 105.063  0.00  0.00    +0.000 A 
ATOM     19  C   UNL     1      95.024  97.978 105.226  0.00  0.00    +0.000 A 
ATOM     20  C   UNL     1      95.230  95.680 105.945  0.00  0.00    +0.000 A 
ATOM     21  C   UNL     1      96.064  96.081 106.988  0.00  0.00    +0.000 A 
ATOM     22  C   UNL     1      95.858  98.379 106.270  0.00  0.00    +0.000 A 
ATOM     23  C   UNL     1      96.378  97.430 107.150  0.00  0.00    +0.000 A 
BRANCH  21  24
ATOM     24  O   UNL     1      96.567  95.145 107.840  0.00  0.00    +0.000 OA
ATOM     25  H   UNL     1      96.131  95.252 108.703  0.00  0.00    +0.000 HD
ENDBRANCH  21  24
BRANCH  22  26
ATOM     26  O   UNL     1      96.159  99.699 106.416  0.00  0.00    +0.000 OA
ATOM     27  H   UNL     1      97.126  99.801 106.469  0.00  0.00    +0.000 HD
ENDBRANCH  22  26
BRANCH  23  28
ATOM     28  O   UNL     1      97.193  97.823 108.170  0.00  0.00    +0.000 OA
ATOM     29  H   UNL     1      97.808  98.496 107.831  0.00  0.00    +0.000 HD
ENDBRANCH  23  28
ENDBRANCH  17  18
ENDBRANCH   1  17
TORSDOF 10
ENDMDL
