MODEL 1

REMARK VINA RESULT:    -6.508      0.000      0.000

REMARK INTER + INTRA:          -8.539

REMARK INTER:                  -7.701

REMARK INTRA:                  -0.839

REMARK CONF_INDEPENDENT:        1.193

REMARK UNBOUND:                -0.839

REMARK SMILES O=c1cc(-c2ccc(O)cc2)oc2cc(O)cc(O)c12

REMARK SMILES IDX 12 1 1 2 20 3 13 4 4 5 2 6 3 7 18 8 14 9 15 10 17 11 5 16

REMARK SMILES IDX 6 17 11 18 7 19 10 20 8 21 9 22 19 27 16 32

REMARK H PARENT 9 23 19 28 16 33

REMARK Flexibility Score: inf

ROOT

ATOM      1  O   UNL     1       0.756  -2.628  -1.143  1.00 10.00           OA

ATOM      2  O   UNL     1      -1.364  -0.202   1.350  1.00 10.00           OA

ATOM      3  C   UNL     1      -1.125  -2.337   0.367  1.00 10.00           A 

ATOM      4  C   UNL     1      -0.354  -3.112  -0.497  1.00 10.00           A 

ATOM      5  C   UNL     1       1.120  -1.307  -0.930  1.00 10.00           A 

ATOM      6  C   UNL     1      -0.736  -0.938   0.603  1.00 10.00           A 

ATOM      7  C   UNL     1       0.463  -0.464  -0.117  1.00 10.00           A 

ATOM      8  C   UNL     1      -2.244  -2.884   0.997  1.00 10.00           A 

ATOM      9  C   UNL     1      -0.699  -4.442  -0.737  1.00 10.00           A 

ATOM     10  C   UNL     1      -1.817  -4.993  -0.109  1.00 10.00           A 

ATOM     11  C   UNL     1      -2.589  -4.214   0.756  1.00 10.00           A 

ENDROOT

BRANCH   5  16

ATOM     16  C   UNL     1       2.329  -0.892  -1.667  1.00 10.00           A 

ATOM     17  C   UNL     1       2.314   0.272  -2.442  1.00 10.00           A 

ATOM     18  C   UNL     1       3.494  -1.659  -1.593  1.00 10.00           A 

ATOM     19  C   UNL     1       3.458   0.664  -3.138  1.00 10.00           A 

ATOM     20  C   UNL     1       4.637  -1.265  -2.290  1.00 10.00           A 

ATOM     21  C   UNL     1       4.619  -0.104  -3.062  1.00 10.00           A 

BRANCH  21  22

ATOM     22  O   UNL     1       5.734   0.279  -3.740  1.00 10.00           OA

ATOM     23  H   UNL     1       5.465   0.743  -4.552  1.00 10.00           HD

BRANCH   8  27

ATOM     27  O   UNL     1      -3.029  -2.168   1.850  1.00 10.00           OA

ATOM     28  H   UNL     1      -3.213  -1.288   1.486  1.00 10.00           HD

BRANCH  10  32

ATOM     32  O   UNL     1      -2.157  -6.290  -0.341  1.00 10.00           OA

ATOM     33  H   UNL     1      -2.965  -6.314  -0.882  1.00 10.00           HD

REMARK  WEAK   water ( score: -0.32 )
ATOM     36 WAT  UNL     1      -4.626  -6.360  -1.994  1.00 80.00           W 

ENDMDL

MODEL 2

REMARK VINA RESULT:    -6.274      2.154      5.142

REMARK INTER + INTRA:          -8.290

REMARK INTER:                  -7.468

REMARK INTRA:                  -0.822

REMARK CONF_INDEPENDENT:        1.193

REMARK UNBOUND:                -0.822

REMARK SMILES O=c1cc(-c2ccc(O)cc2)oc2cc(O)cc(O)c12

REMARK SMILES IDX 12 1 1 2 20 3 13 4 4 5 2 6 3 7 18 8 14 9 15 10 17 11 5 16

REMARK SMILES IDX 6 17 11 18 7 19 10 20 8 21 9 22 19 27 16 32

REMARK H PARENT 9 23 19 28 16 33

REMARK Flexibility Score: inf

ROOT

ATOM      1  O   UNL     1      -0.104  -1.119  -0.008  1.00 10.00           OA

ATOM      2  O   UNL     1      -0.207  -4.900  -1.520  1.00 10.00           OA

ATOM      3  C   UNL     1      -1.122  -3.324  -0.017  1.00 10.00           A 

ATOM      4  C   UNL     1      -1.033  -2.016   0.455  1.00 10.00           A 

ATOM      5  C   UNL     1       0.789  -1.537  -0.983  1.00 10.00           A 

ATOM      6  C   UNL     1      -0.184  -3.769  -1.059  1.00 10.00           A 

ATOM      7  C   UNL     1       0.798  -2.767  -1.522  1.00 10.00           A 

ATOM      8  C   UNL     1      -2.090  -4.193   0.491  1.00 10.00           A 

ATOM      9  C   UNL     1      -1.912  -1.569   1.441  1.00 10.00           A 

ATOM     10  C   UNL     1      -2.880  -2.434   1.952  1.00 10.00           A 

ATOM     11  C   UNL     1      -2.968  -3.745   1.478  1.00 10.00           A 

REMARK  WEAK   water ( score: -0.40 )
ATOM     14 WAT  UNL     1       1.759  -5.696  -3.642  1.00 80.00           W 

ENDROOT

BRANCH   5  16

ATOM     16  C   UNL     1       1.740  -0.493  -1.413  1.00 10.00           A 

ATOM     17  C   UNL     1       3.010  -0.848  -1.877  1.00 10.00           A 

ATOM     18  C   UNL     1       1.374   0.854  -1.361  1.00 10.00           A 

ATOM     19  C   UNL     1       3.908   0.139  -2.284  1.00 10.00           A 

ATOM     20  C   UNL     1       2.273   1.840  -1.768  1.00 10.00           A 

ATOM     21  C   UNL     1       3.540   1.483  -2.229  1.00 10.00           A 

BRANCH  21  22

ATOM     22  O   UNL     1       4.415   2.445  -2.627  1.00 10.00           OA

ATOM     23  H   UNL     1       4.632   3.009  -1.864  1.00 10.00           HD

BRANCH   8  27

ATOM     27  O   UNL     1      -2.218  -5.480   0.063  1.00 10.00           OA

ATOM     28  H   UNL     1      -2.218  -5.517  -0.907  1.00 10.00           HD

REMARK  WEAK   water ( score: -0.47 )
ATOM     31 WAT  UNL     1      -2.218  -5.595  -2.905  1.00 80.00           W 

BRANCH  10  32

ATOM     32  O   UNL     1      -3.740  -2.001   2.914  1.00 10.00           OA

ATOM     33  H   UNL     1      -3.442  -1.133   3.236  1.00 10.00           HD

ENDMDL

MODEL 3

REMARK VINA RESULT:    -6.271      2.176      5.131

REMARK INTER + INTRA:          -8.286

REMARK INTER:                  -7.464

REMARK INTRA:                  -0.822

REMARK CONF_INDEPENDENT:        1.193

REMARK UNBOUND:                -0.822

REMARK SMILES O=c1cc(-c2ccc(O)cc2)oc2cc(O)cc(O)c12

REMARK SMILES IDX 12 1 1 2 20 3 13 4 4 5 2 6 3 7 18 8 14 9 15 10 17 11 5 16

REMARK SMILES IDX 6 17 11 18 7 19 10 20 8 21 9 22 19 27 16 32

REMARK H PARENT 9 23 19 28 16 33

REMARK Flexibility Score: inf

ROOT

ATOM      1  O   UNL     1      -0.110  -1.112  -0.008  1.00 10.00           OA

ATOM      2  O   UNL     1      -0.206  -4.893  -1.522  1.00 10.00           OA

ATOM      3  C   UNL     1      -1.124  -3.319  -0.017  1.00 10.00           A 

ATOM      4  C   UNL     1      -1.037  -2.012   0.456  1.00 10.00           A 

ATOM      5  C   UNL     1       0.783  -1.528  -0.983  1.00 10.00           A 

ATOM      6  C   UNL     1      -0.185  -3.762  -1.060  1.00 10.00           A 

ATOM      7  C   UNL     1       0.795  -2.758  -1.523  1.00 10.00           A 

ATOM      8  C   UNL     1      -2.090  -4.191   0.491  1.00 10.00           A 

ATOM      9  C   UNL     1      -1.917  -1.567   1.442  1.00 10.00           A 

ATOM     10  C   UNL     1      -2.883  -2.434   1.953  1.00 10.00           A 

ATOM     11  C   UNL     1      -2.969  -3.745   1.478  1.00 10.00           A 

REMARK  WEAK   water ( score: -0.40 )
ATOM     14 WAT  UNL     1       1.760  -5.684  -3.645  1.00 80.00           W 

ENDROOT

BRANCH   5  16

ATOM     16  C   UNL     1       1.732  -0.482  -1.413  1.00 10.00           A 

ATOM     17  C   UNL     1       2.995  -0.836  -1.895  1.00 10.00           A 

ATOM     18  C   UNL     1       1.371   0.865  -1.340  1.00 10.00           A 

ATOM     19  C   UNL     1       3.891   0.153  -2.303  1.00 10.00           A 

ATOM     20  C   UNL     1       2.268   1.853  -1.747  1.00 10.00           A 

ATOM     21  C   UNL     1       3.528   1.498  -2.228  1.00 10.00           A 

BRANCH  21  22

ATOM     22  O   UNL     1       4.401   2.462  -2.625  1.00 10.00           OA

ATOM     23  H   UNL     1       4.832   2.840  -1.839  1.00 10.00           HD

BRANCH   8  27

ATOM     27  O   UNL     1      -2.216  -5.478   0.061  1.00 10.00           OA

ATOM     28  H   UNL     1      -2.217  -5.514  -0.908  1.00 10.00           HD

REMARK  WEAK   water ( score: -0.47 )
ATOM     31 WAT  UNL     1      -2.220  -5.590  -2.907  1.00 80.00           W 

BRANCH  10  32

ATOM     32  O   UNL     1      -3.744  -2.003   2.916  1.00 10.00           OA

ATOM     33  H   UNL     1      -4.616  -1.849   2.513  1.00 10.00           HD

ENDMDL

MODEL 4

REMARK VINA RESULT:    -6.256      2.142      5.118

REMARK INTER + INTRA:          -8.276

REMARK INTER:                  -7.449

REMARK INTRA:                  -0.827

REMARK CONF_INDEPENDENT:        1.193

REMARK UNBOUND:                -0.827

REMARK SMILES O=c1cc(-c2ccc(O)cc2)oc2cc(O)cc(O)c12

REMARK SMILES IDX 12 1 1 2 20 3 13 4 4 5 2 6 3 7 18 8 14 9 15 10 17 11 5 16

REMARK SMILES IDX 6 17 11 18 7 19 10 20 8 21 9 22 19 27 16 32

REMARK H PARENT 9 23 19 28 16 33

REMARK Flexibility Score: inf

ROOT

ATOM      1  O   UNL     1      -0.109  -1.103   0.007  1.00 10.00           OA

ATOM      2  O   UNL     1      -0.211  -4.873  -1.535  1.00 10.00           OA

ATOM      3  C   UNL     1      -1.125  -3.309  -0.017  1.00 10.00           A 

ATOM      4  C   UNL     1      -1.036  -2.006   0.465  1.00 10.00           A 

ATOM      5  C   UNL     1       0.782  -1.513  -0.973  1.00 10.00           A 

ATOM      6  C   UNL     1      -0.188  -3.745  -1.065  1.00 10.00           A 

ATOM      7  C   UNL     1       0.792  -2.738  -1.522  1.00 10.00           A 

ATOM      8  C   UNL     1      -2.090  -4.184   0.486  1.00 10.00           A 

ATOM      9  C   UNL     1      -1.914  -1.567   1.456  1.00 10.00           A 

ATOM     10  C   UNL     1      -2.880  -2.438   1.962  1.00 10.00           A 

ATOM     11  C   UNL     1      -2.967  -3.745   1.478  1.00 10.00           A 

REMARK  WEAK   water ( score: -0.40 )
ATOM     14 WAT  UNL     1       1.751  -5.649  -3.668  1.00 80.00           W 

ENDROOT

BRANCH   5  16

ATOM     16  C   UNL     1       1.731  -0.464  -1.397  1.00 10.00           A 

ATOM     17  C   UNL     1       1.376   0.885  -1.297  1.00 10.00           A 

ATOM     18  C   UNL     1       2.987  -0.814  -1.897  1.00 10.00           A 

ATOM     19  C   UNL     1       2.273   1.876  -1.696  1.00 10.00           A 

ATOM     20  C   UNL     1       3.883   0.178  -2.296  1.00 10.00           A 

ATOM     21  C   UNL     1       3.526   1.523  -2.197  1.00 10.00           A 

BRANCH  21  22

ATOM     22  O   UNL     1       4.401   2.489  -2.585  1.00 10.00           OA

ATOM     23  H   UNL     1       4.598   3.061  -1.823  1.00 10.00           HD

BRANCH   8  27

ATOM     27  O   UNL     1      -2.218  -5.468   0.047  1.00 10.00           OA

ATOM     28  H   UNL     1      -2.218  -5.497  -0.922  1.00 10.00           HD

REMARK  WEAK   water ( score: -0.47 )
ATOM     31 WAT  UNL     1      -2.218  -5.559  -2.922  1.00 80.00           W 

BRANCH  10  32

ATOM     32  O   UNL     1      -3.739  -2.013   2.930  1.00 10.00           OA

ATOM     33  H   UNL     1      -3.819  -2.707   3.607  1.00 10.00           HD

ENDMDL

MODEL 5

REMARK VINA RESULT:    -6.230      0.796      1.725

REMARK INTER + INTRA:          -8.311

REMARK INTER:                  -7.423

REMARK INTRA:                  -0.888

REMARK CONF_INDEPENDENT:        1.193

REMARK UNBOUND:                -0.888

REMARK SMILES O=c1cc(-c2ccc(O)cc2)oc2cc(O)cc(O)c12

REMARK SMILES IDX 12 1 1 2 20 3 13 4 4 5 2 6 3 7 18 8 14 9 15 10 17 11 5 16

REMARK SMILES IDX 6 17 11 18 7 19 10 20 8 21 9 22 19 27 16 32

REMARK H PARENT 9 23 19 28 16 33

REMARK Flexibility Score: inf

ROOT

ATOM      1  O   UNL     1       0.637  -2.495  -1.215  1.00 10.00           OA

ATOM      2  O   UNL     1      -1.185  -0.265   1.666  1.00 10.00           OA

ATOM      3  C   UNL     1      -1.066  -2.321   0.508  1.00 10.00           A 

ATOM      4  C   UNL     1      -0.399  -3.029  -0.490  1.00 10.00           A 

ATOM      5  C   UNL     1       1.029  -1.193  -0.947  1.00 10.00           A 

ATOM      6  C   UNL     1      -0.647  -0.942   0.803  1.00 10.00           A 

ATOM      7  C   UNL     1       0.470  -0.414  -0.007  1.00 10.00           A 

ATOM      8  C   UNL     1      -2.113  -2.916   1.215  1.00 10.00           A 

ATOM      9  C   UNL     1      -0.775  -4.338  -0.788  1.00 10.00           A 

ATOM     10  C   UNL     1      -1.821  -4.936  -0.084  1.00 10.00           A 

ATOM     11  C   UNL     1      -2.490  -4.226   0.915  1.00 10.00           A 

ENDROOT

BRANCH   5  16

ATOM     16  C   UNL     1       2.154  -0.722  -1.779  1.00 10.00           A 

ATOM     17  C   UNL     1       1.983   0.371  -2.635  1.00 10.00           A 

ATOM     18  C   UNL     1       3.392  -1.363  -1.715  1.00 10.00           A 

ATOM     19  C   UNL     1       3.046   0.816  -3.421  1.00 10.00           A 

ATOM     20  C   UNL     1       4.454  -0.917  -2.501  1.00 10.00           A 

ATOM     21  C   UNL     1       4.282   0.172  -3.354  1.00 10.00           A 

BRANCH  21  22

ATOM     22  O   UNL     1       5.318   0.608  -4.120  1.00 10.00           OA

ATOM     23  H   UNL     1       5.920   1.134  -3.565  1.00 10.00           HD

BRANCH   8  27

ATOM     27  O   UNL     1      -2.796  -2.267   2.199  1.00 10.00           OA

ATOM     28  H   UNL     1      -2.438  -1.376   2.330  1.00 10.00           HD

BRANCH  10  32

ATOM     32  O   UNL     1      -2.192  -6.214  -0.372  1.00 10.00           OA

ATOM     33  H   UNL     1      -2.938  -6.194  -0.996  1.00 10.00           HD

REMARK  WEAK   water ( score: -0.37 )
ATOM     36 WAT  UNL     1      -4.472  -6.151  -2.277  1.00 80.00           W 

ENDMDL

MODEL 6

REMARK VINA RESULT:    -5.436      1.243      2.295

REMARK INTER + INTRA:          -7.503

REMARK INTER:                  -6.629

REMARK INTRA:                  -0.874

REMARK CONF_INDEPENDENT:        1.193

REMARK UNBOUND:                -0.874

REMARK SMILES O=c1cc(-c2ccc(O)cc2)oc2cc(O)cc(O)c12

REMARK SMILES IDX 12 1 1 2 20 3 13 4 4 5 2 6 3 7 18 8 14 9 15 10 17 11 5 16

REMARK SMILES IDX 6 17 11 18 7 19 10 20 8 21 9 22 19 27 16 32

REMARK H PARENT 9 23 19 28 16 33

REMARK Flexibility Score: inf

ROOT

ATOM      1  O   UNL     1       0.870  -2.060  -1.493  1.00 10.00           OA

ATOM      2  O   UNL     1      -0.913  -0.465   1.805  1.00 10.00           OA

ATOM      3  C   UNL     1      -0.780  -2.263   0.277  1.00 10.00           A 

ATOM      4  C   UNL     1      -0.129  -2.751  -0.853  1.00 10.00           A 

ATOM      5  C   UNL     1       1.238  -0.820  -0.995  1.00 10.00           A 

ATOM      6  C   UNL     1      -0.386  -0.952   0.815  1.00 10.00           A 

ATOM      7  C   UNL     1       0.691  -0.248   0.090  1.00 10.00           A 

ATOM      8  C   UNL     1      -1.790  -3.011   0.888  1.00 10.00           A 

ATOM      9  C   UNL     1      -0.482  -3.992  -1.381  1.00 10.00           A 

ATOM     10  C   UNL     1      -1.490  -4.743  -0.775  1.00 10.00           A 

ATOM     11  C   UNL     1      -2.143  -4.252   0.358  1.00 10.00           A 

REMARK  WEAK   water ( score: -0.30 )
ATOM     13 WAT  UNL     1       3.312  -3.772  -1.176  1.00 80.00           W 

ENDROOT

BRANCH   5  16

ATOM     16  C   UNL     1       2.323  -0.167  -1.754  1.00 10.00           A 

ATOM     17  C   UNL     1       3.640  -0.619  -1.625  1.00 10.00           A 

ATOM     18  C   UNL     1       2.040   0.903  -2.605  1.00 10.00           A 

ATOM     19  C   UNL     1       4.665  -0.004  -2.343  1.00 10.00           A 

ATOM     20  C   UNL     1       3.066   1.519  -3.322  1.00 10.00           A 

ATOM     21  C   UNL     1       4.379   1.066  -3.191  1.00 10.00           A 

BRANCH  21  22

ATOM     22  O   UNL     1       5.378   1.666  -3.892  1.00 10.00           OA

ATOM     23  H   UNL     1       4.996   2.111  -4.668  1.00 10.00           HD

BRANCH   8  27

ATOM     27  O   UNL     1      -2.456  -2.579   1.995  1.00 10.00           OA

ATOM     28  H   UNL     1      -1.950  -1.887   2.448  1.00 10.00           HD

BRANCH  10  32

ATOM     32  O   UNL     1      -1.838  -5.955  -1.288  1.00 10.00           OA

ATOM     33  H   UNL     1      -1.030  -6.440  -1.529  1.00 10.00           HD

REMARK  WEAK   water ( score: -0.47 )
ATOM     34 WAT  UNL     1      -3.329  -5.426  -3.837  1.00 80.00           W 

ENDMDL

MODEL 7

REMARK VINA RESULT:    -5.285      2.422      3.373

REMARK INTER + INTRA:          -7.355

REMARK INTER:                  -6.479

REMARK INTRA:                  -0.876

REMARK CONF_INDEPENDENT:        1.193

REMARK UNBOUND:                -0.876

REMARK SMILES O=c1cc(-c2ccc(O)cc2)oc2cc(O)cc(O)c12

REMARK SMILES IDX 12 1 1 2 20 3 13 4 4 5 2 6 3 7 18 8 14 9 15 10 17 11 5 16

REMARK SMILES IDX 6 17 11 18 7 19 10 20 8 21 9 22 19 27 16 32

REMARK H PARENT 9 23 19 28 16 33

REMARK Flexibility Score: inf

ROOT

ATOM      1  O   UNL     1      -0.492  -1.595   0.476  1.00 10.00           OA

ATOM      2  O   UNL     1      -1.815   2.092   1.592  1.00 10.00           OA

ATOM      3  C   UNL     1      -2.156  -0.246   1.620  1.00 10.00           A 

ATOM      4  C   UNL     1      -1.647  -1.475   1.208  1.00 10.00           A 

ATOM      5  C   UNL     1       0.192  -0.441   0.127  1.00 10.00           A 

ATOM      6  C   UNL     1      -1.428   0.981   1.261  1.00 10.00           A 

ATOM      7  C   UNL     1      -0.192   0.799   0.472  1.00 10.00           A 

ATOM      8  C   UNL     1      -3.336  -0.184   2.364  1.00 10.00           A 

ATOM      9  C   UNL     1      -2.316  -2.654   1.537  1.00 10.00           A 

ATOM     10  C   UNL     1      -3.496  -2.597   2.280  1.00 10.00           A 

ATOM     11  C   UNL     1      -4.005  -1.363   2.692  1.00 10.00           A 

REMARK  WEAK   water ( score: -0.43 )
ATOM     12 WAT  UNL     1      -1.358  -2.792  -2.135  1.00 80.00           W 

ENDROOT

BRANCH   5  16

ATOM     16  C   UNL     1       1.422  -0.685  -0.652  1.00 10.00           A 

ATOM     17  C   UNL     1       2.348  -1.639  -0.222  1.00 10.00           A 

ATOM     18  C   UNL     1       1.665   0.036  -1.824  1.00 10.00           A 

ATOM     19  C   UNL     1       3.509  -1.870  -0.959  1.00 10.00           A 

ATOM     20  C   UNL     1       2.826  -0.196  -2.560  1.00 10.00           A 

ATOM     21  C   UNL     1       3.749  -1.148  -2.128  1.00 10.00           A 

BRANCH  21  22

ATOM     22  O   UNL     1       4.881  -1.374  -2.848  1.00 10.00           OA

ATOM     23  H   UNL     1       4.646  -1.447  -3.789  1.00 10.00           HD

BRANCH   8  27

ATOM     27  O   UNL     1      -3.874   0.993   2.792  1.00 10.00           OA

ATOM     28  H   UNL     1      -3.511   1.736   2.285  1.00 10.00           HD

BRANCH  10  32

ATOM     32  O   UNL     1      -4.152  -3.745   2.603  1.00 10.00           OA

ATOM     33  H   UNL     1      -3.864  -4.453   2.002  1.00 10.00           HD

REMARK  WEAK   water ( score: -0.44 )
ATOM     36 WAT  UNL     1      -3.271  -5.909   0.766  1.00 80.00           W 

ENDMDL

