MODEL 1
REMARK VINA RESULT:      -8.2      0.000      0.000
REMARK  13 active torsions:
REMARK  status: ('A' for Active; 'I' for Inactive)
REMARK    1  A    between atoms: O_2  and  C_16 
REMARK    2  A    between atoms: O_2  and  C_17 
REMARK    3  A    between atoms: O_4  and  C_12 
REMARK    4  A    between atoms: O_5  and  C_13 
REMARK    5  A    between atoms: O_6  and  C_15 
REMARK    6  A    between atoms: O_6  and  C_22 
REMARK    7  A    between atoms: O_7  and  C_14 
REMARK    8  A    between atoms: O_8  and  C_18 
REMARK    9  A    between atoms: O_9  and  C_19 
REMARK   10  A    between atoms: O_10  and  C_20 
REMARK   11  A    between atoms: C_11  and  C_16 
REMARK   12  A    between atoms: C_22  and  C_23 
REMARK   13  A    between atoms: C_24  and  C_25 
ROOT
HETATM    1  O   UNK     0     152.842 155.586 151.757  0.00  0.00    -0.348 OA
HETATM    2  C   UNK     0     153.657 156.505 152.486  0.00  0.00     0.180 C 
HETATM    3  C   UNK     0     155.128 156.315 152.105  0.00  0.00     0.180 C 
HETATM    4  C   UNK     0     155.563 154.867 152.328  0.00  0.00     0.183 C 
HETATM    5  C   UNK     0     154.575 153.888 151.692  0.00  0.00     0.204 C 
HETATM    6  C   UNK     0     153.135 154.227 152.070  0.00  0.00     0.291 C 
ENDROOT
BRANCH   2   7
HETATM    7  C   UNK     0     153.168 157.913 152.163  0.00  0.00     0.205 C 
BRANCH   7   8
HETATM    8  O   UNK     0     154.123 158.541 151.328  0.00  0.00    -0.356 OA
BRANCH   8   9
HETATM    9  C   UNK     0     153.578 158.861 150.051  0.00  0.00     0.290 C 
HETATM   10  O   UNK     0     153.849 157.842 149.082  0.00  0.00    -0.356 OA
HETATM   11  C   UNK     0     155.231 157.715 148.753  0.00  0.00     0.205 C 
HETATM   12  C   UNK     0     155.764 159.014 148.163  0.00  0.00     0.173 C 
HETATM   13  C   UNK     0     155.560 160.174 149.140  0.00  0.00     0.182 C 
HETATM   14  C   UNK     0     154.096 160.232 149.590  0.00  0.00     0.204 C 
BRANCH  12  15
HETATM   15  O   UNK     0     157.143 158.886 147.850  0.00  0.00    -0.391 OA
HETATM   16  H   UNK     0     157.294 159.334 146.999  0.00  0.00     0.210 HD
ENDBRANCH  12  15
BRANCH  13  17
HETATM   17  O   UNK     0     156.402 159.987 150.276  0.00  0.00    -0.390 OA
HETATM   18  H   UNK     0     157.211 159.540 149.971  0.00  0.00     0.210 HD
ENDBRANCH  13  17
BRANCH  14  19
HETATM   19  O   UNK     0     153.284 160.668 148.502  0.00  0.00    -0.388 OA
HETATM   20  H   UNK     0     152.556 160.034 148.390  0.00  0.00     0.210 HD
ENDBRANCH  14  19
ENDBRANCH   8   9
ENDBRANCH   7   8
ENDBRANCH   2   7
BRANCH   6  21
HETATM   21  O   UNK     0     152.271 153.365 151.330  0.00  0.00    -0.355 OA
BRANCH  21  22
HETATM   22  C   UNK     0     152.222 153.734 149.961  0.00  0.00     0.198 C 
BRANCH  22  23
HETATM   23  C   UNK     0     152.364 152.501 149.126  0.00  0.00     0.000 C 
HETATM   24  C   UNK     0     151.627 152.266 148.029  0.00  0.00     0.009 C 
BRANCH  24  25
HETATM   25  C   UNK     0     151.742 151.076 147.169  0.00  0.00    -0.036 A 
HETATM   26  C   UNK     0     152.987 150.504 146.963  0.00  0.00     0.011 A 
HETATM   27  C   UNK     0     153.096 149.376 146.148  0.00  0.00     0.001 A 
HETATM   28  C   UNK     0     151.958 148.836 145.551  0.00  0.00     0.000 A 
HETATM   29  C   UNK     0     150.711 149.422 145.768  0.00  0.00     0.001 A 
HETATM   30  C   UNK     0     150.602 150.549 146.582  0.00  0.00     0.011 A 
ENDBRANCH  24  25
ENDBRANCH  22  23
ENDBRANCH  21  22
ENDBRANCH   6  21
BRANCH   3  31
HETATM   31  O   UNK     0     155.936 157.178 152.900  0.00  0.00    -0.390 OA
HETATM   32  H   UNK     0     156.642 157.534 152.332  0.00  0.00     0.210 HD
ENDBRANCH   3  31
BRANCH   5  33
HETATM   33  O   UNK     0     154.859 152.566 152.149  0.00  0.00    -0.388 OA
HETATM   34  H   UNK     0     155.625 152.611 152.747  0.00  0.00     0.210 HD
ENDBRANCH   5  33
BRANCH   4  35
HETATM   35  O   UNK     0     156.851 154.697 151.734  0.00  0.00    -0.390 OA
HETATM   36  H   UNK     0     156.760 154.878 150.784  0.00  0.00     0.210 HD
ENDBRANCH   4  35
TORSDOF 13
ENDMDL
MODEL 2
REMARK VINA RESULT:      -8.0      1.617      2.273
REMARK  13 active torsions:
REMARK  status: ('A' for Active; 'I' for Inactive)
REMARK    1  A    between atoms: O_2  and  C_16 
REMARK    2  A    between atoms: O_2  and  C_17 
REMARK    3  A    between atoms: O_4  and  C_12 
REMARK    4  A    between atoms: O_5  and  C_13 
REMARK    5  A    between atoms: O_6  and  C_15 
REMARK    6  A    between atoms: O_6  and  C_22 
REMARK    7  A    between atoms: O_7  and  C_14 
REMARK    8  A    between atoms: O_8  and  C_18 
REMARK    9  A    between atoms: O_9  and  C_19 
REMARK   10  A    between atoms: O_10  and  C_20 
REMARK   11  A    between atoms: C_11  and  C_16 
REMARK   12  A    between atoms: C_22  and  C_23 
REMARK   13  A    between atoms: C_24  and  C_25 
ROOT
HETATM    1  O   UNK     0     153.687 155.573 150.300  0.00  0.00    -0.348 OA
HETATM    2  C   UNK     0     153.300 156.267 151.486  0.00  0.00     0.180 C 
HETATM    3  C   UNK     0     154.480 156.334 152.460  0.00  0.00     0.180 C 
HETATM    4  C   UNK     0     155.009 154.934 152.767  0.00  0.00     0.183 C 
HETATM    5  C   UNK     0     155.246 154.137 151.484  0.00  0.00     0.204 C 
HETATM    6  C   UNK     0     154.039 154.215 150.551  0.00  0.00     0.291 C 
ENDROOT
BRANCH   2   7
HETATM    7  C   UNK     0     152.829 157.658 151.073  0.00  0.00     0.205 C 
BRANCH   7   8
HETATM    8  O   UNK     0     153.585 158.075 149.952  0.00  0.00    -0.356 OA
BRANCH   8   9
HETATM    9  C   UNK     0     154.400 159.204 150.254  0.00  0.00     0.290 C 
HETATM   10  O   UNK     0     153.992 160.369 149.529  0.00  0.00    -0.356 OA
HETATM   11  C   UNK     0     154.195 160.270 148.121  0.00  0.00     0.205 C 
HETATM   12  C   UNK     0     155.671 160.067 147.804  0.00  0.00     0.173 C 
HETATM   13  C   UNK     0     156.206 158.816 148.503  0.00  0.00     0.182 C 
HETATM   14  C   UNK     0     155.877 158.866 149.999  0.00  0.00     0.204 C 
BRANCH  12  15
HETATM   15  O   UNK     0     155.866 159.956 146.402  0.00  0.00    -0.391 OA
HETATM   16  H   UNK     0     154.989 159.864 145.989  0.00  0.00     0.210 HD
ENDBRANCH  12  15
BRANCH  13  17
HETATM   17  O   UNK     0     155.609 157.659 147.921  0.00  0.00    -0.390 OA
HETATM   18  H   UNK     0     156.320 157.137 147.511  0.00  0.00     0.210 HD
ENDBRANCH  13  17
BRANCH  14  19
HETATM   19  O   UNK     0     156.673 159.870 150.626  0.00  0.00    -0.388 OA
HETATM   20  H   UNK     0     157.332 159.431 151.189  0.00  0.00     0.210 HD
ENDBRANCH  14  19
ENDBRANCH   8   9
ENDBRANCH   7   8
ENDBRANCH   2   7
BRANCH   6  21
HETATM   21  O   UNK     0     154.388 153.572 149.325  0.00  0.00    -0.355 OA
BRANCH  21  22
HETATM   22  C   UNK     0     153.268 152.923 148.744  0.00  0.00     0.198 C 
BRANCH  22  23
HETATM   23  C   UNK     0     153.710 152.227 147.497  0.00  0.00     0.000 C 
HETATM   24  C   UNK     0     153.192 151.060 147.082  0.00  0.00     0.009 C 
BRANCH  24  25
HETATM   25  C   UNK     0     153.584 150.346 145.855  0.00  0.00    -0.036 A 
HETATM   26  C   UNK     0     153.960 151.073 144.737  0.00  0.00     0.011 A 
HETATM   27  C   UNK     0     154.331 150.396 143.574  0.00  0.00     0.001 A 
HETATM   28  C   UNK     0     154.322 149.002 143.547  0.00  0.00     0.000 A 
HETATM   29  C   UNK     0     153.941 148.284 144.680  0.00  0.00     0.001 A 
HETATM   30  C   UNK     0     153.570 148.960 145.842  0.00  0.00     0.011 A 
ENDBRANCH  24  25
ENDBRANCH  22  23
ENDBRANCH  21  22
ENDBRANCH   6  21
BRANCH   3  31
HETATM   31  O   UNK     0     154.057 156.955 153.671  0.00  0.00    -0.390 OA
HETATM   32  H   UNK     0     154.343 156.394 154.412  0.00  0.00     0.210 HD
ENDBRANCH   3  31
BRANCH   5  33
HETATM   33  O   UNK     0     155.472 152.767 151.813  0.00  0.00    -0.388 OA
HETATM   34  H   UNK     0     154.919 152.546 152.580  0.00  0.00     0.210 HD
ENDBRANCH   5  33
BRANCH   4  35
HETATM   35  O   UNK     0     156.242 155.074 153.476  0.00  0.00    -0.390 OA
HETATM   36  H   UNK     0     156.680 154.206 153.472  0.00  0.00     0.210 HD
ENDBRANCH   4  35
TORSDOF 13
ENDMDL
MODEL 3
REMARK VINA RESULT:      -8.0      8.042     11.207
REMARK  13 active torsions:
REMARK  status: ('A' for Active; 'I' for Inactive)
REMARK    1  A    between atoms: O_2  and  C_16 
REMARK    2  A    between atoms: O_2  and  C_17 
REMARK    3  A    between atoms: O_4  and  C_12 
REMARK    4  A    between atoms: O_5  and  C_13 
REMARK    5  A    between atoms: O_6  and  C_15 
REMARK    6  A    between atoms: O_6  and  C_22 
REMARK    7  A    between atoms: O_7  and  C_14 
REMARK    8  A    between atoms: O_8  and  C_18 
REMARK    9  A    between atoms: O_9  and  C_19 
REMARK   10  A    between atoms: O_10  and  C_20 
REMARK   11  A    between atoms: C_11  and  C_16 
REMARK   12  A    between atoms: C_22  and  C_23 
REMARK   13  A    between atoms: C_24  and  C_25 
ROOT
HETATM    1  O   UNK     0     148.799 149.095 142.104  0.00  0.00    -0.348 OA
HETATM    2  C   UNK     0     148.449 150.198 142.942  0.00  0.00     0.180 C 
HETATM    3  C   UNK     0     148.319 149.731 144.394  0.00  0.00     0.180 C 
HETATM    4  C   UNK     0     147.311 148.588 144.508  0.00  0.00     0.183 C 
HETATM    5  C   UNK     0     147.595 147.495 143.476  0.00  0.00     0.204 C 
HETATM    6  C   UNK     0     147.794 148.085 142.081  0.00  0.00     0.291 C 
ENDROOT
BRANCH   2   7
HETATM    7  C   UNK     0     149.534 151.259 142.784  0.00  0.00     0.205 C 
BRANCH   7   8
HETATM    8  O   UNK     0     150.644 150.890 143.582  0.00  0.00    -0.356 OA
BRANCH   8   9
HETATM    9  C   UNK     0     151.794 150.613 142.790  0.00  0.00     0.290 C 
HETATM   10  O   UNK     0     151.973 149.208 142.578  0.00  0.00    -0.356 OA
HETATM   11  C   UNK     0     152.291 148.483 143.763  0.00  0.00     0.205 C 
HETATM   12  C   UNK     0     153.593 148.989 144.370  0.00  0.00     0.173 C 
HETATM   13  C   UNK     0     153.500 150.485 144.676  0.00  0.00     0.182 C 
HETATM   14  C   UNK     0     153.036 151.250 143.432  0.00  0.00     0.204 C 
BRANCH  12  15
HETATM   15  O   UNK     0     153.898 148.273 145.558  0.00  0.00    -0.391 OA
HETATM   16  H   UNK     0     154.851 148.376 145.727  0.00  0.00     0.210 HD
ENDBRANCH  12  15
BRANCH  13  17
HETATM   17  O   UNK     0     152.569 150.692 145.737  0.00  0.00    -0.390 OA
HETATM   18  H   UNK     0     152.162 151.565 145.604  0.00  0.00     0.210 HD
ENDBRANCH  13  17
BRANCH  14  19
HETATM   19  O   UNK     0     154.082 151.252 142.461  0.00  0.00    -0.388 OA
HETATM   20  H   UNK     0     154.917 151.467 142.910  0.00  0.00     0.210 HD
ENDBRANCH  14  19
ENDBRANCH   8   9
ENDBRANCH   7   8
ENDBRANCH   2   7
BRANCH   6  21
HETATM   21  O   UNK     0     148.192 147.028 141.209  0.00  0.00    -0.355 OA
BRANCH  21  22
HETATM   22  C   UNK     0     149.531 147.196 140.772  0.00  0.00     0.198 C 
BRANCH  22  23
HETATM   23  C   UNK     0     150.213 145.866 140.791  0.00  0.00     0.000 C 
HETATM   24  C   UNK     0     150.708 145.307 141.907  0.00  0.00     0.009 C 
BRANCH  24  25
HETATM   25  C   UNK     0     151.373 143.995 141.977  0.00  0.00    -0.036 A 
HETATM   26  C   UNK     0     152.150 143.685 143.082  0.00  0.00     0.011 A 
HETATM   27  C   UNK     0     152.780 142.442 143.149  0.00  0.00     0.001 A 
HETATM   28  C   UNK     0     152.623 141.525 142.110  0.00  0.00     0.000 A 
HETATM   29  C   UNK     0     151.838 141.850 141.004  0.00  0.00     0.001 A 
HETATM   30  C   UNK     0     151.208 143.093 140.937  0.00  0.00     0.011 A 
ENDBRANCH  24  25
ENDBRANCH  22  23
ENDBRANCH  21  22
ENDBRANCH   6  21
BRANCH   3  31
HETATM   31  O   UNK     0     147.889 150.822 145.204  0.00  0.00    -0.390 OA
HETATM   32  H   UNK     0     148.638 151.435 145.303  0.00  0.00     0.210 HD
ENDBRANCH   3  31
BRANCH   5  33
HETATM   33  O   UNK     0     146.490 146.592 143.428  0.00  0.00    -0.388 OA
HETATM   34  H   UNK     0     146.730 145.795 143.929  0.00  0.00     0.210 HD
ENDBRANCH   5  33
BRANCH   4  35
HETATM   35  O   UNK     0     147.413 148.039 145.823  0.00  0.00    -0.390 OA
HETATM   36  H   UNK     0     148.132 148.508 146.279  0.00  0.00     0.210 HD
ENDBRANCH   4  35
TORSDOF 13
ENDMDL
MODEL 4
REMARK VINA RESULT:      -8.0      2.941      4.233
REMARK  13 active torsions:
REMARK  status: ('A' for Active; 'I' for Inactive)
REMARK    1  A    between atoms: O_2  and  C_16 
REMARK    2  A    between atoms: O_2  and  C_17 
REMARK    3  A    between atoms: O_4  and  C_12 
REMARK    4  A    between atoms: O_5  and  C_13 
REMARK    5  A    between atoms: O_6  and  C_15 
REMARK    6  A    between atoms: O_6  and  C_22 
REMARK    7  A    between atoms: O_7  and  C_14 
REMARK    8  A    between atoms: O_8  and  C_18 
REMARK    9  A    between atoms: O_9  and  C_19 
REMARK   10  A    between atoms: O_10  and  C_20 
REMARK   11  A    between atoms: C_11  and  C_16 
REMARK   12  A    between atoms: C_22  and  C_23 
REMARK   13  A    between atoms: C_24  and  C_25 
ROOT
HETATM    1  O   UNK     0     152.964 156.035 151.207  0.00  0.00    -0.348 OA
HETATM    2  C   UNK     0     153.697 156.847 152.126  0.00  0.00     0.180 C 
HETATM    3  C   UNK     0     155.193 156.542 152.012  0.00  0.00     0.180 C 
HETATM    4  C   UNK     0     155.462 155.054 152.228  0.00  0.00     0.183 C 
HETATM    5  C   UNK     0     154.537 154.193 151.366  0.00  0.00     0.204 C 
HETATM    6  C   UNK     0     153.083 154.644 151.491  0.00  0.00     0.291 C 
ENDROOT
BRANCH   2   7
HETATM    7  C   UNK     0     153.390 158.305 151.798  0.00  0.00     0.205 C 
BRANCH   7   8
HETATM    8  O   UNK     0     154.325 158.756 150.835  0.00  0.00    -0.356 OA
BRANCH   8   9
HETATM    9  C   UNK     0     153.687 159.147 149.623  0.00  0.00     0.290 C 
HETATM   10  O   UNK     0     154.033 158.285 148.533  0.00  0.00    -0.356 OA
HETATM   11  C   UNK     0     155.403 158.369 148.147  0.00  0.00     0.205 C 
HETATM   12  C   UNK     0     155.748 159.783 147.696  0.00  0.00     0.173 C 
HETATM   13  C   UNK     0     155.451 160.791 148.808  0.00  0.00     0.182 C 
HETATM   14  C   UNK     0     154.014 160.615 149.310  0.00  0.00     0.204 C 
BRANCH  12  15
HETATM   15  O   UNK     0     157.116 159.864 147.325  0.00  0.00    -0.391 OA
HETATM   16  H   UNK     0     157.642 159.497 148.057  0.00  0.00     0.210 HD
ENDBRANCH  12  15
BRANCH  13  17
HETATM   17  O   UNK     0     156.362 160.584 149.886  0.00  0.00    -0.390 OA
HETATM   18  H   UNK     0     156.175 161.259 150.561  0.00  0.00     0.210 HD
ENDBRANCH  13  17
BRANCH  14  19
HETATM   19  O   UNK     0     153.104 161.065 148.307  0.00  0.00    -0.388 OA
HETATM   20  H   UNK     0     152.537 160.319 148.051  0.00  0.00     0.210 HD
ENDBRANCH  14  19
ENDBRANCH   8   9
ENDBRANCH   7   8
ENDBRANCH   2   7
BRANCH   6  21
HETATM   21  O   UNK     0     152.308 153.893 150.557  0.00  0.00    -0.355 OA
BRANCH  21  22
HETATM   22  C   UNK     0     151.049 153.531 151.103  0.00  0.00     0.198 C 
BRANCH  22  23
HETATM   23  C   UNK     0     149.989 154.367 150.460  0.00  0.00     0.000 C 
HETATM   24  C   UNK     0     148.836 154.689 151.068  0.00  0.00     0.009 C 
BRANCH  24  25
HETATM   25  C   UNK     0     147.771 155.520 150.482  0.00  0.00    -0.036 A 
HETATM   26  C   UNK     0     147.907 156.899 150.483  0.00  0.00     0.011 A 
HETATM   27  C   UNK     0     146.899 157.688 149.928  0.00  0.00     0.001 A 
HETATM   28  C   UNK     0     145.767 157.085 149.378  0.00  0.00     0.000 A 
HETATM   29  C   UNK     0     145.644 155.696 149.383  0.00  0.00     0.001 A 
HETATM   30  C   UNK     0     146.652 154.908 149.938  0.00  0.00     0.011 A 
ENDBRANCH  24  25
ENDBRANCH  22  23
ENDBRANCH  21  22
ENDBRANCH   6  21
BRANCH   3  31
HETATM   31  O   UNK     0     155.903 157.298 152.990  0.00  0.00    -0.390 OA
HETATM   32  H   UNK     0     156.479 156.686 153.481  0.00  0.00     0.210 HD
ENDBRANCH   3  31
BRANCH   5  33
HETATM   33  O   UNK     0     154.624 152.833 151.792  0.00  0.00    -0.388 OA
HETATM   34  H   UNK     0     153.776 152.590 152.199  0.00  0.00     0.210 HD
ENDBRANCH   5  33
BRANCH   4  35
HETATM   35  O   UNK     0     156.821 154.794 151.874  0.00  0.00    -0.390 OA
HETATM   36  H   UNK     0     156.873 154.790 150.903  0.00  0.00     0.210 HD
ENDBRANCH   4  35
TORSDOF 13
ENDMDL
MODEL 5
REMARK VINA RESULT:      -8.0      3.478      6.151
REMARK  13 active torsions:
REMARK  status: ('A' for Active; 'I' for Inactive)
REMARK    1  A    between atoms: O_2  and  C_16 
REMARK    2  A    between atoms: O_2  and  C_17 
REMARK    3  A    between atoms: O_4  and  C_12 
REMARK    4  A    between atoms: O_5  and  C_13 
REMARK    5  A    between atoms: O_6  and  C_15 
REMARK    6  A    between atoms: O_6  and  C_22 
REMARK    7  A    between atoms: O_7  and  C_14 
REMARK    8  A    between atoms: O_8  and  C_18 
REMARK    9  A    between atoms: O_9  and  C_19 
REMARK   10  A    between atoms: O_10  and  C_20 
REMARK   11  A    between atoms: C_11  and  C_16 
REMARK   12  A    between atoms: C_22  and  C_23 
REMARK   13  A    between atoms: C_24  and  C_25 
ROOT
HETATM    1  O   UNK     0     150.861 152.506 147.719  0.00  0.00    -0.348 OA
HETATM    2  C   UNK     0     152.041 152.792 148.471  0.00  0.00     0.180 C 
HETATM    3  C   UNK     0     153.281 152.569 147.601  0.00  0.00     0.180 C 
HETATM    4  C   UNK     0     153.298 151.151 147.034  0.00  0.00     0.183 C 
HETATM    5  C   UNK     0     151.957 150.796 146.390  0.00  0.00     0.204 C 
HETATM    6  C   UNK     0     150.789 151.143 147.312  0.00  0.00     0.291 C 
ENDROOT
BRANCH   2   7
HETATM    7  C   UNK     0     151.942 154.236 148.954  0.00  0.00     0.205 C 
BRANCH   7   8
HETATM    8  O   UNK     0     153.079 154.525 149.747  0.00  0.00    -0.356 OA
BRANCH   8   9
HETATM    9  C   UNK     0     152.847 154.247 151.124  0.00  0.00     0.290 C 
HETATM   10  O   UNK     0     152.660 155.443 151.889  0.00  0.00    -0.356 OA
HETATM   11  C   UNK     0     153.827 156.256 151.979  0.00  0.00     0.205 C 
HETATM   12  C   UNK     0     154.961 155.495 152.654  0.00  0.00     0.173 C 
HETATM   13  C   UNK     0     155.274 154.206 151.891  0.00  0.00     0.182 C 
HETATM   14  C   UNK     0     153.993 153.391 151.685  0.00  0.00     0.204 C 
BRANCH  12  15
HETATM   15  O   UNK     0     156.125 156.305 152.730  0.00  0.00    -0.391 OA
HETATM   16  H   UNK     0     155.838 157.234 152.708  0.00  0.00     0.210 HD
ENDBRANCH  12  15
BRANCH  13  17
HETATM   17  O   UNK     0     155.840 154.534 150.624  0.00  0.00    -0.390 OA
HETATM   18  H   UNK     0     156.073 153.700 150.182  0.00  0.00     0.210 HD
ENDBRANCH  13  17
BRANCH  14  19
HETATM   19  O   UNK     0     153.569 152.852 152.936  0.00  0.00    -0.388 OA
HETATM   20  H   UNK     0     154.355 152.698 153.486  0.00  0.00     0.210 HD
ENDBRANCH  14  19
ENDBRANCH   8   9
ENDBRANCH   7   8
ENDBRANCH   2   7
BRANCH   6  21
HETATM   21  O   UNK     0     149.578 150.918 146.591  0.00  0.00    -0.355 OA
BRANCH  21  22
HETATM   22  C   UNK     0     149.362 151.928 145.617  0.00  0.00     0.198 C 
BRANCH  22  23
HETATM   23  C   UNK     0     148.908 151.281 144.348  0.00  0.00     0.000 C 
HETATM   24  C   UNK     0     148.143 150.178 144.315  0.00  0.00     0.009 C 
BRANCH  24  25
HETATM   25  C   UNK     0     147.660 149.516 143.091  0.00  0.00    -0.036 A 
HETATM   26  C   UNK     0     148.504 148.659 142.404  0.00  0.00     0.011 A 
HETATM   27  C   UNK     0     148.047 148.031 141.245  0.00  0.00     0.001 A 
HETATM   28  C   UNK     0     146.750 148.269 140.790  0.00  0.00     0.000 A 
HETATM   29  C   UNK     0     145.912 149.134 141.492  0.00  0.00     0.001 A 
HETATM   30  C   UNK     0     146.369 149.762 142.651  0.00  0.00     0.011 A 
ENDBRANCH  24  25
ENDBRANCH  22  23
ENDBRANCH  21  22
ENDBRANCH   6  21
BRANCH   3  31
HETATM   31  O   UNK     0     154.452 152.778 148.387  0.00  0.00    -0.390 OA
HETATM   32  H   UNK     0     154.312 152.355 149.252  0.00  0.00     0.210 HD
ENDBRANCH   3  31
BRANCH   5  33
HETATM   33  O   UNK     0     151.917 149.394 146.123  0.00  0.00    -0.388 OA
HETATM   34  H   UNK     0     152.277 148.929 146.896  0.00  0.00     0.210 HD
ENDBRANCH   5  33
BRANCH   4  35
HETATM   35  O   UNK     0     154.332 151.081 146.050  0.00  0.00    -0.390 OA
HETATM   36  H   UNK     0     154.389 151.954 145.626  0.00  0.00     0.210 HD
ENDBRANCH   4  35
TORSDOF 13
ENDMDL
MODEL 6
REMARK VINA RESULT:      -8.0      4.532      7.866
REMARK  13 active torsions:
REMARK  status: ('A' for Active; 'I' for Inactive)
REMARK    1  A    between atoms: O_2  and  C_16 
REMARK    2  A    between atoms: O_2  and  C_17 
REMARK    3  A    between atoms: O_4  and  C_12 
REMARK    4  A    between atoms: O_5  and  C_13 
REMARK    5  A    between atoms: O_6  and  C_15 
REMARK    6  A    between atoms: O_6  and  C_22 
REMARK    7  A    between atoms: O_7  and  C_14 
REMARK    8  A    between atoms: O_8  and  C_18 
REMARK    9  A    between atoms: O_9  and  C_19 
REMARK   10  A    between atoms: O_10  and  C_20 
REMARK   11  A    between atoms: C_11  and  C_16 
REMARK   12  A    between atoms: C_22  and  C_23 
REMARK   13  A    between atoms: C_24  and  C_25 
ROOT
HETATM    1  O   UNK     0     152.597 149.735 146.525  0.00  0.00    -0.348 OA
HETATM    2  C   UNK     0     153.028 151.080 146.737  0.00  0.00     0.180 C 
HETATM    3  C   UNK     0     153.165 151.803 145.394  0.00  0.00     0.180 C 
HETATM    4  C   UNK     0     154.108 151.043 144.463  0.00  0.00     0.183 C 
HETATM    5  C   UNK     0     153.740 149.561 144.390  0.00  0.00     0.204 C 
HETATM    6  C   UNK     0     153.543 148.968 145.784  0.00  0.00     0.291 C 
ENDROOT
BRANCH   2   7
HETATM    7  C   UNK     0     152.002 151.756 147.641  0.00  0.00     0.205 C 
BRANCH   7   8
HETATM    8  O   UNK     0     152.683 152.639 148.513  0.00  0.00    -0.356 OA
BRANCH   8   9
HETATM    9  C   UNK     0     151.785 153.308 149.394  0.00  0.00     0.290 C 
HETATM   10  O   UNK     0     152.312 154.559 149.848  0.00  0.00    -0.356 OA
HETATM   11  C   UNK     0     153.456 154.429 150.690  0.00  0.00     0.205 C 
HETATM   12  C   UNK     0     153.113 153.633 151.942  0.00  0.00     0.173 C 
HETATM   13  C   UNK     0     152.572 152.251 151.572  0.00  0.00     0.182 C 
HETATM   14  C   UNK     0     151.421 152.387 150.569  0.00  0.00     0.204 C 
BRANCH  12  15
HETATM   15  O   UNK     0     154.258 153.496 152.771  0.00  0.00    -0.391 OA
HETATM   16  H   UNK     0     154.163 154.121 153.510  0.00  0.00     0.210 HD
ENDBRANCH  12  15
BRANCH  13  17
HETATM   17  O   UNK     0     153.620 151.474 150.994  0.00  0.00    -0.390 OA
HETATM   18  H   UNK     0     153.214 150.684 150.599  0.00  0.00     0.210 HD
ENDBRANCH  13  17
BRANCH  14  19
HETATM   19  O   UNK     0     150.283 152.940 151.226  0.00  0.00    -0.388 OA
HETATM   20  H   UNK     0     150.052 153.776 150.789  0.00  0.00     0.210 HD
ENDBRANCH  14  19
ENDBRANCH   8   9
ENDBRANCH   7   8
ENDBRANCH   2   7
BRANCH   6  21
HETATM   21  O   UNK     0     153.066 147.632 145.630  0.00  0.00    -0.355 OA
BRANCH  21  22
HETATM   22  C   UNK     0     151.671 147.609 145.369  0.00  0.00     0.198 C 
BRANCH  22  23
HETATM   23  C   UNK     0     151.405 146.639 144.263  0.00  0.00     0.000 C 
HETATM   24  C   UNK     0     152.073 145.484 144.119  0.00  0.00     0.009 C 
BRANCH  24  25
HETATM   25  C   UNK     0     151.837 144.492 143.056  0.00  0.00    -0.036 A 
HETATM   26  C   UNK     0     152.401 143.231 143.166  0.00  0.00     0.011 A 
HETATM   27  C   UNK     0     152.177 142.291 142.159  0.00  0.00     0.001 A 
HETATM   28  C   UNK     0     151.391 142.625 141.057  0.00  0.00     0.000 A 
HETATM   29  C   UNK     0     150.830 143.898 140.960  0.00  0.00     0.001 A 
HETATM   30  C   UNK     0     151.054 144.838 141.966  0.00  0.00     0.011 A 
ENDBRANCH  24  25
ENDBRANCH  22  23
ENDBRANCH  21  22
ENDBRANCH   6  21
BRANCH   3  31
HETATM   31  O   UNK     0     153.674 153.115 145.615  0.00  0.00    -0.390 OA
HETATM   32  H   UNK     0     153.725 153.566 144.754  0.00  0.00     0.210 HD
ENDBRANCH   3  31
BRANCH   5  33
HETATM   33  O   UNK     0     154.791 148.844 143.742  0.00  0.00    -0.388 OA
HETATM   34  H   UNK     0     154.809 149.114 142.809  0.00  0.00     0.210 HD
ENDBRANCH   5  33
BRANCH   4  35
HETATM   35  O   UNK     0     154.006 151.624 143.162  0.00  0.00    -0.390 OA
HETATM   36  H   UNK     0     153.239 152.222 143.169  0.00  0.00     0.210 HD
ENDBRANCH   4  35
TORSDOF 13
ENDMDL
MODEL 7
REMARK VINA RESULT:      -8.0      3.584      6.725
REMARK  13 active torsions:
REMARK  status: ('A' for Active; 'I' for Inactive)
REMARK    1  A    between atoms: O_2  and  C_16 
REMARK    2  A    between atoms: O_2  and  C_17 
REMARK    3  A    between atoms: O_4  and  C_12 
REMARK    4  A    between atoms: O_5  and  C_13 
REMARK    5  A    between atoms: O_6  and  C_15 
REMARK    6  A    between atoms: O_6  and  C_22 
REMARK    7  A    between atoms: O_7  and  C_14 
REMARK    8  A    between atoms: O_8  and  C_18 
REMARK    9  A    between atoms: O_9  and  C_19 
REMARK   10  A    between atoms: O_10  and  C_20 
REMARK   11  A    between atoms: C_11  and  C_16 
REMARK   12  A    between atoms: C_22  and  C_23 
REMARK   13  A    between atoms: C_24  and  C_25 
ROOT
HETATM    1  O   UNK     0     153.123 156.391 150.859  0.00  0.00    -0.348 OA
HETATM    2  C   UNK     0     154.358 155.814 151.286  0.00  0.00     0.180 C 
HETATM    3  C   UNK     0     154.941 156.627 152.445  0.00  0.00     0.180 C 
HETATM    4  C   UNK     0     155.106 158.094 152.049  0.00  0.00     0.183 C 
HETATM    5  C   UNK     0     153.824 158.646 151.423  0.00  0.00     0.204 C 
HETATM    6  C   UNK     0     153.286 157.710 150.343  0.00  0.00     0.291 C 
ENDROOT
BRANCH   2   7
HETATM    7  C   UNK     0     154.076 154.371 151.694  0.00  0.00     0.205 C 
BRANCH   7   8
HETATM    8  O   UNK     0     153.863 153.606 150.522  0.00  0.00    -0.356 OA
BRANCH   8   9
HETATM    9  C   UNK     0     152.861 152.612 150.716  0.00  0.00     0.290 C 
HETATM   10  O   UNK     0     152.920 151.589 149.715  0.00  0.00    -0.356 OA
HETATM   11  C   UNK     0     152.586 152.046 148.407  0.00  0.00     0.205 C 
HETATM   12  C   UNK     0     151.163 152.590 148.374  0.00  0.00     0.173 C 
HETATM   13  C   UNK     0     150.997 153.725 149.387  0.00  0.00     0.182 C 
HETATM   14  C   UNK     0     151.474 153.271 150.770  0.00  0.00     0.204 C 
BRANCH  12  15
HETATM   15  O   UNK     0     150.840 153.055 147.072  0.00  0.00    -0.391 OA
HETATM   16  H   UNK     0     151.339 152.514 146.434  0.00  0.00     0.210 HD
ENDBRANCH  12  15
BRANCH  13  17
HETATM   17  O   UNK     0     151.763 154.851 148.963  0.00  0.00    -0.390 OA
HETATM   18  H   UNK     0     152.700 154.645 149.123  0.00  0.00     0.210 HD
ENDBRANCH  13  17
BRANCH  14  19
HETATM   19  O   UNK     0     150.554 152.318 151.300  0.00  0.00    -0.388 OA
HETATM   20  H   UNK     0     149.877 152.796 151.808  0.00  0.00     0.210 HD
ENDBRANCH  14  19
ENDBRANCH   8   9
ENDBRANCH   7   8
ENDBRANCH   2   7
BRANCH   6  21
HETATM   21  O   UNK     0     152.024 158.217 149.911  0.00  0.00    -0.355 OA
BRANCH  21  22
HETATM   22  C   UNK     0     151.106 158.307 150.990  0.00  0.00     0.198 C 
BRANCH  22  23
HETATM   23  C   UNK     0     149.878 157.530 150.642  0.00  0.00     0.000 C 
HETATM   24  C   UNK     0     148.699 158.104 150.354  0.00  0.00     0.009 C 
BRANCH  24  25
HETATM   25  C   UNK     0     147.468 157.380 149.992  0.00  0.00    -0.036 A 
HETATM   26  C   UNK     0     146.384 158.089 149.498  0.00  0.00     0.011 A 
HETATM   27  C   UNK     0     145.218 157.405 149.155  0.00  0.00     0.001 A 
HETATM   28  C   UNK     0     145.152 156.020 149.310  0.00  0.00     0.000 A 
HETATM   29  C   UNK     0     146.250 155.320 149.807  0.00  0.00     0.001 A 
HETATM   30  C   UNK     0     147.417 156.005 150.151  0.00  0.00     0.011 A 
ENDBRANCH  24  25
ENDBRANCH  22  23
ENDBRANCH  21  22
ENDBRANCH   6  21
BRANCH   3  31
HETATM   31  O   UNK     0     156.211 156.090 152.805  0.00  0.00    -0.390 OA
HETATM   32  H   UNK     0     156.342 156.242 153.758  0.00  0.00     0.210 HD
ENDBRANCH   3  31
BRANCH   5  33
HETATM   33  O   UNK     0     154.098 159.912 150.824  0.00  0.00    -0.388 OA
HETATM   34  H   UNK     0     154.945 160.235 151.174  0.00  0.00     0.210 HD
ENDBRANCH   5  33
BRANCH   4  35
HETATM   35  O   UNK     0     155.418 158.837 153.229  0.00  0.00    -0.390 OA
HETATM   36  H   UNK     0     156.088 158.333 153.721  0.00  0.00     0.210 HD
ENDBRANCH   4  35
TORSDOF 13
ENDMDL
MODEL 8
REMARK VINA RESULT:      -7.9      4.185      7.452
REMARK  13 active torsions:
REMARK  status: ('A' for Active; 'I' for Inactive)
REMARK    1  A    between atoms: O_2  and  C_16 
REMARK    2  A    between atoms: O_2  and  C_17 
REMARK    3  A    between atoms: O_4  and  C_12 
REMARK    4  A    between atoms: O_5  and  C_13 
REMARK    5  A    between atoms: O_6  and  C_15 
REMARK    6  A    between atoms: O_6  and  C_22 
REMARK    7  A    between atoms: O_7  and  C_14 
REMARK    8  A    between atoms: O_8  and  C_18 
REMARK    9  A    between atoms: O_9  and  C_19 
REMARK   10  A    between atoms: O_10  and  C_20 
REMARK   11  A    between atoms: C_11  and  C_16 
REMARK   12  A    between atoms: C_22  and  C_23 
REMARK   13  A    between atoms: C_24  and  C_25 
ROOT
HETATM    1  O   UNK     0     150.604 151.641 146.298  0.00  0.00    -0.348 OA
HETATM    2  C   UNK     0     151.638 151.926 147.242  0.00  0.00     0.180 C 
HETATM    3  C   UNK     0     152.985 151.438 146.703  0.00  0.00     0.180 C 
HETATM    4  C   UNK     0     152.925 149.951 146.356  0.00  0.00     0.183 C 
HETATM    5  C   UNK     0     151.704 149.633 145.492  0.00  0.00     0.204 C 
HETATM    6  C   UNK     0     150.433 150.243 146.079  0.00  0.00     0.291 C 
ENDROOT
BRANCH   2   7
HETATM    7  C   UNK     0     151.638 153.432 147.485  0.00  0.00     0.205 C 
BRANCH   7   8
HETATM    8  O   UNK     0     152.303 153.690 148.708  0.00  0.00    -0.356 OA
BRANCH   8   9
HETATM    9  C   UNK     0     151.384 153.894 149.776  0.00  0.00     0.290 C 
HETATM   10  O   UNK     0     151.795 154.959 150.641  0.00  0.00    -0.356 OA
HETATM   11  C   UNK     0     152.986 154.677 151.372  0.00  0.00     0.205 C 
HETATM   12  C   UNK     0     152.795 153.457 152.262  0.00  0.00     0.173 C 
HETATM   13  C   UNK     0     152.388 152.240 151.429  0.00  0.00     0.182 C 
HETATM   14  C   UNK     0     151.181 152.583 150.550  0.00  0.00     0.204 C 
BRANCH  12  15
HETATM   15  O   UNK     0     153.989 153.173 152.978  0.00  0.00    -0.391 OA
HETATM   16  H   UNK     0     153.753 152.596 153.725  0.00  0.00     0.210 HD
ENDBRANCH  12  15
BRANCH  13  17
HETATM   17  O   UNK     0     153.484 151.846 150.604  0.00  0.00    -0.390 OA
HETATM   18  H   UNK     0     153.199 151.932 149.678  0.00  0.00     0.210 HD
ENDBRANCH  13  17
BRANCH  14  19
HETATM   19  O   UNK     0     150.024 152.729 151.371  0.00  0.00    -0.388 OA
HETATM   20  H   UNK     0     150.301 152.689 152.301  0.00  0.00     0.210 HD
ENDBRANCH  14  19
ENDBRANCH   8   9
ENDBRANCH   7   8
ENDBRANCH   2   7
BRANCH   6  21
HETATM   21  O   UNK     0     149.371 150.027 145.150  0.00  0.00    -0.355 OA
BRANCH  21  22
HETATM   22  C   UNK     0     149.462 150.913 144.046  0.00  0.00     0.198 C 
BRANCH  22  23
HETATM   23  C   UNK     0     149.165 150.153 142.793  0.00  0.00     0.000 C 
HETATM   24  C   UNK     0     149.080 148.814 142.747  0.00  0.00     0.009 C 
BRANCH  24  25
HETATM   25  C   UNK     0     148.775 148.024 141.542  0.00  0.00    -0.036 A 
HETATM   26  C   UNK     0     149.790 147.315 140.920  0.00  0.00     0.011 A 
HETATM   27  C   UNK     0     149.502 146.566 139.778  0.00  0.00     0.001 A 
HETATM   28  C   UNK     0     148.202 146.536 139.276  0.00  0.00     0.000 A 
HETATM   29  C   UNK     0     147.190 147.254 139.912  0.00  0.00     0.001 A 
HETATM   30  C   UNK     0     147.478 148.003 141.054  0.00  0.00     0.011 A 
ENDBRANCH  24  25
ENDBRANCH  22  23
ENDBRANCH  21  22
ENDBRANCH   6  21
BRANCH   3  31
HETATM   31  O   UNK     0     153.993 151.653 147.687  0.00  0.00    -0.390 OA
HETATM   32  H   UNK     0     153.734 152.427 148.217  0.00  0.00     0.210 HD
ENDBRANCH   3  31
BRANCH   5  33
HETATM   33  O   UNK     0     151.531 148.218 145.420  0.00  0.00    -0.388 OA
HETATM   34  H   UNK     0     152.217 147.859 144.832  0.00  0.00     0.210 HD
ENDBRANCH   5  33
BRANCH   4  35
HETATM   35  O   UNK     0     154.115 149.616 145.641  0.00  0.00    -0.390 OA
HETATM   36  H   UNK     0     153.850 149.102 144.860  0.00  0.00     0.210 HD
ENDBRANCH   4  35
TORSDOF 13
ENDMDL
MODEL 9
REMARK VINA RESULT:      -7.8      2.674      6.890
REMARK  13 active torsions:
REMARK  status: ('A' for Active; 'I' for Inactive)
REMARK    1  A    between atoms: O_2  and  C_16 
REMARK    2  A    between atoms: O_2  and  C_17 
REMARK    3  A    between atoms: O_4  and  C_12 
REMARK    4  A    between atoms: O_5  and  C_13 
REMARK    5  A    between atoms: O_6  and  C_15 
REMARK    6  A    between atoms: O_6  and  C_22 
REMARK    7  A    between atoms: O_7  and  C_14 
REMARK    8  A    between atoms: O_8  and  C_18 
REMARK    9  A    between atoms: O_9  and  C_19 
REMARK   10  A    between atoms: O_10  and  C_20 
REMARK   11  A    between atoms: C_11  and  C_16 
REMARK   12  A    between atoms: C_22  and  C_23 
REMARK   13  A    between atoms: C_24  and  C_25 
ROOT
HETATM    1  O   UNK     0     154.228 155.836 150.090  0.00  0.00    -0.348 OA
HETATM    2  C   UNK     0     154.818 154.540 150.199  0.00  0.00     0.180 C 
HETATM    3  C   UNK     0     154.841 154.098 151.665  0.00  0.00     0.180 C 
HETATM    4  C   UNK     0     155.565 155.128 152.530  0.00  0.00     0.183 C 
HETATM    5  C   UNK     0     155.041 156.540 152.266  0.00  0.00     0.204 C 
HETATM    6  C   UNK     0     154.979 156.838 150.769  0.00  0.00     0.291 C 
ENDROOT
BRANCH   2   7
HETATM    7  C   UNK     0     154.000 153.586 149.334  0.00  0.00     0.205 C 
BRANCH   7   8
HETATM    8  O   UNK     0     152.733 154.170 149.093  0.00  0.00    -0.356 OA
BRANCH   8   9
HETATM    9  C   UNK     0     151.670 153.297 149.461  0.00  0.00     0.290 C 
HETATM   10  O   UNK     0     150.540 153.432 148.592  0.00  0.00    -0.356 OA
HETATM   11  C   UNK     0     149.887 154.695 148.691  0.00  0.00     0.205 C 
HETATM   12  C   UNK     0     149.365 154.921 150.104  0.00  0.00     0.173 C 
HETATM   13  C   UNK     0     150.505 154.836 151.120  0.00  0.00     0.182 C 
HETATM   14  C   UNK     0     151.285 153.531 150.930  0.00  0.00     0.204 C 
BRANCH  12  15
HETATM   15  O   UNK     0     148.726 156.186 150.200  0.00  0.00    -0.391 OA
HETATM   16  H   UNK     0     148.911 156.672 149.377  0.00  0.00     0.210 HD
ENDBRANCH  12  15
BRANCH  13  17
HETATM   17  O   UNK     0     151.381 155.948 150.939  0.00  0.00    -0.390 OA
HETATM   18  H   UNK     0     151.200 156.323 150.059  0.00  0.00     0.210 HD
ENDBRANCH  13  17
BRANCH  14  19
HETATM   19  O   UNK     0     150.481 152.433 151.356  0.00  0.00    -0.388 OA
HETATM   20  H   UNK     0     149.552 152.716 151.357  0.00  0.00     0.210 HD
ENDBRANCH  14  19
ENDBRANCH   8   9
ENDBRANCH   7   8
ENDBRANCH   2   7
BRANCH   6  21
HETATM   21  O   UNK     0     154.352 158.108 150.599  0.00  0.00    -0.355 OA
BRANCH  21  22
HETATM   22  C   UNK     0     155.265 159.072 150.097  0.00  0.00     0.198 C 
BRANCH  22  23
HETATM   23  C   UNK     0     155.057 159.207 148.622  0.00  0.00     0.000 C 
HETATM   24  C   UNK     0     153.879 159.539 148.072  0.00  0.00     0.009 C 
BRANCH  24  25
HETATM   25  C   UNK     0     153.631 159.698 146.628  0.00  0.00    -0.036 A 
HETATM   26  C   UNK     0     154.651 159.430 145.730  0.00  0.00     0.011 A 
HETATM   27  C   UNK     0     154.417 159.581 144.363  0.00  0.00     0.001 A 
HETATM   28  C   UNK     0     153.164 159.996 143.913  0.00  0.00     0.000 A 
HETATM   29  C   UNK     0     152.146 160.262 144.828  0.00  0.00     0.001 A 
HETATM   30  C   UNK     0     152.381 160.111 146.196  0.00  0.00     0.011 A 
ENDBRANCH  24  25
ENDBRANCH  22  23
ENDBRANCH  21  22
ENDBRANCH   6  21
BRANCH   3  31
HETATM   31  O   UNK     0     155.507 152.842 151.768  0.00  0.00    -0.390 OA
HETATM   32  H   UNK     0     155.121 152.359 152.520  0.00  0.00     0.210 HD
ENDBRANCH   3  31
BRANCH   5  33
HETATM   33  O   UNK     0     155.914 157.490 152.877  0.00  0.00    -0.388 OA
HETATM   34  H   UNK     0     155.368 158.163 153.316  0.00  0.00     0.210 HD
ENDBRANCH   5  33
BRANCH   4  35
HETATM   35  O   UNK     0     155.344 154.786 153.900  0.00  0.00    -0.390 OA
HETATM   36  H   UNK     0     156.142 155.040 154.395  0.00  0.00     0.210 HD
ENDBRANCH   4  35
TORSDOF 13
ENDMDL
MODEL 10
REMARK VINA RESULT:      -7.8      3.048      4.535
REMARK  13 active torsions:
REMARK  status: ('A' for Active; 'I' for Inactive)
REMARK    1  A    between atoms: O_2  and  C_16 
REMARK    2  A    between atoms: O_2  and  C_17 
REMARK    3  A    between atoms: O_4  and  C_12 
REMARK    4  A    between atoms: O_5  and  C_13 
REMARK    5  A    between atoms: O_6  and  C_15 
REMARK    6  A    between atoms: O_6  and  C_22 
REMARK    7  A    between atoms: O_7  and  C_14 
REMARK    8  A    between atoms: O_8  and  C_18 
REMARK    9  A    between atoms: O_9  and  C_19 
REMARK   10  A    between atoms: O_10  and  C_20 
REMARK   11  A    between atoms: C_11  and  C_16 
REMARK   12  A    between atoms: C_22  and  C_23 
REMARK   13  A    between atoms: C_24  and  C_25 
ROOT
HETATM    1  O   UNK     0     152.809 154.921 150.802  0.00  0.00    -0.348 OA
HETATM    2  C   UNK     0     152.658 155.746 151.958  0.00  0.00     0.180 C 
HETATM    3  C   UNK     0     154.028 156.242 152.428  0.00  0.00     0.180 C 
HETATM    4  C   UNK     0     154.970 155.068 152.687  0.00  0.00     0.183 C 
HETATM    5  C   UNK     0     154.980 154.096 151.507  0.00  0.00     0.204 C 
HETATM    6  C   UNK     0     153.561 153.740 151.068  0.00  0.00     0.291 C 
ENDROOT
BRANCH   2   7
HETATM    7  C   UNK     0     151.736 156.903 151.582  0.00  0.00     0.205 C 
BRANCH   7   8
HETATM    8  O   UNK     0     150.445 156.383 151.321  0.00  0.00    -0.356 OA
BRANCH   8   9
HETATM    9  C   UNK     0     149.866 156.966 150.158  0.00  0.00     0.290 C 
HETATM   10  O   UNK     0     148.447 157.108 150.279  0.00  0.00    -0.356 OA
HETATM   11  C   UNK     0     147.747 155.866 150.325  0.00  0.00     0.205 C 
HETATM   12  C   UNK     0     147.987 155.067 149.050  0.00  0.00     0.173 C 
HETATM   13  C   UNK     0     149.482 154.823 148.841  0.00  0.00     0.182 C 
HETATM   14  C   UNK     0     150.249 156.147 148.916  0.00  0.00     0.204 C 
BRANCH  12  15
HETATM   15  O   UNK     0     147.299 153.826 149.107  0.00  0.00    -0.391 OA
HETATM   16  H   UNK     0     147.932 153.153 149.411  0.00  0.00     0.210 HD
ENDBRANCH  12  15
BRANCH  13  17
HETATM   17  O   UNK     0     149.961 153.935 149.850  0.00  0.00    -0.390 OA
HETATM   18  H   UNK     0     149.201 153.685 150.404  0.00  0.00     0.210 HD
ENDBRANCH  13  17
BRANCH  14  19
HETATM   19  O   UNK     0     149.954 156.931 147.762  0.00  0.00    -0.388 OA
HETATM   20  H   UNK     0     150.369 156.510 146.991  0.00  0.00     0.210 HD
ENDBRANCH  14  19
ENDBRANCH   8   9
ENDBRANCH   7   8
ENDBRANCH   2   7
BRANCH   6  21
HETATM   21  O   UNK     0     153.652 152.950 149.883  0.00  0.00    -0.355 OA
BRANCH  21  22
HETATM   22  C   UNK     0     153.351 153.716 148.727  0.00  0.00     0.198 C 
BRANCH  22  23
HETATM   23  C   UNK     0     153.122 152.784 147.580  0.00  0.00     0.000 C 
HETATM   24  C   UNK     0     153.056 153.190 146.302  0.00  0.00     0.009 C 
BRANCH  24  25
HETATM   25  C   UNK     0     152.847 152.309 145.140  0.00  0.00    -0.036 A 
HETATM   26  C   UNK     0     153.909 152.045 144.289  0.00  0.00     0.011 A 
HETATM   27  C   UNK     0     153.712 151.211 143.189  0.00  0.00     0.001 A 
HETATM   28  C   UNK     0     152.456 150.651 142.955  0.00  0.00     0.000 A 
HETATM   29  C   UNK     0     151.397 150.926 143.820  0.00  0.00     0.001 A 
HETATM   30  C   UNK     0     151.594 151.760 144.920  0.00  0.00     0.011 A 
ENDBRANCH  24  25
ENDBRANCH  22  23
ENDBRANCH  21  22
ENDBRANCH   6  21
BRANCH   3  31
HETATM   31  O   UNK     0     153.870 156.995 153.629  0.00  0.00    -0.390 OA
HETATM   32  H   UNK     0     153.696 157.920 153.382  0.00  0.00     0.210 HD
ENDBRANCH   3  31
BRANCH   5  33
HETATM   33  O   UNK     0     155.645 152.892 151.891  0.00  0.00    -0.388 OA
HETATM   34  H   UNK     0     155.158 152.143 151.509  0.00  0.00     0.210 HD
ENDBRANCH   5  33
BRANCH   4  35
HETATM   35  O   UNK     0     156.285 155.592 152.884  0.00  0.00    -0.390 OA
HETATM   36  H   UNK     0     156.598 155.921 152.024  0.00  0.00     0.210 HD
ENDBRANCH   4  35
TORSDOF 13
ENDMDL
