MODEL 1
REMARK VINA RESULT:      -3.6      0.000      0.000
REMARK  10 active torsions:
REMARK  status: ('A' for Active; 'I' for Inactive)
REMARK    1  A    between atoms: C_1  and  C_16 
REMARK    2  A    between atoms: C_1  and  C_2 
REMARK    3  A    between atoms: C_2  and  C_5 
REMARK    4  A    between atoms: C_4  and  C_10 
REMARK    5  A    between atoms: C_6  and  O_12 
REMARK    6  A    between atoms: C_7  and  O_14 
REMARK    7  A    between atoms: C_16  and  C_18 
REMARK    8  A    between atoms: C_19  and  C_20 
REMARK    9  A    between atoms: C_23  and  O_28 
REMARK   10  A    between atoms: C_24  and  O_26 
ROOT
ATOM      1  C   UNL     1      -8.281  -3.635  10.411  0.00  0.00     0.158 C 
ENDROOT
BRANCH   1   2
ATOM      2  C   UNL     1      -7.128  -2.736  10.812  0.00  0.00     0.164 C 
ATOM      3  O   UNL     1      -7.299  -1.633  11.327  0.00  0.00    -0.292 OA
BRANCH   2   4
ATOM      4  C   UNL     1      -5.762  -3.293  10.586  0.00  0.00     0.047 C 
ATOM      5  C   UNL     1      -5.568  -4.619  10.541  0.00  0.00     0.011 C 
BRANCH   5   6
ATOM      6  C   UNL     1      -4.262  -5.267  10.334  0.00  0.00    -0.021 A 
ATOM      7  C   UNL     1      -3.420  -4.796   9.340  0.00  0.00     0.057 A 
ATOM      8  C   UNL     1      -2.184  -5.412   9.143  0.00  0.00     0.162 A 
ATOM      9  C   UNL     1      -1.807  -6.489   9.944  0.00  0.00     0.158 A 
ATOM     10  C   UNL     1      -2.665  -6.953  10.941  0.00  0.00     0.050 A 
ATOM     11  C   UNL     1      -3.902  -6.337  11.138  0.00  0.00     0.012 A 
BRANCH   8  12
ATOM     12  O   UNL     1      -1.353  -4.950   8.168  0.00  0.00    -0.491 OA
ATOM     13  C   UNL     1      -1.738  -5.198   6.817  0.00  0.00     0.277 C 
ENDBRANCH   8  12
BRANCH   9  14
ATOM     14  O   UNL     1      -0.601  -7.098   9.764  0.00  0.00    -0.503 OA
ATOM     15  H   UNL     1      -0.587  -7.928  10.270  0.00  0.00     0.292 HD
ENDBRANCH   9  14
ENDBRANCH   5   6
ENDBRANCH   2   4
ENDBRANCH   1   2
BRANCH   1  16
ATOM     16  C   UNL     1      -8.852  -3.382   9.029  0.00  0.00     0.164 C 
ATOM     17  O   UNL     1      -9.842  -2.681   8.842  0.00  0.00    -0.292 OA
BRANCH  16  18
ATOM     18  C   UNL     1      -8.103  -4.002   7.896  0.00  0.00     0.047 C 
ATOM     19  C   UNL     1      -7.811  -5.310   7.912  0.00  0.00     0.011 C 
BRANCH  19  20
ATOM     20  C   UNL     1      -7.068  -6.014   6.851  0.00  0.00    -0.021 A 
ATOM     21  C   UNL     1      -5.840  -6.584   7.146  0.00  0.00     0.057 A 
ATOM     22  C   UNL     1      -5.138  -7.250   6.142  0.00  0.00     0.162 A 
ATOM     23  C   UNL     1      -5.672  -7.336   4.857  0.00  0.00     0.158 A 
ATOM     24  C   UNL     1      -6.910  -6.758   4.575  0.00  0.00     0.050 A 
ATOM     25  C   UNL     1      -7.613  -6.092   5.580  0.00  0.00     0.012 A 
BRANCH  22  26
ATOM     26  O   UNL     1      -3.930  -7.812   6.429  0.00  0.00    -0.491 OA
ATOM     27  C   UNL     1      -3.843  -8.590   7.621  0.00  0.00     0.277 C 
ENDBRANCH  22  26
BRANCH  23  28
ATOM     28  O   UNL     1      -4.996  -7.985   3.868  0.00  0.00    -0.503 OA
ATOM     29  H   UNL     1      -4.135  -8.268   4.221  0.00  0.00     0.292 HD
ENDBRANCH  23  28
ENDBRANCH  19  20
ENDBRANCH  16  18
ENDBRANCH   1  16
TORSDOF 10
ENDMDL
MODEL 2
REMARK VINA RESULT:      -3.6      9.297     10.757
REMARK  10 active torsions:
REMARK  status: ('A' for Active; 'I' for Inactive)
REMARK    1  A    between atoms: C_1  and  C_16 
REMARK    2  A    between atoms: C_1  and  C_2 
REMARK    3  A    between atoms: C_2  and  C_5 
REMARK    4  A    between atoms: C_4  and  C_10 
REMARK    5  A    between atoms: C_6  and  O_12 
REMARK    6  A    between atoms: C_7  and  O_14 
REMARK    7  A    between atoms: C_16  and  C_18 
REMARK    8  A    between atoms: C_19  and  C_20 
REMARK    9  A    between atoms: C_23  and  O_28 
REMARK   10  A    between atoms: C_24  and  O_26 
ROOT
ATOM      1  C   UNL     1      -3.922   7.002   8.799  0.00  0.00     0.158 C 
ENDROOT
BRANCH   1   2
ATOM      2  C   UNL     1      -4.086   6.288  10.127  0.00  0.00     0.164 C 
ATOM      3  O   UNL     1      -4.996   6.550  10.910  0.00  0.00    -0.292 OA
BRANCH   2   4
ATOM      4  C   UNL     1      -3.095   5.208  10.409  0.00  0.00     0.047 C 
ATOM      5  C   UNL     1      -1.781   5.449  10.310  0.00  0.00     0.011 C 
BRANCH   5   6
ATOM      6  C   UNL     1      -0.725   4.452  10.556  0.00  0.00    -0.021 A 
ATOM      7  C   UNL     1      -0.014   3.937   9.484  0.00  0.00     0.057 A 
ATOM      8  C   UNL     1       0.984   2.991   9.718  0.00  0.00     0.162 A 
ATOM      9  C   UNL     1       1.258   2.574  11.020  0.00  0.00     0.158 A 
ATOM     10  C   UNL     1       0.534   3.101  12.089  0.00  0.00     0.050 A 
ATOM     11  C   UNL     1      -0.465   4.047  11.856  0.00  0.00     0.012 A 
BRANCH   8  12
ATOM     12  O   UNL     1       1.686   2.485   8.666  0.00  0.00    -0.491 OA
ATOM     13  C   UNL     1       0.957   1.719   7.708  0.00  0.00     0.277 C 
ENDBRANCH   8  12
BRANCH   9  14
ATOM     14  O   UNL     1       2.233   1.653  11.262  0.00  0.00    -0.503 OA
ATOM     15  H   UNL     1       3.095   2.101  11.275  0.00  0.00     0.292 HD
ENDBRANCH   9  14
ENDBRANCH   5   6
ENDBRANCH   2   4
ENDBRANCH   1   2
BRANCH   1  16
ATOM     16  C   UNL     1      -4.422   6.241   7.587  0.00  0.00     0.164 C 
ATOM     17  O   UNL     1      -5.611   5.992   7.407  0.00  0.00    -0.292 OA
BRANCH  16  18
ATOM     18  C   UNL     1      -3.378   5.849   6.593  0.00  0.00     0.047 C 
ATOM     19  C   UNL     1      -2.358   5.061   6.957  0.00  0.00     0.011 C 
BRANCH  19  20
ATOM     20  C   UNL     1      -1.273   4.627   6.058  0.00  0.00    -0.021 A 
ATOM     21  C   UNL     1      -1.402   3.433   5.366  0.00  0.00     0.057 A 
ATOM     22  C   UNL     1      -0.375   3.023   4.516  0.00  0.00     0.162 A 
ATOM     23  C   UNL     1       0.766   3.811   4.370  0.00  0.00     0.158 A 
ATOM     24  C   UNL     1       0.881   5.010   5.072  0.00  0.00     0.050 A 
ATOM     25  C   UNL     1      -0.146   5.421   5.923  0.00  0.00     0.012 A 
BRANCH  22  26
ATOM     26  O   UNL     1      -0.499   1.850   3.835  0.00  0.00    -0.491 OA
ATOM     27  C   UNL     1      -1.631   1.038   4.140  0.00  0.00     0.277 C 
ENDBRANCH  22  26
BRANCH  23  28
ATOM     28  O   UNL     1       1.775   3.421   3.541  0.00  0.00    -0.503 OA
ATOM     29  H   UNL     1       2.276   2.714   3.982  0.00  0.00     0.292 HD
ENDBRANCH  23  28
ENDBRANCH  19  20
ENDBRANCH  16  18
ENDBRANCH   1  16
TORSDOF 10
ENDMDL
MODEL 3
REMARK VINA RESULT:      -3.6      2.840      6.032
REMARK  10 active torsions:
REMARK  status: ('A' for Active; 'I' for Inactive)
REMARK    1  A    between atoms: C_1  and  C_16 
REMARK    2  A    between atoms: C_1  and  C_2 
REMARK    3  A    between atoms: C_2  and  C_5 
REMARK    4  A    between atoms: C_4  and  C_10 
REMARK    5  A    between atoms: C_6  and  O_12 
REMARK    6  A    between atoms: C_7  and  O_14 
REMARK    7  A    between atoms: C_16  and  C_18 
REMARK    8  A    between atoms: C_19  and  C_20 
REMARK    9  A    between atoms: C_23  and  O_28 
REMARK   10  A    between atoms: C_24  and  O_26 
ROOT
ATOM      1  C   UNL     1      -7.090  -8.435   5.043  0.00  0.00     0.158 C 
ENDROOT
BRANCH   1   2
ATOM      2  C   UNL     1      -6.274  -8.168   3.793  0.00  0.00     0.164 C 
ATOM      3  O   UNL     1      -6.779  -8.114   2.674  0.00  0.00    -0.292 OA
BRANCH   2   4
ATOM      4  C   UNL     1      -4.817  -7.926   4.009  0.00  0.00     0.047 C 
ATOM      5  C   UNL     1      -4.081  -8.797   4.713  0.00  0.00     0.011 C 
BRANCH   5   6
ATOM      6  C   UNL     1      -2.643  -8.645   4.991  0.00  0.00    -0.021 A 
ATOM      7  C   UNL     1      -1.776  -8.357   3.949  0.00  0.00     0.057 A 
ATOM      8  C   UNL     1      -0.414  -8.214   4.213  0.00  0.00     0.162 A 
ATOM      9  C   UNL     1       0.063  -8.362   5.515  0.00  0.00     0.158 A 
ATOM     10  C   UNL     1      -0.821  -8.652   6.554  0.00  0.00     0.050 A 
ATOM     11  C   UNL     1      -2.184  -8.795   6.291  0.00  0.00     0.012 A 
BRANCH   8  12
ATOM     12  O   UNL     1       0.440  -7.929   3.191  0.00  0.00    -0.491 OA
ATOM     13  C   UNL     1       0.348  -8.743   2.023  0.00  0.00     0.277 C 
ENDBRANCH   8  12
BRANCH   9  14
ATOM     14  O   UNL     1       1.391  -8.223   5.787  0.00  0.00    -0.503 OA
ATOM     15  H   UNL     1       1.577  -7.290   5.988  0.00  0.00     0.292 HD
ENDBRANCH   9  14
ENDBRANCH   5   6
ENDBRANCH   2   4
ENDBRANCH   1   2
BRANCH   1  16
ATOM     16  C   UNL     1      -7.582  -7.202   5.774  0.00  0.00     0.164 C 
ATOM     17  O   UNL     1      -8.762  -6.863   5.777  0.00  0.00    -0.292 OA
BRANCH  16  18
ATOM     18  C   UNL     1      -6.545  -6.443   6.535  0.00  0.00     0.047 C 
ATOM     19  C   UNL     1      -5.780  -7.065   7.442  0.00  0.00     0.011 C 
BRANCH  19  20
ATOM     20  C   UNL     1      -4.739  -6.406   8.252  0.00  0.00    -0.021 A 
ATOM     21  C   UNL     1      -3.583  -5.957   7.635  0.00  0.00     0.057 A 
ATOM     22  C   UNL     1      -2.598  -5.334   8.402  0.00  0.00     0.162 A 
ATOM     23  C   UNL     1      -2.782  -5.171   9.774  0.00  0.00     0.158 A 
ATOM     24  C   UNL     1      -3.952  -5.629  10.381  0.00  0.00     0.050 A 
ATOM     25  C   UNL     1      -4.937  -6.251   9.614  0.00  0.00     0.012 A 
BRANCH  22  26
ATOM     26  O   UNL     1      -1.460  -4.891   7.798  0.00  0.00    -0.491 OA
ATOM     27  C   UNL     1      -1.376  -5.040   6.382  0.00  0.00     0.277 C 
ENDBRANCH  22  26
BRANCH  23  28
ATOM     28  O   UNL     1      -1.828  -4.563  10.533  0.00  0.00    -0.503 OA
ATOM     29  H   UNL     1      -0.971  -4.981  10.340  0.00  0.00     0.292 HD
ENDBRANCH  23  28
ENDBRANCH  19  20
ENDBRANCH  16  18
ENDBRANCH   1  16
TORSDOF 10
ENDMDL
MODEL 4
REMARK VINA RESULT:      -3.6      9.880     12.325
REMARK  10 active torsions:
REMARK  status: ('A' for Active; 'I' for Inactive)
REMARK    1  A    between atoms: C_1  and  C_16 
REMARK    2  A    between atoms: C_1  and  C_2 
REMARK    3  A    between atoms: C_2  and  C_5 
REMARK    4  A    between atoms: C_4  and  C_10 
REMARK    5  A    between atoms: C_6  and  O_12 
REMARK    6  A    between atoms: C_7  and  O_14 
REMARK    7  A    between atoms: C_16  and  C_18 
REMARK    8  A    between atoms: C_19  and  C_20 
REMARK    9  A    between atoms: C_23  and  O_28 
REMARK   10  A    between atoms: C_24  and  O_26 
ROOT
ATOM      1  C   UNL     1      -0.906   7.128   9.262  0.00  0.00     0.158 C 
ENDROOT
BRANCH   1   2
ATOM      2  C   UNL     1      -2.223   6.468   8.903  0.00  0.00     0.164 C 
ATOM      3  O   UNL     1      -3.309   6.932   9.243  0.00  0.00    -0.292 OA
BRANCH   2   4
ATOM      4  C   UNL     1      -2.124   5.235   8.067  0.00  0.00     0.047 C 
ATOM      5  C   UNL     1      -1.681   5.306   6.803  0.00  0.00     0.011 C 
BRANCH   5   6
ATOM      6  C   UNL     1      -1.556   4.153   5.894  0.00  0.00    -0.021 A 
ATOM      7  C   UNL     1      -1.730   4.341   4.533  0.00  0.00     0.057 A 
ATOM      8  C   UNL     1      -1.613   3.249   3.673  0.00  0.00     0.162 A 
ATOM      9  C   UNL     1      -1.323   1.985   4.186  0.00  0.00     0.158 A 
ATOM     10  C   UNL     1      -1.150   1.812   5.560  0.00  0.00     0.050 A 
ATOM     11  C   UNL     1      -1.268   2.904   6.420  0.00  0.00     0.012 A 
BRANCH   8  12
ATOM     12  O   UNL     1      -1.782   3.430   2.333  0.00  0.00    -0.491 OA
ATOM     13  C   UNL     1      -1.478   4.721   1.810  0.00  0.00     0.277 C 
ENDBRANCH   8  12
BRANCH   9  14
ATOM     14  O   UNL     1      -1.203   0.911   3.356  0.00  0.00    -0.503 OA
ATOM     15  H   UNL     1      -0.305   0.548   3.436  0.00  0.00     0.292 HD
ENDBRANCH   9  14
ENDBRANCH   5   6
ENDBRANCH   2   4
ENDBRANCH   1   2
BRANCH   1  16
ATOM     16  C   UNL     1       0.072   6.255  10.022  0.00  0.00     0.164 C 
ATOM     17  O   UNL     1      -0.101   5.936  11.195  0.00  0.00    -0.292 OA
BRANCH  16  18
ATOM     18  C   UNL     1       1.245   5.762   9.239  0.00  0.00     0.047 C 
ATOM     19  C   UNL     1       1.429   4.449   9.049  0.00  0.00     0.011 C 
BRANCH  19  20
ATOM     20  C   UNL     1       2.557   3.861   8.303  0.00  0.00    -0.021 A 
ATOM     21  C   UNL     1       2.337   3.349   7.034  0.00  0.00     0.057 A 
ATOM     22  C   UNL     1       3.404   2.793   6.329  0.00  0.00     0.162 A 
ATOM     23  C   UNL     1       4.675   2.755   6.902  0.00  0.00     0.158 A 
ATOM     24  C   UNL     1       4.880   3.274   8.180  0.00  0.00     0.050 A 
ATOM     25  C   UNL     1       3.813   3.831   8.886  0.00  0.00     0.012 A 
BRANCH  22  26
ATOM     26  O   UNL     1       3.192   2.290   5.081  0.00  0.00    -0.491 OA
ATOM     27  C   UNL     1       2.215   2.945   4.274  0.00  0.00     0.277 C 
ENDBRANCH  22  26
BRANCH  23  28
ATOM     28  O   UNL     1       5.725   2.215   6.222  0.00  0.00    -0.503 OA
ATOM     29  H   UNL     1       5.373   1.677   5.492  0.00  0.00     0.292 HD
ENDBRANCH  23  28
ENDBRANCH  19  20
ENDBRANCH  16  18
ENDBRANCH   1  16
TORSDOF 10
ENDMDL
MODEL 5
REMARK VINA RESULT:      -3.6      0.224      4.919
REMARK  10 active torsions:
REMARK  status: ('A' for Active; 'I' for Inactive)
REMARK    1  A    between atoms: C_1  and  C_16 
REMARK    2  A    between atoms: C_1  and  C_2 
REMARK    3  A    between atoms: C_2  and  C_5 
REMARK    4  A    between atoms: C_4  and  C_10 
REMARK    5  A    between atoms: C_6  and  O_12 
REMARK    6  A    between atoms: C_7  and  O_14 
REMARK    7  A    between atoms: C_16  and  C_18 
REMARK    8  A    between atoms: C_19  and  C_20 
REMARK    9  A    between atoms: C_23  and  O_28 
REMARK   10  A    between atoms: C_24  and  O_26 
ROOT
ATOM      1  C   UNL     1      -8.290  -3.642  10.420  0.00  0.00     0.158 C 
ENDROOT
BRANCH   1   2
ATOM      2  C   UNL     1      -8.874  -3.463   9.032  0.00  0.00     0.164 C 
ATOM      3  O   UNL     1      -9.885  -2.797   8.822  0.00  0.00    -0.292 OA
BRANCH   2   4
ATOM      4  C   UNL     1      -8.116  -4.112   7.922  0.00  0.00     0.047 C 
ATOM      5  C   UNL     1      -7.640  -5.357   8.061  0.00  0.00     0.011 C 
BRANCH   5   6
ATOM      6  C   UNL     1      -6.873  -6.080   7.032  0.00  0.00    -0.021 A 
ATOM      7  C   UNL     1      -5.656  -6.650   7.368  0.00  0.00     0.057 A 
ATOM      8  C   UNL     1      -4.929  -7.334   6.393  0.00  0.00     0.162 A 
ATOM      9  C   UNL     1      -5.430  -7.438   5.096  0.00  0.00     0.158 A 
ATOM     10  C   UNL     1      -6.657  -6.859   4.772  0.00  0.00     0.050 A 
ATOM     11  C   UNL     1      -7.384  -6.175   5.747  0.00  0.00     0.012 A 
BRANCH   8  12
ATOM     12  O   UNL     1      -3.733  -7.897   6.721  0.00  0.00    -0.491 OA
ATOM     13  C   UNL     1      -3.740  -8.879   7.755  0.00  0.00     0.277 C 
ENDBRANCH   8  12
BRANCH   9  14
ATOM     14  O   UNL     1      -4.732  -8.105   4.135  0.00  0.00    -0.503 OA
ATOM     15  H   UNL     1      -4.359  -7.461   3.510  0.00  0.00     0.292 HD
ENDBRANCH   9  14
ENDBRANCH   5   6
ENDBRANCH   2   4
ENDBRANCH   1   2
BRANCH   1  16
ATOM     16  C   UNL     1      -7.082  -2.781  10.732  0.00  0.00     0.164 C 
ATOM     17  O   UNL     1      -7.175  -1.684  11.275  0.00  0.00    -0.292 OA
BRANCH  16  18
ATOM     18  C   UNL     1      -5.757  -3.374  10.380  0.00  0.00     0.047 C 
ATOM     19  C   UNL     1      -5.451  -4.622  10.758  0.00  0.00     0.011 C 
BRANCH  19  20
ATOM     20  C   UNL     1      -4.170  -5.293  10.471  0.00  0.00    -0.021 A 
ATOM     21  C   UNL     1      -3.350  -4.792   9.472  0.00  0.00     0.057 A 
ATOM     22  C   UNL     1      -2.139  -5.428   9.201  0.00  0.00     0.162 A 
ATOM     23  C   UNL     1      -1.764  -6.555   9.931  0.00  0.00     0.158 A 
ATOM     24  C   UNL     1      -2.599  -7.047  10.933  0.00  0.00     0.050 A 
ATOM     25  C   UNL     1      -3.811  -6.411  11.205  0.00  0.00     0.012 A 
BRANCH  22  26
ATOM     26  O   UNL     1      -1.330  -4.937   8.220  0.00  0.00    -0.491 OA
ATOM     27  C   UNL     1      -1.758  -5.126   6.872  0.00  0.00     0.277 C 
ENDBRANCH  22  26
BRANCH  23  28
ATOM     28  O   UNL     1      -0.582  -7.183   9.676  0.00  0.00    -0.503 OA
ATOM     29  H   UNL     1       0.075  -6.874  10.322  0.00  0.00     0.292 HD
ENDBRANCH  23  28
ENDBRANCH  19  20
ENDBRANCH  16  18
ENDBRANCH   1  16
TORSDOF 10
ENDMDL
MODEL 6
REMARK VINA RESULT:      -3.6      2.457      5.750
REMARK  10 active torsions:
REMARK  status: ('A' for Active; 'I' for Inactive)
REMARK    1  A    between atoms: C_1  and  C_16 
REMARK    2  A    between atoms: C_1  and  C_2 
REMARK    3  A    between atoms: C_2  and  C_5 
REMARK    4  A    between atoms: C_4  and  C_10 
REMARK    5  A    between atoms: C_6  and  O_12 
REMARK    6  A    between atoms: C_7  and  O_14 
REMARK    7  A    between atoms: C_16  and  C_18 
REMARK    8  A    between atoms: C_19  and  C_20 
REMARK    9  A    between atoms: C_23  and  O_28 
REMARK   10  A    between atoms: C_24  and  O_26 
ROOT
ATOM      1  C   UNL     1      -6.786 -10.494   8.783  0.00  0.00     0.158 C 
ENDROOT
BRANCH   1   2
ATOM      2  C   UNL     1      -6.693  -9.846  10.151  0.00  0.00     0.164 C 
ATOM      3  O   UNL     1      -6.402 -10.479  11.163  0.00  0.00    -0.292 OA
BRANCH   2   4
ATOM      4  C   UNL     1      -6.933  -8.373  10.188  0.00  0.00     0.047 C 
ATOM      5  C   UNL     1      -6.016  -7.549  10.715  0.00  0.00     0.011 C 
BRANCH   5   6
ATOM      6  C   UNL     1      -6.160  -6.086  10.809  0.00  0.00    -0.021 A 
ATOM      7  C   UNL     1      -6.561  -5.371   9.693  0.00  0.00     0.057 A 
ATOM      8  C   UNL     1      -6.697  -3.985   9.782  0.00  0.00     0.162 A 
ATOM      9  C   UNL     1      -6.430  -3.335  10.987  0.00  0.00     0.158 A 
ATOM     10  C   UNL     1      -6.026  -4.069  12.102  0.00  0.00     0.050 A 
ATOM     11  C   UNL     1      -5.891  -5.455  12.013  0.00  0.00     0.012 A 
BRANCH   8  12
ATOM     12  O   UNL     1      -7.093  -3.279   8.687  0.00  0.00    -0.491 OA
ATOM     13  C   UNL     1      -8.346  -3.633   8.104  0.00  0.00     0.277 C 
ENDBRANCH   8  12
BRANCH   9  14
ATOM     14  O   UNL     1      -6.561  -1.982  11.088  0.00  0.00    -0.503 OA
ATOM     15  H   UNL     1      -6.390  -1.716  12.007  0.00  0.00     0.292 HD
ENDBRANCH   9  14
ENDBRANCH   5   6
ENDBRANCH   2   4
ENDBRANCH   1   2
BRANCH   1  16
ATOM     16  C   UNL     1      -5.465 -10.920   8.175  0.00  0.00     0.164 C 
ATOM     17  O   UNL     1      -5.265 -12.058   7.759  0.00  0.00    -0.292 OA
BRANCH  16  18
ATOM     18  C   UNL     1      -4.426  -9.852   8.069  0.00  0.00     0.047 C 
ATOM     19  C   UNL     1      -4.599  -8.821   7.230  0.00  0.00     0.011 C 
BRANCH  19  20
ATOM     20  C   UNL     1      -3.632  -7.724   7.043  0.00  0.00    -0.021 A 
ATOM     21  C   UNL     1      -3.730  -6.591   7.835  0.00  0.00     0.057 A 
ATOM     22  C   UNL     1      -2.816  -5.553   7.656  0.00  0.00     0.162 A 
ATOM     23  C   UNL     1      -1.817  -5.662   6.689  0.00  0.00     0.158 A 
ATOM     24  C   UNL     1      -1.731  -6.808   5.900  0.00  0.00     0.050 A 
ATOM     25  C   UNL     1      -2.646  -7.847   6.078  0.00  0.00     0.012 A 
BRANCH  22  26
ATOM     26  O   UNL     1      -2.909  -4.437   8.433  0.00  0.00    -0.491 OA
ATOM     27  C   UNL     1      -2.862  -4.625   9.846  0.00  0.00     0.277 C 
ENDBRANCH  22  26
BRANCH  23  28
ATOM     28  O   UNL     1      -0.918  -4.655   6.507  0.00  0.00    -0.503 OA
ATOM     29  H   UNL     1      -1.290  -4.023   5.869  0.00  0.00     0.292 HD
ENDBRANCH  23  28
ENDBRANCH  19  20
ENDBRANCH  16  18
ENDBRANCH   1  16
TORSDOF 10
ENDMDL
MODEL 7
REMARK VINA RESULT:      -3.6      9.736     11.611
REMARK  10 active torsions:
REMARK  status: ('A' for Active; 'I' for Inactive)
REMARK    1  A    between atoms: C_1  and  C_16 
REMARK    2  A    between atoms: C_1  and  C_2 
REMARK    3  A    between atoms: C_2  and  C_5 
REMARK    4  A    between atoms: C_4  and  C_10 
REMARK    5  A    between atoms: C_6  and  O_12 
REMARK    6  A    between atoms: C_7  and  O_14 
REMARK    7  A    between atoms: C_16  and  C_18 
REMARK    8  A    between atoms: C_19  and  C_20 
REMARK    9  A    between atoms: C_23  and  O_28 
REMARK   10  A    between atoms: C_24  and  O_26 
ROOT
ATOM      1  C   UNL     1       0.409   3.915   9.660  0.00  0.00     0.158 C 
ENDROOT
BRANCH   1   2
ATOM      2  C   UNL     1       1.653   4.754   9.440  0.00  0.00     0.164 C 
ATOM      3  O   UNL     1       2.082   5.533  10.288  0.00  0.00    -0.292 OA
BRANCH   2   4
ATOM      4  C   UNL     1       2.358   4.542   8.142  0.00  0.00     0.047 C 
ATOM      5  C   UNL     1       2.592   3.302   7.691  0.00  0.00     0.011 C 
BRANCH   5   6
ATOM      6  C   UNL     1       3.286   2.986   6.431  0.00  0.00    -0.021 A 
ATOM      7  C   UNL     1       2.672   3.281   5.224  0.00  0.00     0.057 A 
ATOM      8  C   UNL     1       3.330   2.981   4.031  0.00  0.00     0.162 A 
ATOM      9  C   UNL     1       4.593   2.390   4.061  0.00  0.00     0.158 A 
ATOM     10  C   UNL     1       5.199   2.099   5.284  0.00  0.00     0.050 A 
ATOM     11  C   UNL     1       4.541   2.399   6.477  0.00  0.00     0.012 A 
BRANCH   8  12
ATOM     12  O   UNL     1       2.729   3.270   2.844  0.00  0.00    -0.491 OA
ATOM     13  C   UNL     1       2.809   4.620   2.388  0.00  0.00     0.277 C 
ENDBRANCH   8  12
BRANCH   9  14
ATOM     14  O   UNL     1       5.247   2.094   2.903  0.00  0.00    -0.503 OA
ATOM     15  H   UNL     1       5.086   1.162   2.678  0.00  0.00     0.292 HD
ENDBRANCH   9  14
ENDBRANCH   5   6
ENDBRANCH   2   4
ENDBRANCH   1   2
BRANCH   1  16
ATOM     16  C   UNL     1      -0.891   4.552   9.212  0.00  0.00     0.164 C 
ATOM     17  O   UNL     1      -1.565   5.266   9.950  0.00  0.00    -0.292 OA
BRANCH  16  18
ATOM     18  C   UNL     1      -1.283   4.296   7.794  0.00  0.00     0.047 C 
ATOM     19  C   UNL     1      -0.911   3.164   7.182  0.00  0.00     0.011 C 
BRANCH  19  20
ATOM     20  C   UNL     1      -1.236   2.821   5.786  0.00  0.00    -0.021 A 
ATOM     21  C   UNL     1      -1.537   3.836   4.891  0.00  0.00     0.057 A 
ATOM     22  C   UNL     1      -1.845   3.511   3.570  0.00  0.00     0.162 A 
ATOM     23  C   UNL     1      -1.850   2.177   3.162  0.00  0.00     0.158 A 
ATOM     24  C   UNL     1      -1.545   1.168   4.075  0.00  0.00     0.050 A 
ATOM     25  C   UNL     1      -1.236   1.492   5.396  0.00  0.00     0.012 A 
BRANCH  22  26
ATOM     26  O   UNL     1      -2.141   4.506   2.687  0.00  0.00    -0.491 OA
ATOM     27  C   UNL     1      -3.451   5.066   2.756  0.00  0.00     0.277 C 
ENDBRANCH  22  26
BRANCH  23  28
ATOM     28  O   UNL     1      -2.148   1.848   1.875  0.00  0.00    -0.503 OA
ATOM     29  H   UNL     1      -2.009   2.633   1.318  0.00  0.00     0.292 HD
ENDBRANCH  23  28
ENDBRANCH  19  20
ENDBRANCH  16  18
ENDBRANCH   1  16
TORSDOF 10
ENDMDL
MODEL 8
REMARK VINA RESULT:      -3.5      3.015      8.020
REMARK  10 active torsions:
REMARK  status: ('A' for Active; 'I' for Inactive)
REMARK    1  A    between atoms: C_1  and  C_16 
REMARK    2  A    between atoms: C_1  and  C_2 
REMARK    3  A    between atoms: C_2  and  C_5 
REMARK    4  A    between atoms: C_4  and  C_10 
REMARK    5  A    between atoms: C_6  and  O_12 
REMARK    6  A    between atoms: C_7  and  O_14 
REMARK    7  A    between atoms: C_16  and  C_18 
REMARK    8  A    between atoms: C_19  and  C_20 
REMARK    9  A    between atoms: C_23  and  O_28 
REMARK   10  A    between atoms: C_24  and  O_26 
ROOT
ATOM      1  C   UNL     1       0.409 -10.700   9.226  0.00  0.00     0.158 C 
ENDROOT
BRANCH   1   2
ATOM      2  C   UNL     1       1.233 -10.561   7.960  0.00  0.00     0.164 C 
ATOM      3  O   UNL     1       2.330 -11.098   7.824  0.00  0.00    -0.292 OA
BRANCH   2   4
ATOM      4  C   UNL     1       0.608  -9.764   6.864  0.00  0.00     0.047 C 
ATOM      5  C   UNL     1      -0.724  -9.630   6.796  0.00  0.00     0.011 C 
BRANCH   5   6
ATOM      6  C   UNL     1      -1.437  -8.876   5.751  0.00  0.00    -0.021 A 
ATOM      7  C   UNL     1      -2.712  -8.400   6.008  0.00  0.00     0.057 A 
ATOM      8  C   UNL     1      -3.388  -7.687   5.018  0.00  0.00     0.162 A 
ATOM      9  C   UNL     1      -2.779  -7.460   3.784  0.00  0.00     0.158 A 
ATOM     10  C   UNL     1      -1.495  -7.947   3.539  0.00  0.00     0.050 A 
ATOM     11  C   UNL     1      -0.819  -8.660   4.530  0.00  0.00     0.012 A 
BRANCH   8  12
ATOM     12  O   UNL     1      -4.642  -7.216   5.268  0.00  0.00    -0.491 OA
ATOM     13  C   UNL     1      -5.060  -7.179   6.632  0.00  0.00     0.277 C 
ENDBRANCH   8  12
BRANCH   9  14
ATOM     14  O   UNL     1      -3.428  -6.764   2.809  0.00  0.00    -0.503 OA
ATOM     15  H   UNL     1      -4.123  -6.220   3.217  0.00  0.00     0.292 HD
ENDBRANCH   9  14
ENDBRANCH   5   6
ENDBRANCH   2   4
ENDBRANCH   1   2
BRANCH   1  16
ATOM     16  C   UNL     1       0.738  -9.712  10.327  0.00  0.00     0.164 C 
ATOM     17  O   UNL     1       1.502  -9.982  11.250  0.00  0.00    -0.292 OA
BRANCH  16  18
ATOM     18  C   UNL     1       0.110  -8.364  10.196  0.00  0.00     0.047 C 
ATOM     19  C   UNL     1      -1.216  -8.246  10.047  0.00  0.00     0.011 C 
BRANCH  19  20
ATOM     20  C   UNL     1      -1.931  -6.965   9.899  0.00  0.00    -0.021 A 
ATOM     21  C   UNL     1      -1.882  -6.297   8.685  0.00  0.00     0.057 A 
ATOM     22  C   UNL     1      -2.559  -5.085   8.546  0.00  0.00     0.162 A 
ATOM     23  C   UNL     1      -3.273  -4.558   9.621  0.00  0.00     0.158 A 
ATOM     24  C   UNL     1      -3.313  -5.242  10.836  0.00  0.00     0.050 A 
ATOM     25  C   UNL     1      -2.637  -6.454  10.976  0.00  0.00     0.012 A 
BRANCH  22  26
ATOM     26  O   UNL     1      -2.513  -4.426   7.355  0.00  0.00    -0.491 OA
ATOM     27  C   UNL     1      -1.555  -4.877   6.400  0.00  0.00     0.277 C 
ENDBRANCH  22  26
BRANCH  23  28
ATOM     28  O   UNL     1      -3.938  -3.375   9.497  0.00  0.00    -0.503 OA
ATOM     29  H   UNL     1      -4.267  -3.115  10.374  0.00  0.00     0.292 HD
ENDBRANCH  23  28
ENDBRANCH  19  20
ENDBRANCH  16  18
ENDBRANCH   1  16
TORSDOF 10
ENDMDL
MODEL 9
REMARK VINA RESULT:      -3.5      9.269     11.679
REMARK  10 active torsions:
REMARK  status: ('A' for Active; 'I' for Inactive)
REMARK    1  A    between atoms: C_1  and  C_16 
REMARK    2  A    between atoms: C_1  and  C_2 
REMARK    3  A    between atoms: C_2  and  C_5 
REMARK    4  A    between atoms: C_4  and  C_10 
REMARK    5  A    between atoms: C_6  and  O_12 
REMARK    6  A    between atoms: C_7  and  O_14 
REMARK    7  A    between atoms: C_16  and  C_18 
REMARK    8  A    between atoms: C_19  and  C_20 
REMARK    9  A    between atoms: C_23  and  O_28 
REMARK   10  A    between atoms: C_24  and  O_26 
ROOT
ATOM      1  C   UNL     1      -3.406   7.229   9.147  0.00  0.00     0.158 C 
ENDROOT
BRANCH   1   2
ATOM      2  C   UNL     1      -3.771   6.946   7.702  0.00  0.00     0.164 C 
ATOM      3  O   UNL     1      -4.894   7.155   7.251  0.00  0.00    -0.292 OA
BRANCH   2   4
ATOM      4  C   UNL     1      -2.663   6.436   6.842  0.00  0.00     0.047 C 
ATOM      5  C   UNL     1      -2.338   5.135   6.853  0.00  0.00     0.011 C 
BRANCH   5   6
ATOM      6  C   UNL     1      -1.257   4.536   6.052  0.00  0.00    -0.021 A 
ATOM      7  C   UNL     1      -1.520   3.406   5.295  0.00  0.00     0.057 A 
ATOM      8  C   UNL     1      -0.496   2.837   4.537  0.00  0.00     0.162 A 
ATOM      9  C   UNL     1       0.777   3.408   4.546  0.00  0.00     0.158 A 
ATOM     10  C   UNL     1       1.027   4.546   5.314  0.00  0.00     0.050 A 
ATOM     11  C   UNL     1       0.003   5.114   6.072  0.00  0.00     0.012 A 
BRANCH   8  12
ATOM     12  O   UNL     1      -0.751   1.727   3.791  0.00  0.00    -0.491 OA
ATOM     13  C   UNL     1      -1.692   0.793   4.318  0.00  0.00     0.277 C 
ENDBRANCH   8  12
BRANCH   9  14
ATOM     14  O   UNL     1       1.785   2.864   3.809  0.00  0.00    -0.503 OA
ATOM     15  H   UNL     1       1.430   2.129   3.280  0.00  0.00     0.292 HD
ENDBRANCH   9  14
ENDBRANCH   5   6
ENDBRANCH   2   4
ENDBRANCH   1   2
BRANCH   1  16
ATOM     16  C   UNL     1      -3.834   6.172  10.144  0.00  0.00     0.164 C 
ATOM     17  O   UNL     1      -4.967   6.129  10.616  0.00  0.00    -0.292 OA
BRANCH  16  18
ATOM     18  C   UNL     1      -2.802   5.148  10.486  0.00  0.00     0.047 C 
ATOM     19  C   UNL     1      -1.510   5.369  10.208  0.00  0.00     0.011 C 
BRANCH  19  20
ATOM     20  C   UNL     1      -0.418   4.422  10.494  0.00  0.00    -0.021 A 
ATOM     21  C   UNL     1       0.150   3.707   9.451  0.00  0.00     0.057 A 
ATOM     22  C   UNL     1       1.183   2.810   9.723  0.00  0.00     0.162 A 
ATOM     23  C   UNL     1       1.632   2.639  11.032  0.00  0.00     0.158 A 
ATOM     24  C   UNL     1       1.050   3.365  12.070  0.00  0.00     0.050 A 
ATOM     25  C   UNL     1       0.017   4.263  11.799  0.00  0.00     0.012 A 
BRANCH  22  26
ATOM     26  O   UNL     1       1.745   2.106   8.700  0.00  0.00    -0.491 OA
ATOM     27  C   UNL     1       0.864   1.610   7.693  0.00  0.00     0.277 C 
ENDBRANCH  22  26
BRANCH  23  28
ATOM     28  O   UNL     1       2.641   1.766  11.308  0.00  0.00    -0.503 OA
ATOM     29  H   UNL     1       2.535   0.985  10.739  0.00  0.00     0.292 HD
ENDBRANCH  23  28
ENDBRANCH  19  20
ENDBRANCH  16  18
ENDBRANCH   1  16
TORSDOF 10
ENDMDL
MODEL 10
REMARK VINA RESULT:      -3.5      3.591      6.661
REMARK  10 active torsions:
REMARK  status: ('A' for Active; 'I' for Inactive)
REMARK    1  A    between atoms: C_1  and  C_16 
REMARK    2  A    between atoms: C_1  and  C_2 
REMARK    3  A    between atoms: C_2  and  C_5 
REMARK    4  A    between atoms: C_4  and  C_10 
REMARK    5  A    between atoms: C_6  and  O_12 
REMARK    6  A    between atoms: C_7  and  O_14 
REMARK    7  A    between atoms: C_16  and  C_18 
REMARK    8  A    between atoms: C_19  and  C_20 
REMARK    9  A    between atoms: C_23  and  O_28 
REMARK   10  A    between atoms: C_24  and  O_26 
ROOT
ATOM      1  C   UNL     1      -8.814  -8.167   7.742  0.00  0.00     0.158 C 
ENDROOT
BRANCH   1   2
ATOM      2  C   UNL     1      -9.291  -8.826   6.462  0.00  0.00     0.164 C 
ATOM      3  O   UNL     1     -10.284  -9.548   6.421  0.00  0.00    -0.292 OA
BRANCH   2   4
ATOM      4  C   UNL     1      -8.504  -8.504   5.236  0.00  0.00     0.047 C 
ATOM      5  C   UNL     1      -8.185  -7.235   4.946  0.00  0.00     0.011 C 
BRANCH   5   6
ATOM      6  C   UNL     1      -7.423  -6.813   3.759  0.00  0.00    -0.021 A 
ATOM      7  C   UNL     1      -6.054  -7.022   3.721  0.00  0.00     0.057 A 
ATOM      8  C   UNL     1      -5.332  -6.621   2.596  0.00  0.00     0.162 A 
ATOM      9  C   UNL     1      -5.990  -6.017   1.525  0.00  0.00     0.158 A 
ATOM     10  C   UNL     1      -7.369  -5.812   1.578  0.00  0.00     0.050 A 
ATOM     11  C   UNL     1      -8.090  -6.213   2.703  0.00  0.00     0.012 A 
BRANCH   8  12
ATOM     12  O   UNL     1      -3.986  -6.828   2.555  0.00  0.00    -0.491 OA
ATOM     13  C   UNL     1      -3.537  -8.181   2.550  0.00  0.00     0.277 C 
ENDBRANCH   8  12
BRANCH   9  14
ATOM     14  O   UNL     1      -5.297  -5.623   0.420  0.00  0.00    -0.503 OA
ATOM     15  H   UNL     1      -5.215  -4.654   0.427  0.00  0.00     0.292 HD
ENDBRANCH   9  14
ENDBRANCH   5   6
ENDBRANCH   2   4
ENDBRANCH   1   2
BRANCH   1  16
ATOM     16  C   UNL     1      -7.511  -8.703   8.301  0.00  0.00     0.164 C 
ATOM     17  O   UNL     1      -7.408  -9.834   8.767  0.00  0.00    -0.292 OA
BRANCH  16  18
ATOM     18  C   UNL     1      -6.339  -7.782   8.209  0.00  0.00     0.047 C 
ATOM     19  C   UNL     1      -5.372  -8.005   7.309  0.00  0.00     0.011 C 
BRANCH  19  20
ATOM     20  C   UNL     1      -4.172  -7.165   7.144  0.00  0.00    -0.021 A 
ATOM     21  C   UNL     1      -3.267  -7.464   6.138  0.00  0.00     0.057 A 
ATOM     22  C   UNL     1      -2.132  -6.668   5.984  0.00  0.00     0.162 A 
ATOM     23  C   UNL     1      -1.916  -5.587   6.837  0.00  0.00     0.158 A 
ATOM     24  C   UNL     1      -2.836  -5.299   7.845  0.00  0.00     0.050 A 
ATOM     25  C   UNL     1      -3.972  -6.094   8.000  0.00  0.00     0.012 A 
BRANCH  22  26
ATOM     26  O   UNL     1      -1.240  -6.960   4.996  0.00  0.00    -0.491 OA
ATOM     27  C   UNL     1      -0.337  -8.037   5.233  0.00  0.00     0.277 C 
ENDBRANCH  22  26
BRANCH  23  28
ATOM     28  O   UNL     1      -0.811  -4.803   6.695  0.00  0.00    -0.503 OA
ATOM     29  H   UNL     1      -0.703  -4.276   7.505  0.00  0.00     0.292 HD
ENDBRANCH  23  28
ENDBRANCH  19  20
ENDBRANCH  16  18
ENDBRANCH   1  16
TORSDOF 10
ENDMDL
