MODEL 1
REMARK VINA RESULT:      -9.0      0.000      0.000
REMARK  13 active torsions:
REMARK  status: ('A' for Active; 'I' for Inactive)
REMARK    1  A    between atoms: O_2  and  C_16 
REMARK    2  A    between atoms: O_2  and  C_17 
REMARK    3  A    between atoms: O_4  and  C_12 
REMARK    4  A    between atoms: O_5  and  C_13 
REMARK    5  A    between atoms: O_6  and  C_15 
REMARK    6  A    between atoms: O_6  and  C_22 
REMARK    7  A    between atoms: O_7  and  C_14 
REMARK    8  A    between atoms: O_8  and  C_18 
REMARK    9  A    between atoms: O_9  and  C_19 
REMARK   10  A    between atoms: O_10  and  C_20 
REMARK   11  A    between atoms: C_11  and  C_16 
REMARK   12  A    between atoms: C_22  and  C_23 
REMARK   13  A    between atoms: C_24  and  C_25 
ROOT
HETATM    1  O   UNK     0     186.517 177.664 178.599  0.00  0.00    -0.348 OA
HETATM    2  C   UNK     0     187.678 178.283 179.155  0.00  0.00     0.180 C 
HETATM    3  C   UNK     0     187.938 177.736 180.561  0.00  0.00     0.180 C 
HETATM    4  C   UNK     0     186.711 177.924 181.452  0.00  0.00     0.183 C 
HETATM    5  C   UNK     0     185.443 177.418 180.762  0.00  0.00     0.204 C 
HETATM    6  C   UNK     0     185.334 177.957 179.336  0.00  0.00     0.291 C 
ENDROOT
BRANCH   2   7
HETATM    7  C   UNK     0     188.846 178.003 178.215  0.00  0.00     0.205 C 
BRANCH   7   8
HETATM    8  O   UNK     0     188.863 176.618 177.919  0.00  0.00    -0.356 OA
BRANCH   8   9
HETATM    9  C   UNK     0     190.189 176.099 177.903  0.00  0.00     0.290 C 
HETATM   10  O   UNK     0     190.336 175.031 176.961  0.00  0.00    -0.356 OA
HETATM   11  C   UNK     0     189.599 173.859 177.301  0.00  0.00     0.205 C 
HETATM   12  C   UNK     0     190.061 173.305 178.643  0.00  0.00     0.173 C 
HETATM   13  C   UNK     0     189.910 174.360 179.741  0.00  0.00     0.182 C 
HETATM   14  C   UNK     0     190.597 175.663 179.319  0.00  0.00     0.204 C 
BRANCH  12  15
HETATM   15  O   UNK     0     189.315 172.145 178.983  0.00  0.00    -0.391 OA
HETATM   16  H   UNK     0     189.749 171.731 179.750  0.00  0.00     0.210 HD
ENDBRANCH  12  15
BRANCH  13  17
HETATM   17  O   UNK     0     188.524 174.604 179.973  0.00  0.00    -0.390 OA
HETATM   18  H   UNK     0     188.290 174.183 180.819  0.00  0.00     0.210 HD
ENDBRANCH  13  17
BRANCH  14  19
HETATM   19  O   UNK     0     192.011 175.478 179.334  0.00  0.00    -0.388 OA
HETATM   20  H   UNK     0     192.249 174.873 178.611  0.00  0.00     0.210 HD
ENDBRANCH  14  19
ENDBRANCH   8   9
ENDBRANCH   7   8
ENDBRANCH   2   7
BRANCH   6  21
HETATM   21  O   UNK     0     184.211 177.332 178.715  0.00  0.00    -0.355 OA
BRANCH  21  22
HETATM   22  C   UNK     0     183.646 178.164 177.714  0.00  0.00     0.198 C 
BRANCH  22  23
HETATM   23  C   UNK     0     182.208 178.408 178.047  0.00  0.00     0.000 C 
HETATM   24  C   UNK     0     181.221 177.564 177.710  0.00  0.00     0.009 C 
BRANCH  24  25
HETATM   25  C   UNK     0     179.795 177.755 178.028  0.00  0.00    -0.036 A 
HETATM   26  C   UNK     0     178.929 178.184 177.036  0.00  0.00     0.011 A 
HETATM   27  C   UNK     0     177.578 178.364 177.337  0.00  0.00     0.001 A 
HETATM   28  C   UNK     0     177.113 178.112 178.628  0.00  0.00     0.000 A 
HETATM   29  C   UNK     0     177.997 177.681 179.616  0.00  0.00     0.001 A 
HETATM   30  C   UNK     0     179.347 177.500 179.315  0.00  0.00     0.011 A 
ENDBRANCH  24  25
ENDBRANCH  22  23
ENDBRANCH  21  22
ENDBRANCH   6  21
BRANCH   3  31
HETATM   31  O   UNK     0     189.048 178.422 181.136  0.00  0.00    -0.390 OA
HETATM   32  H   UNK     0     189.137 179.279 180.684  0.00  0.00     0.210 HD
ENDBRANCH   3  31
BRANCH   5  33
HETATM   33  O   UNK     0     184.299 177.855 181.496  0.00  0.00    -0.388 OA
HETATM   34  H   UNK     0     183.625 178.145 180.859  0.00  0.00     0.210 HD
ENDBRANCH   5  33
BRANCH   4  35
HETATM   35  O   UNK     0     186.923 177.187 182.657  0.00  0.00    -0.390 OA
HETATM   36  H   UNK     0     186.230 177.452 183.286  0.00  0.00     0.210 HD
ENDBRANCH   4  35
TORSDOF 13
ENDMDL
MODEL 2
REMARK VINA RESULT:      -8.9      3.944      9.232
REMARK  13 active torsions:
REMARK  status: ('A' for Active; 'I' for Inactive)
REMARK    1  A    between atoms: O_2  and  C_16 
REMARK    2  A    between atoms: O_2  and  C_17 
REMARK    3  A    between atoms: O_4  and  C_12 
REMARK    4  A    between atoms: O_5  and  C_13 
REMARK    5  A    between atoms: O_6  and  C_15 
REMARK    6  A    between atoms: O_6  and  C_22 
REMARK    7  A    between atoms: O_7  and  C_14 
REMARK    8  A    between atoms: O_8  and  C_18 
REMARK    9  A    between atoms: O_9  and  C_19 
REMARK   10  A    between atoms: O_10  and  C_20 
REMARK   11  A    between atoms: C_11  and  C_16 
REMARK   12  A    between atoms: C_22  and  C_23 
REMARK   13  A    between atoms: C_24  and  C_25 
ROOT
HETATM    1  O   UNK     0     181.218 177.200 179.334  0.00  0.00    -0.348 OA
HETATM    2  C   UNK     0     179.928 177.627 179.775  0.00  0.00     0.180 C 
HETATM    3  C   UNK     0     178.947 177.623 178.600  0.00  0.00     0.180 C 
HETATM    4  C   UNK     0     179.471 178.486 177.453  0.00  0.00     0.183 C 
HETATM    5  C   UNK     0     180.920 178.137 177.115  0.00  0.00     0.204 C 
HETATM    6  C   UNK     0     181.787 178.083 178.372  0.00  0.00     0.291 C 
ENDROOT
BRANCH   2   7
HETATM    7  C   UNK     0     179.484 176.680 180.886  0.00  0.00     0.205 C 
BRANCH   7   8
HETATM    8  O   UNK     0     179.880 175.365 180.542  0.00  0.00    -0.356 OA
BRANCH   8   9
HETATM    9  C   UNK     0     178.759 174.535 180.253  0.00  0.00     0.290 C 
HETATM   10  O   UNK     0     178.943 173.199 180.734  0.00  0.00    -0.356 OA
HETATM   11  C   UNK     0     179.978 172.484 180.062  0.00  0.00     0.205 C 
HETATM   12  C   UNK     0     179.668 172.361 178.576  0.00  0.00     0.173 C 
HETATM   13  C   UNK     0     179.489 173.744 177.946  0.00  0.00     0.182 C 
HETATM   14  C   UNK     0     178.466 174.558 178.745  0.00  0.00     0.204 C 
BRANCH  12  15
HETATM   15  O   UNK     0     180.708 171.659 177.910  0.00  0.00    -0.391 OA
HETATM   16  H   UNK     0     181.555 172.021 178.224  0.00  0.00     0.210 HD
ENDBRANCH  12  15
BRANCH  13  17
HETATM   17  O   UNK     0     180.742 174.425 177.941  0.00  0.00    -0.390 OA
HETATM   18  H   UNK     0     180.567 175.361 178.139  0.00  0.00     0.210 HD
ENDBRANCH  13  17
BRANCH  14  19
HETATM   19  O   UNK     0     177.164 174.013 178.541  0.00  0.00    -0.388 OA
HETATM   20  H   UNK     0     177.254 173.063 178.359  0.00  0.00     0.210 HD
ENDBRANCH  14  19
ENDBRANCH   8   9
ENDBRANCH   7   8
ENDBRANCH   2   7
BRANCH   6  21
HETATM   21  O   UNK     0     183.081 177.615 177.994  0.00  0.00    -0.355 OA
BRANCH  21  22
HETATM   22  C   UNK     0     184.106 178.411 178.569  0.00  0.00     0.198 C 
BRANCH  22  23
HETATM   23  C   UNK     0     185.432 177.813 178.219  0.00  0.00     0.000 C 
HETATM   24  C   UNK     0     185.683 176.496 178.275  0.00  0.00     0.009 C 
BRANCH  24  25
HETATM   25  C   UNK     0     186.966 175.860 177.927  0.00  0.00    -0.036 A 
HETATM   26  C   UNK     0     186.964 174.619 177.311  0.00  0.00     0.011 A 
HETATM   27  C   UNK     0     188.178 174.017 176.981  0.00  0.00     0.001 A 
HETATM   28  C   UNK     0     189.378 174.665 177.270  0.00  0.00     0.000 A 
HETATM   29  C   UNK     0     189.365 175.915 177.890  0.00  0.00     0.001 A 
HETATM   30  C   UNK     0     188.151 176.517 178.220  0.00  0.00     0.011 A 
ENDBRANCH  24  25
ENDBRANCH  22  23
ENDBRANCH  21  22
ENDBRANCH   6  21
BRANCH   3  31
HETATM   31  O   UNK     0     177.688 178.130 179.036  0.00  0.00    -0.390 OA
HETATM   32  H   UNK     0     177.007 177.811 178.418  0.00  0.00     0.210 HD
ENDBRANCH   3  31
BRANCH   5  33
HETATM   33  O   UNK     0     181.456 179.133 176.243  0.00  0.00    -0.388 OA
HETATM   34  H   UNK     0     182.077 179.678 176.754  0.00  0.00     0.210 HD
ENDBRANCH   5  33
BRANCH   4  35
HETATM   35  O   UNK     0     178.645 178.251 176.311  0.00  0.00    -0.390 OA
HETATM   36  H   UNK     0     178.496 179.109 175.879  0.00  0.00     0.210 HD
ENDBRANCH   4  35
TORSDOF 13
ENDMDL
MODEL 3
REMARK VINA RESULT:      -8.8      3.482     10.298
REMARK  13 active torsions:
REMARK  status: ('A' for Active; 'I' for Inactive)
REMARK    1  A    between atoms: O_2  and  C_16 
REMARK    2  A    between atoms: O_2  and  C_17 
REMARK    3  A    between atoms: O_4  and  C_12 
REMARK    4  A    between atoms: O_5  and  C_13 
REMARK    5  A    between atoms: O_6  and  C_15 
REMARK    6  A    between atoms: O_6  and  C_22 
REMARK    7  A    between atoms: O_7  and  C_14 
REMARK    8  A    between atoms: O_8  and  C_18 
REMARK    9  A    between atoms: O_9  and  C_19 
REMARK   10  A    between atoms: O_10  and  C_20 
REMARK   11  A    between atoms: C_11  and  C_16 
REMARK   12  A    between atoms: C_22  and  C_23 
REMARK   13  A    between atoms: C_24  and  C_25 
ROOT
HETATM    1  O   UNK     0     181.361 176.546 179.051  0.00  0.00    -0.348 OA
HETATM    2  C   UNK     0     180.196 177.291 178.695  0.00  0.00     0.180 C 
HETATM    3  C   UNK     0     180.323 177.805 177.258  0.00  0.00     0.180 C 
HETATM    4  C   UNK     0     181.599 178.629 177.089  0.00  0.00     0.183 C 
HETATM    5  C   UNK     0     182.816 177.888 177.644  0.00  0.00     0.204 C 
HETATM    6  C   UNK     0     182.543 177.343 179.045  0.00  0.00     0.291 C 
ENDROOT
BRANCH   2   7
HETATM    7  C   UNK     0     178.991 176.369 178.860  0.00  0.00     0.205 C 
BRANCH   7   8
HETATM    8  O   UNK     0     178.594 176.387 180.219  0.00  0.00    -0.356 OA
BRANCH   8   9
HETATM    9  C   UNK     0     177.210 176.690 180.361  0.00  0.00     0.290 C 
HETATM   10  O   UNK     0     176.801 177.751 179.489  0.00  0.00    -0.356 OA
HETATM   11  C   UNK     0     177.380 179.013 179.810  0.00  0.00     0.205 C 
HETATM   12  C   UNK     0     176.984 179.444 181.217  0.00  0.00     0.173 C 
HETATM   13  C   UNK     0     177.411 178.393 182.242  0.00  0.00     0.182 C 
HETATM   14  C   UNK     0     176.893 177.011 181.829  0.00  0.00     0.204 C 
BRANCH  12  15
HETATM   15  O   UNK     0     177.574 180.696 181.536  0.00  0.00    -0.391 OA
HETATM   16  H   UNK     0     178.054 181.004 180.747  0.00  0.00     0.210 HD
ENDBRANCH  12  15
BRANCH  13  17
HETATM   17  O   UNK     0     178.835 178.364 182.323  0.00  0.00    -0.390 OA
HETATM   18  H   UNK     0     179.181 178.889 181.580  0.00  0.00     0.210 HD
ENDBRANCH  13  17
BRANCH  14  19
HETATM   19  O   UNK     0     175.477 176.969 181.994  0.00  0.00    -0.388 OA
HETATM   20  H   UNK     0     175.258 176.229 182.586  0.00  0.00     0.210 HD
ENDBRANCH  14  19
ENDBRANCH   8   9
ENDBRANCH   7   8
ENDBRANCH   2   7
BRANCH   6  21
HETATM   21  O   UNK     0     183.662 176.549 179.434  0.00  0.00    -0.355 OA
BRANCH  21  22
HETATM   22  C   UNK     0     184.491 177.241 180.356  0.00  0.00     0.198 C 
BRANCH  22  23
HETATM   23  C   UNK     0     185.921 177.005 179.987  0.00  0.00     0.000 C 
HETATM   24  C   UNK     0     186.306 176.551 178.784  0.00  0.00     0.009 C 
BRANCH  24  25
HETATM   25  C   UNK     0     187.701 176.319 178.371  0.00  0.00    -0.036 A 
HETATM   26  C   UNK     0     188.063 175.079 177.869  0.00  0.00     0.011 A 
HETATM   27  C   UNK     0     189.383 174.858 177.477  0.00  0.00     0.001 A 
HETATM   28  C   UNK     0     190.324 175.881 177.592  0.00  0.00     0.000 A 
HETATM   29  C   UNK     0     189.946 177.124 178.099  0.00  0.00     0.001 A 
HETATM   30  C   UNK     0     188.625 177.345 178.491  0.00  0.00     0.011 A 
ENDBRANCH  24  25
ENDBRANCH  22  23
ENDBRANCH  21  22
ENDBRANCH   6  21
BRANCH   3  31
HETATM   31  O   UNK     0     179.193 178.615 176.945  0.00  0.00    -0.390 OA
HETATM   32  H   UNK     0     178.489 178.031 176.613  0.00  0.00     0.210 HD
ENDBRANCH   3  31
BRANCH   5  33
HETATM   33  O   UNK     0     183.923 178.785 177.719  0.00  0.00    -0.388 OA
HETATM   34  H   UNK     0     184.045 179.187 176.843  0.00  0.00     0.210 HD
ENDBRANCH   5  33
BRANCH   4  35
HETATM   35  O   UNK     0     181.785 178.872 175.693  0.00  0.00    -0.390 OA
HETATM   36  H   UNK     0     182.554 179.459 175.600  0.00  0.00     0.210 HD
ENDBRANCH   4  35
TORSDOF 13
ENDMDL
MODEL 4
REMARK VINA RESULT:      -8.6     27.596     33.570
REMARK  13 active torsions:
REMARK  status: ('A' for Active; 'I' for Inactive)
REMARK    1  A    between atoms: O_2  and  C_16 
REMARK    2  A    between atoms: O_2  and  C_17 
REMARK    3  A    between atoms: O_4  and  C_12 
REMARK    4  A    between atoms: O_5  and  C_13 
REMARK    5  A    between atoms: O_6  and  C_15 
REMARK    6  A    between atoms: O_6  and  C_22 
REMARK    7  A    between atoms: O_7  and  C_14 
REMARK    8  A    between atoms: O_8  and  C_18 
REMARK    9  A    between atoms: O_9  and  C_19 
REMARK   10  A    between atoms: O_10  and  C_20 
REMARK   11  A    between atoms: C_11  and  C_16 
REMARK   12  A    between atoms: C_22  and  C_23 
REMARK   13  A    between atoms: C_24  and  C_25 
ROOT
HETATM    1  O   UNK     0     160.701 186.984 161.119  0.00  0.00    -0.348 OA
HETATM    2  C   UNK     0     160.005 187.287 159.909  0.00  0.00     0.180 C 
HETATM    3  C   UNK     0     160.117 186.112 158.933  0.00  0.00     0.180 C 
HETATM    4  C   UNK     0     161.582 185.760 158.675  0.00  0.00     0.183 C 
HETATM    5  C   UNK     0     162.357 185.617 159.986  0.00  0.00     0.204 C 
HETATM    6  C   UNK     0     162.099 186.802 160.915  0.00  0.00     0.291 C 
ENDROOT
BRANCH   2   7
HETATM    7  C   UNK     0     158.553 187.582 160.273  0.00  0.00     0.205 C 
BRANCH   7   8
HETATM    8  O   UNK     0     157.775 186.436 159.985  0.00  0.00    -0.356 OA
BRANCH   8   9
HETATM    9  C   UNK     0     156.415 186.610 160.371  0.00  0.00     0.290 C 
HETATM   10  O   UNK     0     155.771 185.360 160.645  0.00  0.00    -0.356 OA
HETATM   11  C   UNK     0     155.613 184.531 159.496  0.00  0.00     0.205 C 
HETATM   12  C   UNK     0     154.758 185.228 158.445  0.00  0.00     0.173 C 
HETATM   13  C   UNK     0     155.378 186.568 158.047  0.00  0.00     0.182 C 
HETATM   14  C   UNK     0     155.664 187.409 159.295  0.00  0.00     0.204 C 
BRANCH  12  15
HETATM   15  O   UNK     0     154.614 184.403 157.298  0.00  0.00    -0.391 OA
HETATM   16  H   UNK     0     153.844 183.826 157.445  0.00  0.00     0.210 HD
ENDBRANCH  12  15
BRANCH  13  17
HETATM   17  O   UNK     0     156.595 186.332 157.341  0.00  0.00    -0.390 OA
HETATM   18  H   UNK     0     156.473 185.528 156.806  0.00  0.00     0.210 HD
ENDBRANCH  13  17
BRANCH  14  19
HETATM   19  O   UNK     0     154.431 187.855 159.857  0.00  0.00    -0.388 OA
HETATM   20  H   UNK     0     154.450 188.825 159.907  0.00  0.00     0.210 HD
ENDBRANCH  14  19
ENDBRANCH   8   9
ENDBRANCH   7   8
ENDBRANCH   2   7
BRANCH   6  21
HETATM   21  O   UNK     0     162.737 186.529 162.162  0.00  0.00    -0.355 OA
BRANCH  21  22
HETATM   22  C   UNK     0     163.358 187.691 162.690  0.00  0.00     0.198 C 
BRANCH  22  23
HETATM   23  C   UNK     0     164.760 187.351 163.083  0.00  0.00     0.000 C 
HETATM   24  C   UNK     0     165.319 186.153 162.853  0.00  0.00     0.009 C 
BRANCH  24  25
HETATM   25  C   UNK     0     166.699 185.778 163.207  0.00  0.00    -0.036 A 
HETATM   26  C   UNK     0     167.724 186.686 162.999  0.00  0.00     0.011 A 
HETATM   27  C   UNK     0     169.031 186.331 163.335  0.00  0.00     0.001 A 
HETATM   28  C   UNK     0     169.294 185.072 163.875  0.00  0.00     0.000 A 
HETATM   29  C   UNK     0     168.251 184.169 164.080  0.00  0.00     0.001 A 
HETATM   30  C   UNK     0     166.945 184.524 163.744  0.00  0.00     0.011 A 
ENDBRANCH  24  25
ENDBRANCH  22  23
ENDBRANCH  21  22
ENDBRANCH   6  21
BRANCH   3  31
HETATM   31  O   UNK     0     159.491 186.461 157.701  0.00  0.00    -0.390 OA
HETATM   32  H   UNK     0     159.268 185.637 157.235  0.00  0.00     0.210 HD
ENDBRANCH   3  31
BRANCH   5  33
HETATM   33  O   UNK     0     163.755 185.563 159.704  0.00  0.00    -0.388 OA
HETATM   34  H   UNK     0     163.911 184.826 159.091  0.00  0.00     0.210 HD
ENDBRANCH   5  33
BRANCH   4  35
HETATM   35  O   UNK     0     161.619 184.522 157.962  0.00  0.00    -0.390 OA
HETATM   36  H   UNK     0     161.995 184.703 157.084  0.00  0.00     0.210 HD
ENDBRANCH   4  35
TORSDOF 13
ENDMDL
MODEL 5
REMARK VINA RESULT:      -8.6     32.563     38.573
REMARK  13 active torsions:
REMARK  status: ('A' for Active; 'I' for Inactive)
REMARK    1  A    between atoms: O_2  and  C_16 
REMARK    2  A    between atoms: O_2  and  C_17 
REMARK    3  A    between atoms: O_4  and  C_12 
REMARK    4  A    between atoms: O_5  and  C_13 
REMARK    5  A    between atoms: O_6  and  C_15 
REMARK    6  A    between atoms: O_6  and  C_22 
REMARK    7  A    between atoms: O_7  and  C_14 
REMARK    8  A    between atoms: O_8  and  C_18 
REMARK    9  A    between atoms: O_9  and  C_19 
REMARK   10  A    between atoms: O_10  and  C_20 
REMARK   11  A    between atoms: C_11  and  C_16 
REMARK   12  A    between atoms: C_22  and  C_23 
REMARK   13  A    between atoms: C_24  and  C_25 
ROOT
HETATM    1  O   UNK     0     156.031 187.847 158.989  0.00  0.00    -0.348 OA
HETATM    2  C   UNK     0     155.842 187.028 157.834  0.00  0.00     0.180 C 
HETATM    3  C   UNK     0     155.109 185.741 158.219  0.00  0.00     0.180 C 
HETATM    4  C   UNK     0     155.860 185.000 159.325  0.00  0.00     0.183 C 
HETATM    5  C   UNK     0     156.214 185.939 160.479  0.00  0.00     0.204 C 
HETATM    6  C   UNK     0     156.858 187.227 159.969  0.00  0.00     0.291 C 
ENDROOT
BRANCH   2   7
HETATM    7  C   UNK     0     155.053 187.844 156.814  0.00  0.00     0.205 C 
BRANCH   7   8
HETATM    8  O   UNK     0     153.683 187.805 157.170  0.00  0.00    -0.356 OA
BRANCH   8   9
HETATM    9  C   UNK     0     152.851 187.574 156.037  0.00  0.00     0.290 C 
HETATM   10  O   UNK     0     152.911 188.654 155.098  0.00  0.00    -0.356 OA
HETATM   11  C   UNK     0     152.356 189.872 155.587  0.00  0.00     0.205 C 
HETATM   12  C   UNK     0     150.883 189.692 155.932  0.00  0.00     0.173 C 
HETATM   13  C   UNK     0     150.704 188.579 156.966  0.00  0.00     0.182 C 
HETATM   14  C   UNK     0     151.409 187.303 156.495  0.00  0.00     0.204 C 
BRANCH  12  15
HETATM   15  O   UNK     0     150.338 190.905 156.430  0.00  0.00    -0.391 OA
HETATM   16  H   UNK     0     151.081 191.503 156.623  0.00  0.00     0.210 HD
ENDBRANCH  12  15
BRANCH  13  17
HETATM   17  O   UNK     0     151.258 188.999 158.211  0.00  0.00    -0.390 OA
HETATM   18  H   UNK     0     150.520 189.128 158.832  0.00  0.00     0.210 HD
ENDBRANCH  13  17
BRANCH  14  19
HETATM   19  O   UNK     0     150.695 186.746 155.394  0.00  0.00    -0.388 OA
HETATM   20  H   UNK     0     150.909 185.800 155.335  0.00  0.00     0.210 HD
ENDBRANCH  14  19
ENDBRANCH   8   9
ENDBRANCH   7   8
ENDBRANCH   2   7
BRANCH   6  21
HETATM   21  O   UNK     0     157.028 188.105 161.082  0.00  0.00    -0.355 OA
BRANCH  21  22
HETATM   22  C   UNK     0     158.076 189.034 160.853  0.00  0.00     0.198 C 
BRANCH  22  23
HETATM   23  C   UNK     0     159.231 188.312 160.236  0.00  0.00     0.000 C 
HETATM   24  C   UNK     0     160.394 188.103 160.872  0.00  0.00     0.009 C 
BRANCH  24  25
HETATM   25  C   UNK     0     161.552 187.386 160.311  0.00  0.00    -0.036 A 
HETATM   26  C   UNK     0     162.272 186.522 161.120  0.00  0.00     0.011 A 
HETATM   27  C   UNK     0     163.369 185.842 160.589  0.00  0.00     0.001 A 
HETATM   28  C   UNK     0     163.730 186.037 159.256  0.00  0.00     0.000 A 
HETATM   29  C   UNK     0     162.996 186.910 158.454  0.00  0.00     0.001 A 
HETATM   30  C   UNK     0     161.899 187.589 158.985  0.00  0.00     0.011 A 
ENDBRANCH  24  25
ENDBRANCH  22  23
ENDBRANCH  21  22
ENDBRANCH   6  21
BRANCH   3  31
HETATM   31  O   UNK     0     155.002 184.898 157.075  0.00  0.00    -0.390 OA
HETATM   32  H   UNK     0     155.006 185.465 156.284  0.00  0.00     0.210 HD
ENDBRANCH   3  31
BRANCH   5  33
HETATM   33  O   UNK     0     157.139 185.289 161.351  0.00  0.00    -0.388 OA
HETATM   34  H   UNK     0     157.151 184.344 161.127  0.00  0.00     0.210 HD
ENDBRANCH   5  33
BRANCH   4  35
HETATM   35  O   UNK     0     155.016 183.953 159.806  0.00  0.00    -0.390 OA
HETATM   36  H   UNK     0     154.098 184.267 159.744  0.00  0.00     0.210 HD
ENDBRANCH   4  35
TORSDOF 13
ENDMDL
MODEL 6
REMARK VINA RESULT:      -8.5      3.425      8.945
REMARK  13 active torsions:
REMARK  status: ('A' for Active; 'I' for Inactive)
REMARK    1  A    between atoms: O_2  and  C_16 
REMARK    2  A    between atoms: O_2  and  C_17 
REMARK    3  A    between atoms: O_4  and  C_12 
REMARK    4  A    between atoms: O_5  and  C_13 
REMARK    5  A    between atoms: O_6  and  C_15 
REMARK    6  A    between atoms: O_6  and  C_22 
REMARK    7  A    between atoms: O_7  and  C_14 
REMARK    8  A    between atoms: O_8  and  C_18 
REMARK    9  A    between atoms: O_9  and  C_19 
REMARK   10  A    between atoms: O_10  and  C_20 
REMARK   11  A    between atoms: C_11  and  C_16 
REMARK   12  A    between atoms: C_22  and  C_23 
REMARK   13  A    between atoms: C_24  and  C_25 
ROOT
HETATM    1  O   UNK     0     182.003 177.717 180.187  0.00  0.00    -0.348 OA
HETATM    2  C   UNK     0     181.017 178.107 179.231  0.00  0.00     0.180 C 
HETATM    3  C   UNK     0     181.527 177.834 177.813  0.00  0.00     0.180 C 
HETATM    4  C   UNK     0     182.862 178.538 177.573  0.00  0.00     0.183 C 
HETATM    5  C   UNK     0     183.850 178.254 178.705  0.00  0.00     0.204 C 
HETATM    6  C   UNK     0     183.205 178.474 180.073  0.00  0.00     0.291 C 
ENDROOT
BRANCH   2   7
HETATM    7  C   UNK     0     179.744 177.321 179.534  0.00  0.00     0.205 C 
BRANCH   7   8
HETATM    8  O   UNK     0     179.769 176.119 178.785  0.00  0.00    -0.356 OA
BRANCH   8   9
HETATM    9  C   UNK     0     178.693 175.256 179.138  0.00  0.00     0.290 C 
HETATM   10  O   UNK     0     179.025 174.409 180.245  0.00  0.00    -0.356 OA
HETATM   11  C   UNK     0     180.042 173.454 179.952  0.00  0.00     0.205 C 
HETATM   12  C   UNK     0     179.601 172.527 178.827  0.00  0.00     0.173 C 
HETATM   13  C   UNK     0     179.255 173.330 177.571  0.00  0.00     0.182 C 
HETATM   14  C   UNK     0     178.254 174.439 177.913  0.00  0.00     0.204 C 
BRANCH  12  15
HETATM   15  O   UNK     0     180.623 171.586 178.531  0.00  0.00    -0.391 OA
HETATM   16  H   UNK     0     180.887 171.721 177.604  0.00  0.00     0.210 HD
ENDBRANCH  12  15
BRANCH  13  17
HETATM   17  O   UNK     0     180.446 173.909 177.039  0.00  0.00    -0.390 OA
HETATM   18  H   UNK     0     180.805 174.511 177.714  0.00  0.00     0.210 HD
ENDBRANCH  13  17
BRANCH  14  19
HETATM   19  O   UNK     0     176.984 173.857 178.203  0.00  0.00    -0.388 OA
HETATM   20  H   UNK     0     176.383 174.562 178.495  0.00  0.00     0.210 HD
ENDBRANCH  14  19
ENDBRANCH   8   9
ENDBRANCH   7   8
ENDBRANCH   2   7
BRANCH   6  21
HETATM   21  O   UNK     0     184.136 178.055 181.070  0.00  0.00    -0.355 OA
BRANCH  21  22
HETATM   22  C   UNK     0     184.168 176.641 181.185  0.00  0.00     0.198 C 
BRANCH  22  23
HETATM   23  C   UNK     0     185.565 176.170 180.934  0.00  0.00     0.000 C 
HETATM   24  C   UNK     0     186.014 175.811 179.721  0.00  0.00     0.009 C 
BRANCH  24  25
HETATM   25  C   UNK     0     187.383 175.356 179.423  0.00  0.00    -0.036 A 
HETATM   26  C   UNK     0     187.897 175.539 178.149  0.00  0.00     0.011 A 
HETATM   27  C   UNK     0     189.194 175.108 177.866  0.00  0.00     0.001 A 
HETATM   28  C   UNK     0     189.959 174.502 178.862  0.00  0.00     0.000 A 
HETATM   29  C   UNK     0     189.429 174.326 180.140  0.00  0.00     0.001 A 
HETATM   30  C   UNK     0     188.132 174.756 180.423  0.00  0.00     0.011 A 
ENDBRANCH  24  25
ENDBRANCH  22  23
ENDBRANCH  21  22
ENDBRANCH   6  21
BRANCH   3  31
HETATM   31  O   UNK     0     180.569 178.304 176.869  0.00  0.00    -0.390 OA
HETATM   32  H   UNK     0     180.822 177.967 175.992  0.00  0.00     0.210 HD
ENDBRANCH   3  31
BRANCH   5  33
HETATM   33  O   UNK     0     184.968 179.134 178.590  0.00  0.00    -0.388 OA
HETATM   34  H   UNK     0     184.653 180.042 178.735  0.00  0.00     0.210 HD
ENDBRANCH   5  33
BRANCH   4  35
HETATM   35  O   UNK     0     183.400 178.056 176.340  0.00  0.00    -0.390 OA
HETATM   36  H   UNK     0     184.326 177.808 176.504  0.00  0.00     0.210 HD
ENDBRANCH   4  35
TORSDOF 13
ENDMDL
MODEL 7
REMARK VINA RESULT:      -8.5     15.004     20.289
REMARK  13 active torsions:
REMARK  status: ('A' for Active; 'I' for Inactive)
REMARK    1  A    between atoms: O_2  and  C_16 
REMARK    2  A    between atoms: O_2  and  C_17 
REMARK    3  A    between atoms: O_4  and  C_12 
REMARK    4  A    between atoms: O_5  and  C_13 
REMARK    5  A    between atoms: O_6  and  C_15 
REMARK    6  A    between atoms: O_6  and  C_22 
REMARK    7  A    between atoms: O_7  and  C_14 
REMARK    8  A    between atoms: O_8  and  C_18 
REMARK    9  A    between atoms: O_9  and  C_19 
REMARK   10  A    between atoms: O_10  and  C_20 
REMARK   11  A    between atoms: C_11  and  C_16 
REMARK   12  A    between atoms: C_22  and  C_23 
REMARK   13  A    between atoms: C_24  and  C_25 
ROOT
HETATM    1  O   UNK     0     166.663 180.840 171.670  0.00  0.00    -0.348 OA
HETATM    2  C   UNK     0     167.747 180.104 172.240  0.00  0.00     0.180 C 
HETATM    3  C   UNK     0     167.843 178.724 171.585  0.00  0.00     0.180 C 
HETATM    4  C   UNK     0     166.518 177.972 171.709  0.00  0.00     0.183 C 
HETATM    5  C   UNK     0     165.343 178.843 171.263  0.00  0.00     0.204 C 
HETATM    6  C   UNK     0     165.399 180.226 171.910  0.00  0.00     0.291 C 
ENDROOT
BRANCH   2   7
HETATM    7  C   UNK     0     169.019 180.920 172.027  0.00  0.00     0.205 C 
BRANCH   7   8
HETATM    8  O   UNK     0     170.018 180.431 172.903  0.00  0.00    -0.356 OA
BRANCH   8   9
HETATM    9  C   UNK     0     171.319 180.858 172.510  0.00  0.00     0.290 C 
HETATM   10  O   UNK     0     171.677 180.364 171.215  0.00  0.00    -0.356 OA
HETATM   11  C   UNK     0     171.839 178.948 171.164  0.00  0.00     0.205 C 
HETATM   12  C   UNK     0     172.947 178.501 172.110  0.00  0.00     0.173 C 
HETATM   13  C   UNK     0     172.646 178.946 173.542  0.00  0.00     0.182 C 
HETATM   14  C   UNK     0     172.347 180.449 173.575  0.00  0.00     0.204 C 
BRANCH  12  15
HETATM   15  O   UNK     0     173.096 177.089 172.065  0.00  0.00    -0.391 OA
HETATM   16  H   UNK     0     172.870 176.741 172.946  0.00  0.00     0.210 HD
ENDBRANCH  12  15
BRANCH  13  17
HETATM   17  O   UNK     0     171.517 178.224 174.032  0.00  0.00    -0.390 OA
HETATM   18  H   UNK     0     171.329 177.509 173.399  0.00  0.00     0.210 HD
ENDBRANCH  13  17
BRANCH  14  19
HETATM   19  O   UNK     0     173.550 181.175 173.329  0.00  0.00    -0.388 OA
HETATM   20  H   UNK     0     173.681 181.235 172.368  0.00  0.00     0.210 HD
ENDBRANCH  14  19
ENDBRANCH   8   9
ENDBRANCH   7   8
ENDBRANCH   2   7
BRANCH   6  21
HETATM   21  O   UNK     0     164.360 181.020 171.340  0.00  0.00    -0.355 OA
BRANCH  21  22
HETATM   22  C   UNK     0     163.654 181.741 172.338  0.00  0.00     0.198 C 
BRANCH  22  23
HETATM   23  C   UNK     0     163.023 180.765 173.279  0.00  0.00     0.000 C 
HETATM   24  C   UNK     0     161.696 180.666 173.456  0.00  0.00     0.009 C 
BRANCH  24  25
HETATM   25  C   UNK     0     161.029 179.712 174.359  0.00  0.00    -0.036 A 
HETATM   26  C   UNK     0     159.691 179.894 174.671  0.00  0.00     0.011 A 
HETATM   27  C   UNK     0     159.059 178.990 175.526  0.00  0.00     0.001 A 
HETATM   28  C   UNK     0     159.773 177.916 176.056  0.00  0.00     0.000 A 
HETATM   29  C   UNK     0     161.119 177.745 175.733  0.00  0.00     0.001 A 
HETATM   30  C   UNK     0     161.751 178.649 174.878  0.00  0.00     0.011 A 
ENDBRANCH  24  25
ENDBRANCH  22  23
ENDBRANCH  21  22
ENDBRANCH   6  21
BRANCH   3  31
HETATM   31  O   UNK     0     168.874 177.972 172.220  0.00  0.00    -0.390 OA
HETATM   32  H   UNK     0     168.529 177.649 173.071  0.00  0.00     0.210 HD
ENDBRANCH   3  31
BRANCH   5  33
HETATM   33  O   UNK     0     164.119 178.217 171.647  0.00  0.00    -0.388 OA
HETATM   34  H   UNK     0     164.099 178.162 172.617  0.00  0.00     0.210 HD
ENDBRANCH   5  33
BRANCH   4  35
HETATM   35  O   UNK     0     166.591 176.810 170.881  0.00  0.00    -0.390 OA
HETATM   36  H   UNK     0     166.683 177.113 169.962  0.00  0.00     0.210 HD
ENDBRANCH   4  35
TORSDOF 13
ENDMDL
MODEL 8
REMARK VINA RESULT:      -8.4     39.897     42.949
REMARK  13 active torsions:
REMARK  status: ('A' for Active; 'I' for Inactive)
REMARK    1  A    between atoms: O_2  and  C_16 
REMARK    2  A    between atoms: O_2  and  C_17 
REMARK    3  A    between atoms: O_4  and  C_12 
REMARK    4  A    between atoms: O_5  and  C_13 
REMARK    5  A    between atoms: O_6  and  C_15 
REMARK    6  A    between atoms: O_6  and  C_22 
REMARK    7  A    between atoms: O_7  and  C_14 
REMARK    8  A    between atoms: O_8  and  C_18 
REMARK    9  A    between atoms: O_9  and  C_19 
REMARK   10  A    between atoms: O_10  and  C_20 
REMARK   11  A    between atoms: C_11  and  C_16 
REMARK   12  A    between atoms: C_22  and  C_23 
REMARK   13  A    between atoms: C_24  and  C_25 
ROOT
HETATM    1  O   UNK     0     145.853 180.853 161.189  0.00  0.00    -0.348 OA
HETATM    2  C   UNK     0     145.053 181.149 162.334  0.00  0.00     0.180 C 
HETATM    3  C   UNK     0     143.679 181.659 161.894  0.00  0.00     0.180 C 
HETATM    4  C   UNK     0     143.820 182.869 160.970  0.00  0.00     0.183 C 
HETATM    5  C   UNK     0     144.823 182.595 159.848  0.00  0.00     0.204 C 
HETATM    6  C   UNK     0     146.122 182.006 160.396  0.00  0.00     0.291 C 
ENDROOT
BRANCH   2   7
HETATM    7  C   UNK     0     144.943 179.873 163.163  0.00  0.00     0.205 C 
BRANCH   7   8
HETATM    8  O   UNK     0     146.019 179.839 164.082  0.00  0.00    -0.356 OA
BRANCH   8   9
HETATM    9  C   UNK     0     146.618 178.548 164.147  0.00  0.00     0.290 C 
HETATM   10  O   UNK     0     145.713 177.562 164.658  0.00  0.00    -0.356 OA
HETATM   11  C   UNK     0     145.363 177.757 166.026  0.00  0.00     0.205 C 
HETATM   12  C   UNK     0     146.601 177.696 166.911  0.00  0.00     0.173 C 
HETATM   13  C   UNK     0     147.628 178.743 166.475  0.00  0.00     0.182 C 
HETATM   14  C   UNK     0     147.910 178.612 164.975  0.00  0.00     0.204 C 
BRANCH  12  15
HETATM   15  O   UNK     0     146.249 177.903 168.271  0.00  0.00    -0.391 OA
HETATM   16  H   UNK     0     145.405 178.389 168.285  0.00  0.00     0.210 HD
ENDBRANCH  12  15
BRANCH  13  17
HETATM   17  O   UNK     0     147.119 180.046 166.754  0.00  0.00    -0.390 OA
HETATM   18  H   UNK     0     146.170 179.955 166.946  0.00  0.00     0.210 HD
ENDBRANCH  13  17
BRANCH  14  19
HETATM   19  O   UNK     0     148.648 177.415 164.735  0.00  0.00    -0.388 OA
HETATM   20  H   UNK     0     149.253 177.572 163.991  0.00  0.00     0.210 HD
ENDBRANCH  14  19
ENDBRANCH   8   9
ENDBRANCH   7   8
ENDBRANCH   2   7
BRANCH   6  21
HETATM   21  O   UNK     0     146.944 181.648 159.286  0.00  0.00    -0.355 OA
BRANCH  21  22
HETATM   22  C   UNK     0     148.306 181.969 159.527  0.00  0.00     0.198 C 
BRANCH  22  23
HETATM   23  C   UNK     0     149.111 180.710 159.485  0.00  0.00     0.000 C 
HETATM   24  C   UNK     0     148.816 179.622 160.214  0.00  0.00     0.009 C 
BRANCH  24  25
HETATM   25  C   UNK     0     149.570 178.357 160.194  0.00  0.00    -0.036 A 
HETATM   26  C   UNK     0     149.589 177.560 161.327  0.00  0.00     0.011 A 
HETATM   27  C   UNK     0     150.303 176.361 161.309  0.00  0.00     0.001 A 
HETATM   28  C   UNK     0     150.987 175.975 160.157  0.00  0.00     0.000 A 
HETATM   29  C   UNK     0     150.958 176.787 159.023  0.00  0.00     0.001 A 
HETATM   30  C   UNK     0     150.245 177.986 159.041  0.00  0.00     0.011 A 
ENDBRANCH  24  25
ENDBRANCH  22  23
ENDBRANCH  21  22
ENDBRANCH   6  21
BRANCH   3  31
HETATM   31  O   UNK     0     142.922 182.029 163.043  0.00  0.00    -0.390 OA
HETATM   32  H   UNK     0     143.526 182.050 163.806  0.00  0.00     0.210 HD
ENDBRANCH   3  31
BRANCH   5  33
HETATM   33  O   UNK     0     145.131 183.818 159.181  0.00  0.00    -0.388 OA
HETATM   34  H   UNK     0     144.614 184.528 159.597  0.00  0.00     0.210 HD
ENDBRANCH   5  33
BRANCH   4  35
HETATM   35  O   UNK     0     142.537 183.144 160.405  0.00  0.00    -0.390 OA
HETATM   36  H   UNK     0     142.580 182.917 159.460  0.00  0.00     0.210 HD
ENDBRANCH   4  35
TORSDOF 13
ENDMDL
MODEL 9
REMARK VINA RESULT:      -8.4     32.542     37.730
REMARK  13 active torsions:
REMARK  status: ('A' for Active; 'I' for Inactive)
REMARK    1  A    between atoms: O_2  and  C_16 
REMARK    2  A    between atoms: O_2  and  C_17 
REMARK    3  A    between atoms: O_4  and  C_12 
REMARK    4  A    between atoms: O_5  and  C_13 
REMARK    5  A    between atoms: O_6  and  C_15 
REMARK    6  A    between atoms: O_6  and  C_22 
REMARK    7  A    between atoms: O_7  and  C_14 
REMARK    8  A    between atoms: O_8  and  C_18 
REMARK    9  A    between atoms: O_9  and  C_19 
REMARK   10  A    between atoms: O_10  and  C_20 
REMARK   11  A    between atoms: C_11  and  C_16 
REMARK   12  A    between atoms: C_22  and  C_23 
REMARK   13  A    between atoms: C_24  and  C_25 
ROOT
HETATM    1  O   UNK     0     157.158 187.649 156.791  0.00  0.00    -0.348 OA
HETATM    2  C   UNK     0     157.887 188.070 157.945  0.00  0.00     0.180 C 
HETATM    3  C   UNK     0     157.405 187.299 159.177  0.00  0.00     0.180 C 
HETATM    4  C   UNK     0     155.897 187.464 159.364  0.00  0.00     0.183 C 
HETATM    5  C   UNK     0     155.143 187.185 158.063  0.00  0.00     0.204 C 
HETATM    6  C   UNK     0     155.766 187.937 156.888  0.00  0.00     0.291 C 
ENDROOT
BRANCH   2   7
HETATM    7  C   UNK     0     159.368 187.826 157.670  0.00  0.00     0.205 C 
BRANCH   7   8
HETATM    8  O   UNK     0     159.755 186.629 158.319  0.00  0.00    -0.356 OA
BRANCH   8   9
HETATM    9  C   UNK     0     161.129 186.329 158.098  0.00  0.00     0.290 C 
HETATM   10  O   UNK     0     161.441 184.970 158.423  0.00  0.00    -0.356 OA
HETATM   11  C   UNK     0     161.328 184.671 159.812  0.00  0.00     0.205 C 
HETATM   12  C   UNK     0     162.285 185.532 160.626  0.00  0.00     0.173 C 
HETATM   13  C   UNK     0     162.014 187.017 160.383  0.00  0.00     0.182 C 
HETATM   14  C   UNK     0     162.012 187.314 158.880  0.00  0.00     0.204 C 
BRANCH  12  15
HETATM   15  O   UNK     0     162.160 185.239 162.010  0.00  0.00    -0.391 OA
HETATM   16  H   UNK     0     161.229 185.380 162.257  0.00  0.00     0.210 HD
ENDBRANCH  12  15
BRANCH  13  17
HETATM   17  O   UNK     0     160.746 187.362 160.940  0.00  0.00    -0.390 OA
HETATM   18  H   UNK     0     160.840 187.354 161.908  0.00  0.00     0.210 HD
ENDBRANCH  13  17
BRANCH  14  19
HETATM   19  O   UNK     0     163.342 187.212 158.376  0.00  0.00    -0.388 OA
HETATM   20  H   UNK     0     163.630 186.287 158.456  0.00  0.00     0.210 HD
ENDBRANCH  14  19
ENDBRANCH   8   9
ENDBRANCH   7   8
ENDBRANCH   2   7
BRANCH   6  21
HETATM   21  O   UNK     0     155.103 187.517 155.696  0.00  0.00    -0.355 OA
BRANCH  21  22
HETATM   22  C   UNK     0     154.788 188.622 154.863  0.00  0.00     0.198 C 
BRANCH  22  23
HETATM   23  C   UNK     0     153.307 188.827 154.874  0.00  0.00     0.000 C 
HETATM   24  C   UNK     0     152.708 189.834 155.527  0.00  0.00     0.009 C 
BRANCH  24  25
HETATM   25  C   UNK     0     151.256 190.083 155.554  0.00  0.00    -0.036 A 
HETATM   26  C   UNK     0     150.382 189.008 155.587  0.00  0.00     0.011 A 
HETATM   27  C   UNK     0     149.007 189.244 155.613  0.00  0.00     0.001 A 
HETATM   28  C   UNK     0     148.525 190.553 155.606  0.00  0.00     0.000 A 
HETATM   29  C   UNK     0     149.416 191.625 155.573  0.00  0.00     0.001 A 
HETATM   30  C   UNK     0     150.791 191.389 155.547  0.00  0.00     0.011 A 
ENDBRANCH  24  25
ENDBRANCH  22  23
ENDBRANCH  21  22
ENDBRANCH   6  21
BRANCH   3  31
HETATM   31  O   UNK     0     158.080 187.787 160.333  0.00  0.00    -0.390 OA
HETATM   32  H   UNK     0     157.459 187.752 161.081  0.00  0.00     0.210 HD
ENDBRANCH   3  31
BRANCH   5  33
HETATM   33  O   UNK     0     153.788 187.611 158.201  0.00  0.00    -0.388 OA
HETATM   34  H   UNK     0     153.285 186.888 158.613  0.00  0.00     0.210 HD
ENDBRANCH   5  33
BRANCH   4  35
HETATM   35  O   UNK     0     155.473 186.540 160.368  0.00  0.00    -0.390 OA
HETATM   36  H   UNK     0     155.604 185.645 160.013  0.00  0.00     0.210 HD
ENDBRANCH   4  35
TORSDOF 13
ENDMDL
