MODEL 1
REMARK VINA RESULT:    -7.339      0.000      0.000
REMARK INTER + INTRA:         -11.302
REMARK INTER:                  -9.129
REMARK INTRA:                  -2.173
REMARK CONF_INDEPENDENT:        1.790
REMARK UNBOUND:                -2.173
REMARK SMILES O=c1c(O)c(-c2ccc(O)c(O)c2)oc2cc(O)cc(O)c12
REMARK SMILES IDX 14 1 1 2 22 3 15 4 5 5 3 6 2 7 20 8 16 9 17 10 19 11 6 16
REMARK SMILES IDX 13 17 7 18 11 19 8 20 9 21 12 22 10 27 4 32 21 37 18 42
REMARK H PARENT 12 23 10 28 4 33 21 38 18 43
REMARK Flexibility Score: inf
ROOT
ATOM      1  O   UNL     1      -0.047  -0.881   0.510  1.00  0.00    -0.452 OA
ATOM      2  O   UNL     1      -1.811  -4.508  -0.075  1.00  0.00    -0.285 OA
ATOM      3  C   UNL     1      -1.768  -2.478   1.124  1.00  0.00     0.111 A 
ATOM      4  C   UNL     1      -1.121  -1.253   1.276  1.00  0.00     0.146 A 
ATOM      5  C   UNL     1       0.405  -1.755  -0.466  1.00  0.00     0.180 A 
ATOM      6  C   UNL     1      -0.125  -2.968  -0.708  1.00  0.00     0.208 A 
ATOM      7  C   UNL     1      -1.285  -3.416   0.100  1.00  0.00     0.238 A 
ATOM      8  C   UNL     1      -2.858  -2.805   1.935  1.00  0.00     0.134 A 
ATOM      9  C   UNL     1      -1.559  -0.347   2.242  1.00  0.00     0.094 A 
ATOM     10  C   UNL     1      -2.647  -0.670   3.054  1.00  0.00     0.123 A 
ATOM     11  C   UNL     1      -3.295  -1.897   2.900  1.00  0.00     0.093 A 
ATOM     12 WAT  UNL     1       2.233  -0.646   2.446  1.00  0.00     0.000 W 
ATOM     13 WAT  UNL     1      -0.987   1.535  -1.001  1.00  0.00     0.000 W 
ATOM     14 WAT  UNL     1      -0.756  -6.357  -2.190  1.00  0.00     0.000 W 
ATOM     15 WAT  UNL     1      -4.152  -5.335   1.608  1.00  0.00     0.000 W 
ENDROOT
BRANCH   5  16
ATOM     16  C   UNL     1       1.561  -1.233  -1.215  1.00  0.00     0.025 A 
ATOM     17  C   UNL     1       1.380  -0.233  -2.170  1.00  0.00     0.062 A 
ATOM     18  C   UNL     1       2.838  -1.739  -0.968  1.00  0.00     0.016 A 
ATOM     19  C   UNL     1       2.475   0.262  -2.878  1.00  0.00     0.158 A 
ATOM     20  C   UNL     1       3.933  -1.245  -1.677  1.00  0.00     0.051 A 
ATOM     21  C   UNL     1       3.752  -0.245  -2.632  1.00  0.00     0.157 A 
BRANCH  19  22
ATOM     22  O   UNL     1       2.287   1.238  -3.809  1.00  0.00    -0.504 OA
ATOM     23  H   UNL     1       2.474   0.887  -4.695  1.00  0.00     0.293 HD
ATOM     24 WAT  UNL     1       4.341   3.357  -3.267  1.00  0.00     0.000 W 
ATOM     25 WAT  UNL     1      -0.631   1.931  -3.755  1.00  0.00     0.000 W 
ATOM     26 WAT  UNL     1       2.861   0.163  -6.518  1.00  0.00     0.000 W 
ENDBRANCH  19  22
BRANCH  21  27
ATOM     27  O   UNL     1       4.829   0.232  -3.316  1.00  0.00    -0.504 OA
ATOM     28  H   UNL     1       4.586   1.045  -3.786  1.00  0.00     0.293 HD
ATOM     29 WAT  UNL     1       5.491  -1.810  -5.413  1.00  0.00     0.000 W 
ATOM     30 WAT  UNL     1       6.884   0.998  -1.269  1.00  0.00     0.000 W 
ATOM     31 WAT  UNL     1       4.084   2.723  -4.753  1.00  0.00     0.000 W 
ENDBRANCH  21  27
ENDBRANCH   5  16
BRANCH   6  32
ATOM     32  O   UNL     1       0.369  -3.828  -1.664  1.00  0.00    -0.502 OA
ATOM     33  H   UNL     1      -0.351  -4.369  -2.025  1.00  0.00     0.293 HD
ATOM     34 WAT  UNL     1       2.236  -5.707  -0.254  1.00  0.00     0.000 W 
ATOM     35 WAT  UNL     1       1.377  -2.123  -3.917  1.00  0.00     0.000 W 
ATOM     36 WAT  UNL     1      -1.836  -5.485  -2.768  1.00  0.00     0.000 W 
ENDBRANCH   6  32
BRANCH   8  37
ATOM     37  O   UNL     1      -3.526  -3.988   1.828  1.00  0.00    -0.507 OA
ATOM     38  H   UNL     1      -3.039  -4.602   1.258  1.00  0.00     0.293 HD
ATOM     39 WAT  UNL     1      -6.110  -3.386   0.427  1.00  0.00     0.000 W 
ATOM     40 WAT  UNL     1      -3.553  -5.206   4.570  1.00  0.00     0.000 W 
ATOM     41 WAT  UNL     1      -2.036  -5.871   0.082  1.00  0.00     0.000 W 
ENDBRANCH   8  37
BRANCH  10  42
ATOM     42  O   UNL     1      -3.076   0.212   3.997  1.00  0.00    -0.508 OA
ATOM     43  H   UNL     1      -3.943   0.564   3.730  1.00  0.00     0.293 HD
ATOM     44 WAT  UNL     1      -1.154   2.515   3.976  1.00  0.00     0.000 W 
ATOM     45 WAT  UNL     1      -3.515  -1.352   6.519  1.00  0.00     0.000 W 
ATOM     46 WAT  UNL     1      -5.723   1.288   3.177  1.00  0.00     0.000 W 
ENDBRANCH  10  42
TORSDOF 6
ENDMDL
MODEL 2
REMARK VINA RESULT:    -7.302      1.906      5.129
REMARK INTER + INTRA:         -11.322
REMARK INTER:                  -9.092
REMARK INTRA:                  -2.231
REMARK CONF_INDEPENDENT:        1.790
REMARK UNBOUND:                -2.231
REMARK SMILES O=c1c(O)c(-c2ccc(O)c(O)c2)oc2cc(O)cc(O)c12
REMARK SMILES IDX 14 1 1 2 22 3 15 4 5 5 3 6 2 7 20 8 16 9 17 10 19 11 6 16
REMARK SMILES IDX 13 17 7 18 11 19 8 20 9 21 12 22 10 27 4 32 21 37 18 42
REMARK H PARENT 12 23 10 28 4 33 21 38 18 43
REMARK Flexibility Score: inf
ROOT
ATOM      1  O   UNL     1       0.874  -2.526  -1.129  1.00  0.00    -0.452 OA
ATOM      2  O   UNL     1      -1.357  -0.032   1.197  1.00  0.00    -0.285 OA
ATOM      3  C   UNL     1      -1.044  -2.199   0.322  1.00  0.00     0.111 A 
ATOM      4  C   UNL     1      -0.241  -3.000  -0.488  1.00  0.00     0.146 A 
ATOM      5  C   UNL     1       1.224  -1.196  -0.953  1.00  0.00     0.180 A 
ATOM      6  C   UNL     1       0.530  -0.318  -0.206  1.00  0.00     0.208 A 
ATOM      7  C   UNL     1      -0.686  -0.784   0.502  1.00  0.00     0.238 A 
ATOM      8  C   UNL     1      -2.170  -2.737   0.950  1.00  0.00     0.134 A 
ATOM      9  C   UNL     1      -0.560  -4.344  -0.676  1.00  0.00     0.094 A 
ATOM     10  C   UNL     1      -1.685  -4.886  -0.050  1.00  0.00     0.123 A 
ATOM     11  C   UNL     1      -2.488  -4.082   0.761  1.00  0.00     0.093 A 
ATOM     12 WAT  UNL     1       0.243  -2.772  -4.051  1.00  0.00     0.000 W 
ATOM     13 WAT  UNL     1       3.154  -4.080   0.050  1.00  0.00     0.000 W 
ATOM     14 WAT  UNL     1      -0.550   2.842   1.506  1.00  0.00     0.000 W 
ATOM     15 WAT  UNL     1      -3.806  -1.060   2.591  1.00  0.00     0.000 W 
ENDROOT
BRANCH   5  16
ATOM     16  C   UNL     1       2.439  -0.818  -1.695  1.00  0.00     0.025 A 
ATOM     17  C   UNL     1       2.345   0.016  -2.809  1.00  0.00     0.062 A 
ATOM     18  C   UNL     1       3.684  -1.294  -1.283  1.00  0.00     0.016 A 
ATOM     19  C   UNL     1       3.496   0.375  -3.511  1.00  0.00     0.158 A 
ATOM     20  C   UNL     1       4.835  -0.936  -1.985  1.00  0.00     0.051 A 
ATOM     21  C   UNL     1       4.741  -0.102  -3.099  1.00  0.00     0.157 A 
BRANCH  19  22
ATOM     22  O   UNL     1       3.393   1.188  -4.598  1.00  0.00    -0.504 OA
ATOM     23  H   UNL     1       2.732   0.831  -5.214  1.00  0.00     0.293 HD
ATOM     24 WAT  UNL     1       6.037   1.077  -6.013  1.00  0.00     0.000 W 
ATOM     25 WAT  UNL     1       2.329   3.814  -3.614  1.00  0.00     0.000 W 
ATOM     26 WAT  UNL     1       1.371   0.096  -6.480  1.00  0.00     0.000 W 
ENDBRANCH  19  22
BRANCH  21  27
ATOM     27  O   UNL     1       5.873   0.242  -3.775  1.00  0.00    -0.504 OA
ATOM     28  H   UNL     1       5.645   0.817  -4.523  1.00  0.00     0.293 HD
ATOM     29 WAT  UNL     1       6.986  -2.289  -4.939  1.00  0.00     0.000 W 
ATOM     30 WAT  UNL     1       7.536   1.887  -1.897  1.00  0.00     0.000 W 
ATOM     31 WAT  UNL     1       5.176   2.002  -6.065  1.00  0.00     0.000 W 
ENDBRANCH  21  27
ENDBRANCH   5  16
BRANCH   6  32
ATOM     32  O   UNL     1       0.886   1.007  -0.078  1.00  0.00    -0.502 OA
ATOM     33  H   UNL     1       0.263   1.461   0.510  1.00  0.00     0.293 HD
ATOM     34 WAT  UNL     1       0.575   2.251  -2.791  1.00  0.00     0.000 W 
ATOM     35 WAT  UNL     1       3.553   1.053   1.295  1.00  0.00     0.000 W 
ATOM     36 WAT  UNL     1      -1.025   2.397   1.723  1.00  0.00     0.000 W 
ENDBRANCH   6  32
BRANCH   8  37
ATOM     37  O   UNL     1      -2.988  -1.998   1.751  1.00  0.00    -0.507 OA
ATOM     38  H   UNL     1      -3.218  -1.160   1.322  1.00  0.00     0.293 HD
ATOM     39 WAT  UNL     1      -1.388  -1.298   4.190  1.00  0.00     0.000 W 
ATOM     40 WAT  UNL     1      -5.543  -3.547   2.027  1.00  0.00     0.000 W 
ATOM     41 WAT  UNL     1      -3.694   0.569   0.437  1.00  0.00     0.000 W 
ENDBRANCH   8  37
BRANCH  10  42
ATOM     42  O   UNL     1      -1.998  -6.197  -0.232  1.00  0.00    -0.508 OA
ATOM     43  H   UNL     1      -2.838  -6.256  -0.719  1.00  0.00     0.293 HD
ATOM     44 WAT  UNL     1      -2.484  -7.363   2.489  1.00  0.00     0.000 W 
ATOM     45 WAT  UNL     1       0.121  -7.363  -2.007  1.00  0.00     0.000 W 
ATOM     46 WAT  UNL     1      -4.566  -6.376  -1.719  1.00  0.00     0.000 W 
ENDBRANCH  10  42
TORSDOF 6
ENDMDL
MODEL 3
REMARK VINA RESULT:    -7.286      0.513      1.517
REMARK INTER + INTRA:         -11.288
REMARK INTER:                  -9.075
REMARK INTRA:                  -2.213
REMARK CONF_INDEPENDENT:        1.790
REMARK UNBOUND:                -2.213
REMARK SMILES O=c1c(O)c(-c2ccc(O)c(O)c2)oc2cc(O)cc(O)c12
REMARK SMILES IDX 14 1 1 2 22 3 15 4 5 5 3 6 2 7 20 8 16 9 17 10 19 11 6 16
REMARK SMILES IDX 13 17 7 18 11 19 8 20 9 21 12 22 10 27 4 32 21 37 18 42
REMARK H PARENT 12 23 10 28 4 33 21 38 18 43
REMARK Flexibility Score: inf
ROOT
ATOM      1  O   UNL     1      -0.024  -0.900   0.582  1.00  0.00    -0.452 OA
ATOM      2  O   UNL     1      -1.846  -4.489  -0.057  1.00  0.00    -0.285 OA
ATOM      3  C   UNL     1      -1.758  -2.487   1.186  1.00  0.00     0.111 A 
ATOM      4  C   UNL     1      -1.091  -1.275   1.355  1.00  0.00     0.146 A 
ATOM      5  C   UNL     1       0.402  -1.758  -0.420  1.00  0.00     0.180 A 
ATOM      6  C   UNL     1      -0.149  -2.958  -0.681  1.00  0.00     0.208 A 
ATOM      7  C   UNL     1      -1.303  -3.408   0.134  1.00  0.00     0.238 A 
ATOM      8  C   UNL     1      -2.840  -2.817   2.006  1.00  0.00     0.134 A 
ATOM      9  C   UNL     1      -1.502  -0.385   2.348  1.00  0.00     0.094 A 
ATOM     10  C   UNL     1      -2.582  -0.711   3.169  1.00  0.00     0.123 A 
ATOM     11  C   UNL     1      -3.249  -1.925   2.998  1.00  0.00     0.093 A 
ATOM     12 WAT  UNL     1       2.288  -0.740   2.486  1.00  0.00     0.000 W 
ATOM     13 WAT  UNL     1      -0.952   1.562  -0.862  1.00  0.00     0.000 W 
ATOM     14 WAT  UNL     1      -0.849  -6.304  -2.228  1.00  0.00     0.000 W 
ATOM     15 WAT  UNL     1      -4.173  -5.321   1.642  1.00  0.00     0.000 W 
ENDROOT
BRANCH   5  16
ATOM     16  C   UNL     1       1.554  -1.235  -1.175  1.00  0.00     0.025 A 
ATOM     17  C   UNL     1       1.366  -0.238  -2.132  1.00  0.00     0.062 A 
ATOM     18  C   UNL     1       2.832  -1.738  -0.933  1.00  0.00     0.016 A 
ATOM     19  C   UNL     1       2.458   0.258  -2.846  1.00  0.00     0.158 A 
ATOM     20  C   UNL     1       3.923  -1.243  -1.647  1.00  0.00     0.051 A 
ATOM     21  C   UNL     1       3.736  -0.245  -2.604  1.00  0.00     0.157 A 
BRANCH  19  22
ATOM     22  O   UNL     1       2.263   1.231  -3.778  1.00  0.00    -0.504 OA
ATOM     23  H   UNL     1       2.475   0.887  -4.661  1.00  0.00     0.293 HD
ATOM     24 WAT  UNL     1       4.258   3.396  -3.195  1.00  0.00     0.000 W 
ATOM     25 WAT  UNL     1      -0.671   1.856  -3.776  1.00  0.00     0.000 W 
ATOM     26 WAT  UNL     1       2.911   0.176  -6.478  1.00  0.00     0.000 W 
ENDBRANCH  19  22
BRANCH  21  27
ATOM     27  O   UNL     1       4.810   0.232  -3.293  1.00  0.00    -0.504 OA
ATOM     28  H   UNL     1       4.561   1.040  -3.770  1.00  0.00     0.293 HD
ATOM     29 WAT  UNL     1       5.482  -1.823  -5.373  1.00  0.00     0.000 W 
ATOM     30 WAT  UNL     1       6.862   1.028  -1.255  1.00  0.00     0.000 W 
ATOM     31 WAT  UNL     1       4.047   2.705  -4.750  1.00  0.00     0.000 W 
ENDBRANCH  21  27
ENDBRANCH   5  16
BRANCH   6  32
ATOM     32  O   UNL     1       0.319  -3.803  -1.664  1.00  0.00    -0.502 OA
ATOM     33  H   UNL     1      -0.402  -4.369  -1.983  1.00  0.00     0.293 HD
ATOM     34 WAT  UNL     1       2.325  -5.615  -0.361  1.00  0.00     0.000 W 
ATOM     35 WAT  UNL     1       1.139  -2.071  -3.971  1.00  0.00     0.000 W 
ATOM     36 WAT  UNL     1      -1.888  -5.536  -2.640  1.00  0.00     0.000 W 
ENDBRANCH   6  32
BRANCH   8  37
ATOM     37  O   UNL     1      -3.525  -3.988   1.883  1.00  0.00    -0.507 OA
ATOM     38  H   UNL     1      -3.046  -4.603   1.307  1.00  0.00     0.293 HD
ATOM     39 WAT  UNL     1      -6.095  -3.329   0.483  1.00  0.00     0.000 W 
ATOM     40 WAT  UNL     1      -3.580  -5.238   4.610  1.00  0.00     0.000 W 
ATOM     41 WAT  UNL     1      -2.060  -5.873   0.119  1.00  0.00     0.000 W 
ENDBRANCH   8  37
BRANCH  10  42
ATOM     42  O   UNL     1      -2.985   0.156   4.137  1.00  0.00    -0.508 OA
ATOM     43  H   UNL     1      -2.528  -0.064   4.968  1.00  0.00     0.293 HD
ATOM     44 WAT  UNL     1      -5.909  -0.342   4.592  1.00  0.00     0.000 W 
ATOM     45 WAT  UNL     1      -2.038   2.882   3.319  1.00  0.00     0.000 W 
ATOM     46 WAT  UNL     1      -1.590  -0.518   6.674  1.00  0.00     0.000 W 
ENDBRANCH  10  42
TORSDOF 6
ENDMDL
MODEL 4
REMARK VINA RESULT:    -7.278      2.523      8.862
REMARK INTER + INTRA:         -11.172
REMARK INTER:                  -9.067
REMARK INTRA:                  -2.105
REMARK CONF_INDEPENDENT:        1.790
REMARK UNBOUND:                -2.105
REMARK SMILES O=c1c(O)c(-c2ccc(O)c(O)c2)oc2cc(O)cc(O)c12
REMARK SMILES IDX 14 1 1 2 22 3 15 4 5 5 3 6 2 7 20 8 16 9 17 10 19 11 6 16
REMARK SMILES IDX 13 17 7 18 11 19 8 20 9 21 12 22 10 27 4 32 21 37 18 42
REMARK H PARENT 12 23 10 28 4 33 21 38 18 43
REMARK Flexibility Score: inf
ROOT
ATOM      1  O   UNL     1       1.423  -0.688  -1.810  1.00  0.00    -0.452 OA
ATOM      2  O   UNL     1       5.037  -0.763   0.072  1.00  0.00    -0.285 OA
ATOM      3  C   UNL     1       3.686   0.167  -1.623  1.00  0.00     0.111 A 
ATOM      4  C   UNL     1       2.429   0.144  -2.224  1.00  0.00     0.146 A 
ATOM      5  C   UNL     1       1.662  -1.533  -0.737  1.00  0.00     0.180 A 
ATOM      6  C   UNL     1       2.831  -1.613  -0.075  1.00  0.00     0.208 A 
ATOM      7  C   UNL     1       3.951  -0.736  -0.492  1.00  0.00     0.238 A 
ATOM      8  C   UNL     1       4.675   1.037  -2.090  1.00  0.00     0.134 A 
ATOM      9  C   UNL     1       2.154   0.989  -3.300  1.00  0.00     0.094 A 
ATOM     10  C   UNL     1       3.140   1.859  -3.769  1.00  0.00     0.123 A 
ATOM     11  C   UNL     1       4.398   1.881  -3.164  1.00  0.00     0.093 A 
ATOM     12 WAT  UNL     1       0.933  -2.521  -4.133  1.00  0.00     0.000 W 
ATOM     13 WAT  UNL     1      -0.751   1.153  -0.866  1.00  0.00     0.000 W 
ATOM     14 WAT  UNL     1       5.485  -2.639   2.370  1.00  0.00     0.000 W 
ATOM     15 WAT  UNL     1       7.249   1.046  -0.841  1.00  0.00     0.000 W 
ENDROOT
BRANCH   5  16
ATOM     16  C   UNL     1       0.499  -2.371  -0.394  1.00  0.00     0.025 A 
ATOM     17  C   UNL     1      -0.035  -3.244  -1.341  1.00  0.00     0.062 A 
ATOM     18  C   UNL     1      -0.067  -2.291   0.879  1.00  0.00     0.016 A 
ATOM     19  C   UNL     1      -1.135  -4.038  -1.016  1.00  0.00     0.158 A 
ATOM     20  C   UNL     1      -1.167  -3.084   1.204  1.00  0.00     0.051 A 
ATOM     21  C   UNL     1      -1.702  -3.957   0.256  1.00  0.00     0.157 A 
BRANCH  19  22
ATOM     22  O   UNL     1      -1.650  -4.886  -1.949  1.00  0.00    -0.504 OA
ATOM     23  H   UNL     1      -2.507  -5.227  -1.646  1.00  0.00     0.293 HD
ATOM     24 WAT  UNL     1       0.210  -7.237  -2.098  1.00  0.00     0.000 W 
ATOM     25 WAT  UNL     1      -2.191  -3.245  -4.401  1.00  0.00     0.000 W 
ATOM     26 WAT  UNL     1      -4.272  -5.927  -1.021  1.00  0.00     0.000 W 
ENDBRANCH  19  22
BRANCH  21  27
ATOM     27  O   UNL     1      -2.775  -4.729   0.586  1.00  0.00    -0.504 OA
ATOM     28  H   UNL     1      -3.071  -5.227  -0.192  1.00  0.00     0.293 HD
ATOM     29 WAT  UNL     1      -5.000  -2.849   1.306  1.00  0.00     0.000 W 
ATOM     30 WAT  UNL     1      -1.809  -6.744   2.587  1.00  0.00     0.000 W 
ATOM     31 WAT  UNL     1      -3.682  -6.255  -1.795  1.00  0.00     0.000 W 
ENDBRANCH  21  27
ENDBRANCH   5  16
BRANCH   6  32
ATOM     32  O   UNL     1       3.047  -2.488   0.968  1.00  0.00    -0.502 OA
ATOM     33  H   UNL     1       3.292  -3.360   0.621  1.00  0.00     0.293 HD
ATOM     34 WAT  UNL     1       0.416  -2.825   2.370  1.00  0.00     0.000 W 
ATOM     35 WAT  UNL     1       5.429  -1.461   2.475  1.00  0.00     0.000 W 
ATOM     36 WAT  UNL     1       3.796  -5.159  -0.095  1.00  0.00     0.000 W 
ENDBRANCH   6  32
BRANCH   8  37
ATOM     37  O   UNL     1       5.919   1.099  -1.537  1.00  0.00    -0.507 OA
ATOM     38  H   UNL     1       5.910   0.741  -0.636  1.00  0.00     0.293 HD
ATOM     39 WAT  UNL     1       6.600   4.011  -1.293  1.00  0.00     0.000 W 
ATOM     40 WAT  UNL     1       7.668  -0.720  -3.161  1.00  0.00     0.000 W 
ATOM     41 WAT  UNL     1       5.891   0.002   1.222  1.00  0.00     0.000 W 
ENDBRANCH   8  37
BRANCH  10  42
ATOM     42  O   UNL     1       2.874   2.684  -4.817  1.00  0.00    -0.508 OA
ATOM     43  H   UNL     1       2.402   2.183  -5.503  1.00  0.00     0.293 HD
ATOM     44 WAT  UNL     1       5.518   3.485  -5.988  1.00  0.00     0.000 W 
ATOM     45 WAT  UNL     1       0.981   4.785  -3.815  1.00  0.00     0.000 W 
ATOM     46 WAT  UNL     1       1.431   1.148  -6.912  1.00  0.00     0.000 W 
ENDBRANCH  10  42
TORSDOF 6
ENDMDL
MODEL 5
REMARK VINA RESULT:    -7.112      1.320      3.210
REMARK INTER + INTRA:         -11.067
REMARK INTER:                  -8.902
REMARK INTRA:                  -2.165
REMARK CONF_INDEPENDENT:        1.790
REMARK UNBOUND:                -2.165
REMARK SMILES O=c1c(O)c(-c2ccc(O)c(O)c2)oc2cc(O)cc(O)c12
REMARK SMILES IDX 14 1 1 2 22 3 15 4 5 5 3 6 2 7 20 8 16 9 17 10 19 11 6 16
REMARK SMILES IDX 13 17 7 18 11 19 8 20 9 21 12 22 10 27 4 32 21 37 18 42
REMARK H PARENT 12 23 10 28 4 33 21 38 18 43
REMARK Flexibility Score: inf
ROOT
ATOM      1  O   UNL     1      -0.019  -0.925   0.392  1.00  0.00    -0.452 OA
ATOM      2  O   UNL     1      -1.734  -4.594  -0.064  1.00  0.00    -0.285 OA
ATOM      3  C   UNL     1      -1.752  -2.502   1.025  1.00  0.00     0.111 A 
ATOM      4  C   UNL     1      -1.119  -1.265   1.134  1.00  0.00     0.146 A 
ATOM      5  C   UNL     1       0.477  -1.847  -0.517  1.00  0.00     0.180 A 
ATOM      6  C   UNL     1      -0.035  -3.076  -0.713  1.00  0.00     0.208 A 
ATOM      7  C   UNL     1      -1.223  -3.490   0.072  1.00  0.00     0.238 A 
ATOM      8  C   UNL     1      -2.870  -2.794   1.810  1.00  0.00     0.134 A 
ATOM      9  C   UNL     1      -1.600  -0.312   2.032  1.00  0.00     0.094 A 
ATOM     10  C   UNL     1      -2.718  -0.600   2.818  1.00  0.00     0.123 A 
ATOM     11  C   UNL     1      -3.350  -1.839   2.706  1.00  0.00     0.093 A 
ATOM     12 WAT  UNL     1       2.182  -0.566   2.398  1.00  0.00     0.000 W 
ATOM     13 WAT  UNL     1      -0.915   1.397  -1.285  1.00  0.00     0.000 W 
ATOM     14 WAT  UNL     1      -0.584  -6.546  -2.032  1.00  0.00     0.000 W 
ATOM     15 WAT  UNL     1      -4.133  -5.349   1.570  1.00  0.00     0.000 W 
ENDROOT
BRANCH   5  16
ATOM     16  C   UNL     1       1.658  -1.356  -1.248  1.00  0.00     0.025 A 
ATOM     17  C   UNL     1       2.889  -1.993  -1.094  1.00  0.00     0.062 A 
ATOM     18  C   UNL     1       1.544  -0.253  -2.096  1.00  0.00     0.016 A 
ATOM     19  C   UNL     1       4.007  -1.529  -1.788  1.00  0.00     0.158 A 
ATOM     20  C   UNL     1       2.662   0.212  -2.788  1.00  0.00     0.051 A 
ATOM     21  C   UNL     1       3.893  -0.425  -2.634  1.00  0.00     0.157 A 
BRANCH  19  22
ATOM     22  O   UNL     1       5.204  -2.157  -1.629  1.00  0.00    -0.504 OA
ATOM     23  H   UNL     1       5.883  -1.709  -2.159  1.00  0.00     0.293 HD
ATOM     24 WAT  UNL     1       4.891  -4.912  -2.777  1.00  0.00     0.000 W 
ATOM     25 WAT  UNL     1       5.986  -1.811   1.246  1.00  0.00     0.000 W 
ATOM     26 WAT  UNL     1       7.280  -0.786  -3.251  1.00  0.00     0.000 W 
ENDBRANCH  19  22
BRANCH  21  27
ATOM     27  O   UNL     1       4.977   0.037  -3.318  1.00  0.00    -0.504 OA
ATOM     28  H   UNL     1       5.787  -0.351  -2.949  1.00  0.00     0.293 HD
ATOM     29 WAT  UNL     1       5.124   2.990  -2.808  1.00  0.00     0.000 W 
ATOM     30 WAT  UNL     1       4.729  -0.988  -6.127  1.00  0.00     0.000 W 
ATOM     31 WAT  UNL     1       7.455  -1.150  -2.190  1.00  0.00     0.000 W 
ENDBRANCH  21  27
ENDBRANCH   5  16
BRANCH   6  32
ATOM     32  O   UNL     1       0.502  -3.982  -1.602  1.00  0.00    -0.502 OA
ATOM     33  H   UNL     1      -0.007  -3.976  -2.427  1.00  0.00     0.293 HD
ATOM     34 WAT  UNL     1       0.141  -6.701  -0.386  1.00  0.00     0.000 W 
ATOM     35 WAT  UNL     1       3.253  -2.997  -2.280  1.00  0.00     0.000 W 
ATOM     36 WAT  UNL     1      -1.059  -3.963  -4.129  1.00  0.00     0.000 W 
ENDBRANCH   6  32
BRANCH   8  37
ATOM     37  O   UNL     1      -3.525  -3.987   1.741  1.00  0.00    -0.507 OA
ATOM     38  H   UNL     1      -3.046  -4.605   1.168  1.00  0.00     0.293 HD
ATOM     39 WAT  UNL     1      -6.154  -3.442   0.402  1.00  0.00     0.000 W 
ATOM     40 WAT  UNL     1      -3.462  -5.157   4.503  1.00  0.00     0.000 W 
ATOM     41 WAT  UNL     1      -2.059  -5.882  -0.013  1.00  0.00     0.000 W 
ENDBRANCH   8  37
BRANCH  10  42
ATOM     42  O   UNL     1      -3.189   0.327   3.694  1.00  0.00    -0.508 OA
ATOM     43  H   UNL     1      -3.178  -0.050   4.590  1.00  0.00     0.293 HD
ATOM     44 WAT  UNL     1      -6.064   0.813   2.987  1.00  0.00     0.000 W 
ATOM     45 WAT  UNL     1      -1.238   2.607   3.686  1.00  0.00     0.000 W 
ATOM     46 WAT  UNL     1      -3.157  -0.828   6.432  1.00  0.00     0.000 W 
ENDBRANCH  10  42
TORSDOF 6
ENDMDL
MODEL 6
REMARK VINA RESULT:    -7.067      1.923      8.951
REMARK INTER + INTRA:         -11.264
REMARK INTER:                  -8.857
REMARK INTRA:                  -2.407
REMARK CONF_INDEPENDENT:        1.790
REMARK UNBOUND:                -2.407
REMARK SMILES O=c1c(O)c(-c2ccc(O)c(O)c2)oc2cc(O)cc(O)c12
REMARK SMILES IDX 14 1 1 2 22 3 15 4 5 5 3 6 2 7 20 8 16 9 17 10 19 11 6 16
REMARK SMILES IDX 13 17 7 18 11 19 8 20 9 21 12 22 10 27 4 32 21 37 18 42
REMARK H PARENT 12 23 10 28 4 33 21 38 18 43
REMARK Flexibility Score: inf
ROOT
ATOM      1  O   UNL     1       0.961  -0.977  -1.109  1.00  0.00    -0.452 OA
ATOM      2  O   UNL     1       4.675  -2.055   0.174  1.00  0.00    -0.285 OA
ATOM      3  C   UNL     1       3.370  -0.800  -1.337  1.00  0.00     0.111 A 
ATOM      4  C   UNL     1       2.074  -0.472  -1.729  1.00  0.00     0.146 A 
ATOM      5  C   UNL     1       1.133  -1.841  -0.039  1.00  0.00     0.180 A 
ATOM      6  C   UNL     1       2.328  -2.243   0.431  1.00  0.00     0.208 A 
ATOM      7  C   UNL     1       3.561  -1.727  -0.211  1.00  0.00     0.238 A 
ATOM      8  C   UNL     1       4.468  -0.255  -2.008  1.00  0.00     0.134 A 
ATOM      9  C   UNL     1       1.867   0.402  -2.796  1.00  0.00     0.094 A 
ATOM     10  C   UNL     1       2.961   0.949  -3.468  1.00  0.00     0.123 A 
ATOM     11  C   UNL     1       4.259   0.620  -3.074  1.00  0.00     0.093 A 
ATOM     12 WAT  UNL     1      -0.408  -2.624  -3.210  1.00  0.00     0.000 W 
ATOM     13 WAT  UNL     1      -0.421   1.419   0.055  1.00  0.00     0.000 W 
ATOM     14 WAT  UNL     1       4.966  -3.952   2.480  1.00  0.00     0.000 W 
ATOM     15 WAT  UNL     1       7.115  -0.964  -1.188  1.00  0.00     0.000 W 
ENDROOT
BRANCH   5  16
ATOM     16  C   UNL     1      -0.141  -2.308   0.534  1.00  0.00     0.025 A 
ATOM     17  C   UNL     1      -0.583  -3.608   0.287  1.00  0.00     0.062 A 
ATOM     18  C   UNL     1      -0.906  -1.450   1.325  1.00  0.00     0.016 A 
ATOM     19  C   UNL     1      -1.789  -4.050   0.831  1.00  0.00     0.158 A 
ATOM     20  C   UNL     1      -2.112  -1.892   1.869  1.00  0.00     0.051 A 
ATOM     21  C   UNL     1      -2.554  -3.192   1.621  1.00  0.00     0.157 A 
BRANCH  19  22
ATOM     22  O   UNL     1      -2.212  -5.321   0.582  1.00  0.00    -0.504 OA
ATOM     23  H   UNL     1      -3.149  -5.408   0.821  1.00  0.00     0.293 HD
ATOM     24 WAT  UNL     1      -0.677  -7.119   2.430  1.00  0.00     0.000 W 
ATOM     25 WAT  UNL     1      -2.038  -5.721  -2.386  1.00  0.00     0.000 W 
ATOM     26 WAT  UNL     1      -5.078  -5.586   1.315  1.00  0.00     0.000 W 
ENDBRANCH  19  22
BRANCH  21  27
ATOM     27  O   UNL     1      -3.733  -3.613   2.159  1.00  0.00    -0.504 OA
ATOM     28  H   UNL     1      -3.902  -4.532   1.899  1.00  0.00     0.293 HD
ATOM     29 WAT  UNL     1      -5.894  -1.949   0.910  1.00  0.00     0.000 W 
ATOM     30 WAT  UNL     1      -3.373  -3.612   5.138  1.00  0.00     0.000 W 
ATOM     31 WAT  UNL     1      -4.251  -6.427   1.361  1.00  0.00     0.000 W 
ENDBRANCH  21  27
ENDBRANCH   5  16
BRANCH   6  32
ATOM     32  O   UNL     1       2.465  -3.130   1.478  1.00  0.00    -0.502 OA
ATOM     33  H   UNL     1       3.217  -3.720   1.313  1.00  0.00     0.293 HD
ATOM     34 WAT  UNL     1       0.005  -4.848   1.481  1.00  0.00     0.000 W 
ATOM     35 WAT  UNL     1       3.162  -1.503   3.900  1.00  0.00     0.000 W 
ATOM     36 WAT  UNL     1       4.768  -4.937   0.972  1.00  0.00     0.000 W 
ENDBRANCH   6  32
BRANCH   8  37
ATOM     37  O   UNL     1       5.755  -0.543  -1.665  1.00  0.00    -0.507 OA
ATOM     38  H   UNL     1       5.817  -0.756  -0.721  1.00  0.00     0.293 HD
ATOM     39 WAT  UNL     1       7.333   1.975  -2.078  1.00  0.00     0.000 W 
ATOM     40 WAT  UNL     1       6.498  -3.040  -3.154  1.00  0.00     0.000 W 
ATOM     41 WAT  UNL     1       5.944  -1.195   1.225  1.00  0.00     0.000 W 
ENDBRANCH   8  37
BRANCH  10  42
ATOM     42  O   UNL     1       2.763   1.802  -4.508  1.00  0.00    -0.508 OA
ATOM     43  H   UNL     1       2.386   1.307  -5.256  1.00  0.00     0.293 HD
ATOM     44 WAT  UNL     1       5.468   2.768  -5.374  1.00  0.00     0.000 W 
ATOM     45 WAT  UNL     1       0.677   3.774  -3.634  1.00  0.00     0.000 W 
ATOM     46 WAT  UNL     1       1.615   0.287  -6.793  1.00  0.00     0.000 W 
ENDBRANCH  10  42
TORSDOF 6
ENDMDL
MODEL 7
REMARK VINA RESULT:    -6.957      1.168      3.007
REMARK INTER + INTRA:         -11.192
REMARK INTER:                  -8.747
REMARK INTRA:                  -2.445
REMARK CONF_INDEPENDENT:        1.790
REMARK UNBOUND:                -2.445
REMARK SMILES O=c1c(O)c(-c2ccc(O)c(O)c2)oc2cc(O)cc(O)c12
REMARK SMILES IDX 14 1 1 2 22 3 15 4 5 5 3 6 2 7 20 8 16 9 17 10 19 11 6 16
REMARK SMILES IDX 13 17 7 18 11 19 8 20 9 21 12 22 10 27 4 32 21 37 18 42
REMARK H PARENT 12 23 10 28 4 33 21 38 18 43
REMARK Flexibility Score: inf
ROOT
ATOM      1  O   UNL     1      -0.118  -0.832   0.367  1.00  0.00    -0.452 OA
ATOM      2  O   UNL     1      -1.754  -4.536  -0.090  1.00  0.00    -0.285 OA
ATOM      3  C   UNL     1      -1.801  -2.455   1.018  1.00  0.00     0.111 A 
ATOM      4  C   UNL     1      -1.196  -1.205   1.127  1.00  0.00     0.146 A 
ATOM      5  C   UNL     1       0.383  -1.734  -0.559  1.00  0.00     0.180 A 
ATOM      6  C   UNL     1      -0.104  -2.973  -0.757  1.00  0.00     0.208 A 
ATOM      7  C   UNL     1      -1.267  -3.422   0.046  1.00  0.00     0.238 A 
ATOM      8  C   UNL     1      -2.897  -2.780   1.820  1.00  0.00     0.134 A 
ATOM      9  C   UNL     1      -1.682  -0.271   2.043  1.00  0.00     0.094 A 
ATOM     10  C   UNL     1      -2.777  -0.592   2.846  1.00  0.00     0.123 A 
ATOM     11  C   UNL     1      -3.383  -1.845   2.734  1.00  0.00     0.093 A 
ATOM     12 WAT  UNL     1       2.112  -0.439   2.335  1.00  0.00     0.000 W 
ATOM     13 WAT  UNL     1      -1.100   1.483  -1.270  1.00  0.00     0.000 W 
ATOM     14 WAT  UNL     1      -0.597  -6.442  -2.098  1.00  0.00     0.000 W 
ATOM     15 WAT  UNL     1      -4.104  -5.363   1.581  1.00  0.00     0.000 W 
ENDROOT
BRANCH   5  16
ATOM     16  C   UNL     1       1.538  -1.208  -1.308  1.00  0.00     0.025 A 
ATOM     17  C   UNL     1       2.761  -1.876  -1.261  1.00  0.00     0.062 A 
ATOM     18  C   UNL     1       1.407  -0.042  -2.063  1.00  0.00     0.016 A 
ATOM     19  C   UNL     1       3.855  -1.378  -1.971  1.00  0.00     0.158 A 
ATOM     20  C   UNL     1       2.500   0.455  -2.772  1.00  0.00     0.051 A 
ATOM     21  C   UNL     1       3.724  -0.212  -2.726  1.00  0.00     0.157 A 
BRANCH  19  22
ATOM     22  O   UNL     1       5.045  -2.037  -1.918  1.00  0.00    -0.504 OA
ATOM     23  H   UNL     1       5.721  -1.534  -2.400  1.00  0.00     0.293 HD
ATOM     24 WAT  UNL     1       4.670  -4.619  -3.401  1.00  0.00     0.000 W 
ATOM     25 WAT  UNL     1       5.884  -2.072   0.962  1.00  0.00     0.000 W 
ATOM     26 WAT  UNL     1       7.112  -0.496  -3.393  1.00  0.00     0.000 W 
ENDBRANCH  19  22
BRANCH  21  27
ATOM     27  O   UNL     1       4.784   0.282  -3.425  1.00  0.00    -0.504 OA
ATOM     28  H   UNL     1       5.606  -0.121  -3.102  1.00  0.00     0.293 HD
ATOM     29 WAT  UNL     1       4.949   3.209  -2.785  1.00  0.00     0.000 W 
ATOM     30 WAT  UNL     1       4.439  -0.614  -6.267  1.00  0.00     0.000 W 
ATOM     31 WAT  UNL     1       7.299  -0.952  -2.438  1.00  0.00     0.000 W 
ENDBRANCH  21  27
ENDBRANCH   5  16
BRANCH   6  32
ATOM     32  O   UNL     1       0.437  -3.858  -1.664  1.00  0.00    -0.502 OA
ATOM     33  H   UNL     1      -0.262  -4.421  -2.033  1.00  0.00     0.293 HD
ATOM     34 WAT  UNL     1       2.272  -5.661  -0.120  1.00  0.00     0.000 W 
ATOM     35 WAT  UNL     1       1.509  -2.217  -3.935  1.00  0.00     0.000 W 
ATOM     36 WAT  UNL     1      -1.703  -5.582  -2.792  1.00  0.00     0.000 W 
ENDBRANCH   6  32
BRANCH   8  37
ATOM     37  O   UNL     1      -3.525  -3.988   1.753  1.00  0.00    -0.507 OA
ATOM     38  H   UNL     1      -3.038  -4.592   1.173  1.00  0.00     0.293 HD
ATOM     39 WAT  UNL     1      -6.179  -3.498   0.442  1.00  0.00     0.000 W 
ATOM     40 WAT  UNL     1      -3.408  -5.168   4.509  1.00  0.00     0.000 W 
ATOM     41 WAT  UNL     1      -2.033  -5.841  -0.024  1.00  0.00     0.000 W 
ENDBRANCH   8  37
BRANCH  10  42
ATOM     42  O   UNL     1      -3.254   0.316   3.740  1.00  0.00    -0.508 OA
ATOM     43  H   UNL     1      -2.824   1.173   3.579  1.00  0.00     0.293 HD
ATOM     44 WAT  UNL     1      -2.385  -0.599   6.462  1.00  0.00     0.000 W 
ATOM     45 WAT  UNL     1      -6.171   0.681   3.141  1.00  0.00     0.000 W 
ATOM     46 WAT  UNL     1      -1.937   2.935   3.247  1.00  0.00     0.000 W 
ENDBRANCH  10  42
TORSDOF 6
ENDMDL
MODEL 8
REMARK VINA RESULT:    -6.858      2.088      5.833
REMARK INTER + INTRA:         -11.102
REMARK INTER:                  -8.648
REMARK INTRA:                  -2.453
REMARK CONF_INDEPENDENT:        1.790
REMARK UNBOUND:                -2.453
REMARK SMILES O=c1c(O)c(-c2ccc(O)c(O)c2)oc2cc(O)cc(O)c12
REMARK SMILES IDX 14 1 1 2 22 3 15 4 5 5 3 6 2 7 20 8 16 9 17 10 19 11 6 16
REMARK SMILES IDX 13 17 7 18 11 19 8 20 9 21 12 22 10 27 4 32 21 37 18 42
REMARK H PARENT 12 23 10 28 4 33 21 38 18 43
REMARK Flexibility Score: inf
ROOT
ATOM      1  O   UNL     1       0.963  -2.497  -1.123  1.00  0.00    -0.452 OA
ATOM      2  O   UNL     1      -1.263  -0.099   1.307  1.00  0.00    -0.285 OA
ATOM      3  C   UNL     1      -0.980  -2.215   0.304  1.00  0.00     0.111 A 
ATOM      4  C   UNL     1      -0.177  -2.983  -0.537  1.00  0.00     0.146 A 
ATOM      5  C   UNL     1       1.339  -1.189  -0.856  1.00  0.00     0.180 A 
ATOM      6  C   UNL     1       0.648  -0.342  -0.071  1.00  0.00     0.208 A 
ATOM      7  C   UNL     1      -0.594  -0.823   0.581  1.00  0.00     0.238 A 
ATOM      8  C   UNL     1      -2.132  -2.764   0.873  1.00  0.00     0.134 A 
ATOM      9  C   UNL     1      -0.522  -4.305  -0.817  1.00  0.00     0.094 A 
ATOM     10  C   UNL     1      -1.673  -4.857  -0.250  1.00  0.00     0.123 A 
ATOM     11  C   UNL     1      -2.475  -4.086   0.593  1.00  0.00     0.093 A 
ATOM     12 WAT  UNL     1       0.393  -2.545  -4.068  1.00  0.00     0.000 W 
ATOM     13 WAT  UNL     1       3.179  -4.176   0.004  1.00  0.00     0.000 W 
ATOM     14 WAT  UNL     1      -0.398   2.729   1.814  1.00  0.00     0.000 W 
ATOM     15 WAT  UNL     1      -3.766  -1.153   2.581  1.00  0.00     0.000 W 
ENDROOT
BRANCH   5  16
ATOM     16  C   UNL     1       2.579  -0.795  -1.547  1.00  0.00     0.025 A 
ATOM     17  C   UNL     1       3.634  -1.700  -1.658  1.00  0.00     0.062 A 
ATOM     18  C   UNL     1       2.697   0.484  -2.091  1.00  0.00     0.016 A 
ATOM     19  C   UNL     1       4.808  -1.327  -2.313  1.00  0.00     0.158 A 
ATOM     20  C   UNL     1       3.871   0.858  -2.746  1.00  0.00     0.051 A 
ATOM     21  C   UNL     1       4.926  -0.047  -2.856  1.00  0.00     0.157 A 
BRANCH  19  22
ATOM     22  O   UNL     1       5.833  -2.218  -2.414  1.00  0.00    -0.504 OA
ATOM     23  H   UNL     1       6.450  -1.931  -3.106  1.00  0.00     0.293 HD
ATOM     24 WAT  UNL     1       4.635  -4.808  -3.344  1.00  0.00     0.000 W 
ATOM     25 WAT  UNL     1       7.332  -2.106   0.182  1.00  0.00     0.000 W 
ATOM     26 WAT  UNL     1       7.721  -1.340  -4.531  1.00  0.00     0.000 W 
ENDBRANCH  19  22
BRANCH  21  27
ATOM     27  O   UNL     1       6.067   0.329  -3.500  1.00  0.00    -0.504 OA
ATOM     28  H   UNL     1       6.590  -0.457  -3.724  1.00  0.00     0.293 HD
ATOM     29 WAT  UNL     1       7.687   1.910  -1.531  1.00  0.00     0.000 W 
ATOM     30 WAT  UNL     1       5.225   1.578  -6.094  1.00  0.00     0.000 W 
ATOM     31 WAT  UNL     1       7.668  -2.076  -4.189  1.00  0.00     0.000 W 
ENDBRANCH  21  27
ENDBRANCH   5  16
BRANCH   6  32
ATOM     32  O   UNL     1       1.032   0.963   0.148  1.00  0.00    -0.502 OA
ATOM     33  H   UNL     1       0.475   1.359   0.837  1.00  0.00     0.293 HD
ATOM     34 WAT  UNL     1       0.467   2.465  -2.387  1.00  0.00     0.000 W 
ATOM     35 WAT  UNL     1       3.822   0.869   1.245  1.00  0.00     0.000 W 
ATOM     36 WAT  UNL     1      -0.674   2.175   2.257  1.00  0.00     0.000 W 
ENDBRANCH   6  32
BRANCH   8  37
ATOM     37  O   UNL     1      -2.951  -2.056   1.702  1.00  0.00    -0.507 OA
ATOM     38  H   UNL     1      -3.122  -1.174   1.339  1.00  0.00     0.293 HD
ATOM     39 WAT  UNL     1      -1.434  -1.651   4.258  1.00  0.00     0.000 W 
ATOM     40 WAT  UNL     1      -5.585  -3.493   1.730  1.00  0.00     0.000 W 
ATOM     41 WAT  UNL     1      -3.475   0.647   0.592  1.00  0.00     0.000 W 
ENDBRANCH   8  37
BRANCH  10  42
ATOM     42  O   UNL     1      -2.012  -6.146  -0.521  1.00  0.00    -0.508 OA
ATOM     43  H   UNL     1      -2.771  -6.152  -1.128  1.00  0.00     0.293 HD
ATOM     44 WAT  UNL     1      -2.946  -7.362   2.058  1.00  0.00     0.000 W 
ATOM     45 WAT  UNL     1       0.296  -7.363  -2.002  1.00  0.00     0.000 W 
ATOM     46 WAT  UNL     1      -4.334  -6.162  -2.375  1.00  0.00     0.000 W 
ENDBRANCH  10  42
TORSDOF 6
ENDMDL
MODEL 9
REMARK VINA RESULT:    -6.669      2.020      5.273
REMARK INTER + INTRA:         -10.995
REMARK INTER:                  -8.459
REMARK INTRA:                  -2.536
REMARK CONF_INDEPENDENT:        1.790
REMARK UNBOUND:                -2.536
REMARK SMILES O=c1c(O)c(-c2ccc(O)c(O)c2)oc2cc(O)cc(O)c12
REMARK SMILES IDX 14 1 1 2 22 3 15 4 5 5 3 6 2 7 20 8 16 9 17 10 19 11 6 16
REMARK SMILES IDX 13 17 7 18 11 19 8 20 9 21 12 22 10 27 4 32 21 37 18 42
REMARK H PARENT 12 23 10 28 4 33 21 38 18 43
REMARK Flexibility Score: inf
ROOT
ATOM      1  O   UNL     1       1.046  -2.357  -1.481  1.00  0.00    -0.452 OA
ATOM      2  O   UNL     1      -0.729  -0.716   1.800  1.00  0.00    -0.285 OA
ATOM      3  C   UNL     1      -0.687  -2.461   0.214  1.00  0.00     0.111 A 
ATOM      4  C   UNL     1      -0.036  -2.970  -0.908  1.00  0.00     0.146 A 
ATOM      5  C   UNL     1       1.523  -1.187  -0.911  1.00  0.00     0.180 A 
ATOM      6  C   UNL     1       0.982  -0.588   0.166  1.00  0.00     0.208 A 
ATOM      7  C   UNL     1      -0.195  -1.213   0.816  1.00  0.00     0.238 A 
ATOM      8  C   UNL     1      -1.788  -3.130   0.755  1.00  0.00     0.134 A 
ATOM      9  C   UNL     1      -0.485  -4.151  -1.499  1.00  0.00     0.094 A 
ATOM     10  C   UNL     1      -1.585  -4.822  -0.962  1.00  0.00     0.123 A 
ATOM     11  C   UNL     1      -2.235  -4.311   0.163  1.00  0.00     0.093 A 
ATOM     12 WAT  UNL     1       0.116  -1.552  -4.217  1.00  0.00     0.000 W 
ATOM     13 WAT  UNL     1       3.290  -4.326  -1.178  1.00  0.00     0.000 W 
ATOM     14 WAT  UNL     1       0.345   1.835   2.959  1.00  0.00     0.000 W 
ATOM     15 WAT  UNL     1      -3.109  -2.046   3.049  1.00  0.00     0.000 W 
ENDROOT
BRANCH   5  16
ATOM     16  C   UNL     1       2.688  -0.633  -1.623  1.00  0.00     0.025 A 
ATOM     17  C   UNL     1       2.510   0.360  -2.586  1.00  0.00     0.062 A 
ATOM     18  C   UNL     1       3.970  -1.101  -1.332  1.00  0.00     0.016 A 
ATOM     19  C   UNL     1       3.614   0.885  -3.259  1.00  0.00     0.158 A 
ATOM     20  C   UNL     1       5.073  -0.577  -2.006  1.00  0.00     0.051 A 
ATOM     21  C   UNL     1       4.895   0.416  -2.969  1.00  0.00     0.157 A 
BRANCH  19  22
ATOM     22  O   UNL     1       3.428   1.853  -4.199  1.00  0.00    -0.504 OA
ATOM     23  H   UNL     1       4.278   2.077  -4.612  1.00  0.00     0.293 HD
ATOM     24 WAT  UNL     1       2.507   4.308  -2.739  1.00  0.00     0.000 W 
ATOM     25 WAT  UNL     1       1.713   0.653  -6.347  1.00  0.00     0.000 W 
ATOM     26 WAT  UNL     1       6.029   2.535  -5.462  1.00  0.00     0.000 W 
ENDBRANCH  19  22
BRANCH  21  27
ATOM     27  O   UNL     1       5.981   0.922  -3.619  1.00  0.00    -0.504 OA
ATOM     28  H   UNL     1       5.691   1.463  -4.370  1.00  0.00     0.293 HD
ATOM     29 WAT  UNL     1       7.469  -1.418  -4.765  1.00  0.00     0.000 W 
ATOM     30 WAT  UNL     1       7.352   2.774  -1.697  1.00  0.00     0.000 W 
ATOM     31 WAT  UNL     1       5.092   2.579  -5.917  1.00  0.00     0.000 W 
ENDBRANCH  21  27
ENDBRANCH   5  16
BRANCH   6  32
ATOM     32  O   UNL     1       1.460   0.594   0.689  1.00  0.00    -0.502 OA
ATOM     33  H   UNL     1       0.779   1.010   1.241  1.00  0.00     0.293 HD
ATOM     34 WAT  UNL     1       1.934   2.436  -1.631  1.00  0.00     0.000 W 
ATOM     35 WAT  UNL     1       3.726  -0.127   2.518  1.00  0.00     0.000 W 
ATOM     36 WAT  UNL     1      -0.627   1.867   2.377  1.00  0.00     0.000 W 
ENDBRANCH   6  32
BRANCH   8  37
ATOM     37  O   UNL     1      -2.459  -2.675   1.850  1.00  0.00    -0.507 OA
ATOM     38  H   UNL     1      -1.836  -2.388   2.536  1.00  0.00     0.293 HD
ATOM     39 WAT  UNL     1      -3.948  -5.024   2.976  1.00  0.00     0.000 W 
ATOM     40 WAT  UNL     1      -3.957  -0.226   0.979  1.00  0.00     0.000 W 
ATOM     41 WAT  UNL     1      -0.552  -1.796   3.950  1.00  0.00     0.000 W 
ENDBRANCH   8  37
BRANCH  10  42
ATOM     42  O   UNL     1      -2.025  -5.974  -1.536  1.00  0.00    -0.508 OA
ATOM     43  H   UNL     1      -2.601  -5.753  -2.288  1.00  0.00     0.293 HD
ATOM     44 WAT  UNL     1      -3.740  -7.363   0.497  1.00  0.00     0.000 W 
ATOM     45 WAT  UNL     1       0.384  -7.362  -2.663  1.00  0.00     0.000 W 
ATOM     46 WAT  UNL     1      -3.786  -5.297  -3.833  1.00  0.00     0.000 W 
ENDBRANCH  10  42
TORSDOF 6
ENDMDL
