MODEL 1
REMARK VINA RESULT:      -7.7      0.000      0.000
REMARK  11 active torsions:
REMARK  status: ('A' for Active; 'I' for Inactive)
REMARK    1  A    between atoms: O_1  and  C_9 
REMARK    2  A    between atoms: O_2  and  C_19 
REMARK    3  A    between atoms: O_3  and  C_26 
REMARK    4  A    between atoms: O_4  and  C_27 
REMARK    5  A    between atoms: O_6  and  C_28 
REMARK    6  A    between atoms: O_7  and  C_32 
REMARK    7  A    between atoms: C_10  and  C_19 
REMARK    8  A    between atoms: C_19  and  C_27 
REMARK    9  A    between atoms: C_27  and  C_30 
REMARK   10  A    between atoms: C_30  and  C_31 
REMARK   11  A    between atoms: C_31  and  C_32 
ROOT
HETATM    1  O   UNK     0     187.085 188.078 170.749  0.00  0.00    -0.384 OA
HETATM    2  H   UNK     0     186.743 188.968 170.555  0.00  0.00     0.211 HD
ENDROOT
BRANCH   1   3
HETATM    3  C   UNK     0     186.260 187.123 170.044  0.00  0.00     0.089 C 
HETATM    4  C   UNK     0     187.161 186.199 169.184  0.00  0.00    -0.002 C 
HETATM    5  C   UNK     0     187.749 187.223 168.179  0.00  0.00     0.034 C 
HETATM    6  C   UNK     0     188.213 185.550 170.100  0.00  0.00     0.014 C 
HETATM    7  C   UNK     0     186.361 185.094 168.442  0.00  0.00     0.019 C 
HETATM    8  C   UNK     0     186.554 188.147 167.853  0.00  0.00     0.012 C 
HETATM    9  C   UNK     0     185.513 187.935 168.974  0.00  0.00     0.044 C 
HETATM   10  C   UNK     0     187.543 184.734 171.217  0.00  0.00     0.011 C 
HETATM   11  C   UNK     0     186.431 185.486 172.012  0.00  0.00     0.027 C 
HETATM   12  C   UNK     0     185.624 184.526 172.973  0.00  0.00    -0.023 C 
HETATM   13  C   UNK     0     185.526 186.347 171.117  0.00  0.00    -0.037 C 
HETATM   14  C   UNK     0     184.411 185.281 173.584  0.00  0.00     0.071 C 
HETATM   15  C   UNK     0     186.514 183.999 174.135  0.00  0.00     0.044 C 
HETATM   16  C   UNK     0     185.085 183.282 172.216  0.00  0.00     0.016 C 
HETATM   17  C   UNK     0     184.809 186.364 174.601  0.00  0.00     0.047 C 
HETATM   18  C   UNK     0     183.547 185.897 172.501  0.00  0.00     0.154 C 
HETATM   19  C   UNK     0     185.683 185.797 175.719  0.00  0.00     0.147 C 
HETATM   20  C   UNK     0     186.907 185.081 175.147  0.00  0.00     0.147 C 
HETATM   21  O   UNK     0     182.324 185.977 172.616  0.00  0.00    -0.293 OA
HETATM   22  C   UNK     0     184.207 186.490 171.317  0.00  0.00     0.057 C 
BRANCH   5  23
HETATM   23  C   UNK     0     188.410 186.650 166.932  0.00  0.00     0.084 C 
HETATM   24  C   UNK     0     187.341 186.341 165.871  0.00  0.00     0.049 C 
BRANCH  23  25
HETATM   25  O   UNK     0     189.282 187.647 166.383  0.00  0.00    -0.387 OA
HETATM   26  H   UNK     0     189.839 187.237 165.700  0.00  0.00     0.210 HD
ENDBRANCH  23  25
BRANCH  23  27
HETATM   27  C   UNK     0     189.256 185.385 167.243  0.00  0.00     0.152 C 
BRANCH  27  28
HETATM   28  O   UNK     0     190.580 185.775 167.622  0.00  0.00    -0.393 OA
HETATM   29  H   UNK     0     191.025 186.107 166.823  0.00  0.00     0.210 HD
ENDBRANCH  27  28
BRANCH  27  30
HETATM   30  C   UNK     0     189.361 184.390 166.071  0.00  0.00     0.037 C 
BRANCH  30  31
HETATM   31  C   UNK     0     188.885 182.980 166.467  0.00  0.00     0.040 C 
BRANCH  31  32
HETATM   32  C   UNK     0     189.944 182.130 167.200  0.00  0.00     0.051 C 
HETATM   33  C   UNK     0     189.568 182.009 168.681  0.00  0.00     0.045 C 
HETATM   34  C   UNK     0     190.105 180.737 166.588  0.00  0.00     0.045 C 
BRANCH  32  35
HETATM   35  O   UNK     0     191.199 182.808 167.120  0.00  0.00    -0.391 OA
HETATM   36  H   UNK     0     191.903 182.143 167.196  0.00  0.00     0.210 HD
ENDBRANCH  32  35
ENDBRANCH  31  32
ENDBRANCH  30  31
ENDBRANCH  27  30
ENDBRANCH  23  27
ENDBRANCH   5  23
BRANCH  19  37
HETATM   37  O   UNK     0     184.914 184.872 176.490  0.00  0.00    -0.393 OA
HETATM   38  H   UNK     0     184.835 185.234 177.389  0.00  0.00     0.210 HD
ENDBRANCH  19  37
BRANCH  20  39
HETATM   39  O   UNK     0     187.641 184.491 176.217  0.00  0.00    -0.393 OA
HETATM   40  H   UNK     0     187.177 183.677 176.476  0.00  0.00     0.210 HD
ENDBRANCH  20  39
ENDBRANCH   1   3
TORSDOF 11
ENDMDL
MODEL 2
REMARK VINA RESULT:      -7.6     12.015     14.705
REMARK  11 active torsions:
REMARK  status: ('A' for Active; 'I' for Inactive)
REMARK    1  A    between atoms: O_1  and  C_9 
REMARK    2  A    between atoms: O_2  and  C_19 
REMARK    3  A    between atoms: O_3  and  C_26 
REMARK    4  A    between atoms: O_4  and  C_27 
REMARK    5  A    between atoms: O_6  and  C_28 
REMARK    6  A    between atoms: O_7  and  C_32 
REMARK    7  A    between atoms: C_10  and  C_19 
REMARK    8  A    between atoms: C_19  and  C_27 
REMARK    9  A    between atoms: C_27  and  C_30 
REMARK   10  A    between atoms: C_30  and  C_31 
REMARK   11  A    between atoms: C_31  and  C_32 
ROOT
HETATM    1  O   UNK     0     174.332 178.062 171.250  0.00  0.00    -0.384 OA
HETATM    2  H   UNK     0     173.401 177.828 171.086  0.00  0.00     0.211 HD
ENDROOT
BRANCH   1   3
HETATM    3  C   UNK     0     175.095 177.682 170.083  0.00  0.00     0.089 C 
HETATM    4  C   UNK     0     176.609 177.804 170.395  0.00  0.00    -0.002 C 
HETATM    5  C   UNK     0     176.734 179.332 170.626  0.00  0.00     0.034 C 
HETATM    6  C   UNK     0     176.922 176.958 171.643  0.00  0.00     0.014 C 
HETATM    7  C   UNK     0     177.509 177.348 169.215  0.00  0.00     0.019 C 
HETATM    8  C   UNK     0     175.818 179.944 169.541  0.00  0.00     0.012 C 
HETATM    9  C   UNK     0     174.881 178.812 169.064  0.00  0.00     0.044 C 
HETATM   10  C   UNK     0     176.553 175.483 171.415  0.00  0.00     0.011 C 
HETATM   11  C   UNK     0     175.114 175.237 170.863  0.00  0.00     0.027 C 
HETATM   12  C   UNK     0     174.886 173.736 170.428  0.00  0.00    -0.023 C 
HETATM   13  C   UNK     0     174.699 176.251 169.786  0.00  0.00    -0.037 C 
HETATM   14  C   UNK     0     173.516 173.593 169.707  0.00  0.00     0.071 C 
HETATM   15  C   UNK     0     174.901 172.777 171.652  0.00  0.00     0.044 C 
HETATM   16  C   UNK     0     175.995 173.249 169.456  0.00  0.00     0.016 C 
HETATM   17  C   UNK     0     172.308 173.762 170.644  0.00  0.00     0.047 C 
HETATM   18  C   UNK     0     173.401 174.570 168.552  0.00  0.00     0.154 C 
HETATM   19  C   UNK     0     172.372 172.799 171.829  0.00  0.00     0.147 C 
HETATM   20  C   UNK     0     173.695 172.946 172.581  0.00  0.00     0.147 C 
HETATM   21  O   UNK     0     172.796 174.281 167.520  0.00  0.00    -0.293 OA
HETATM   22  C   UNK     0     173.961 175.930 168.712  0.00  0.00     0.057 C 
BRANCH   5  23
HETATM   23  C   UNK     0     178.143 179.911 170.604  0.00  0.00     0.084 C 
HETATM   24  C   UNK     0     178.873 179.459 169.328  0.00  0.00     0.049 C 
BRANCH  23  25
HETATM   25  O   UNK     0     178.045 181.341 170.557  0.00  0.00    -0.387 OA
HETATM   26  H   UNK     0     178.057 181.687 171.465  0.00  0.00     0.210 HD
ENDBRANCH  23  25
BRANCH  23  27
HETATM   27  C   UNK     0     178.957 179.523 171.868  0.00  0.00     0.152 C 
BRANCH  27  28
HETATM   28  O   UNK     0     179.339 180.707 172.575  0.00  0.00    -0.393 OA
HETATM   29  H   UNK     0     180.230 180.555 172.938  0.00  0.00     0.210 HD
ENDBRANCH  27  28
BRANCH  27  30
HETATM   30  C   UNK     0     180.228 178.703 171.575  0.00  0.00     0.037 C 
BRANCH  30  31
HETATM   31  C   UNK     0     180.541 177.700 172.701  0.00  0.00     0.040 C 
BRANCH  31  32
HETATM   32  C   UNK     0     180.849 176.268 172.216  0.00  0.00     0.051 C 
HETATM   33  C   UNK     0     180.016 175.264 173.019  0.00  0.00     0.045 C 
HETATM   34  C   UNK     0     180.585 176.086 170.720  0.00  0.00     0.045 C 
BRANCH  32  35
HETATM   35  O   UNK     0     182.229 175.995 172.469  0.00  0.00    -0.391 OA
HETATM   36  H   UNK     0     182.520 176.574 173.194  0.00  0.00     0.210 HD
ENDBRANCH  32  35
ENDBRANCH  31  32
ENDBRANCH  30  31
ENDBRANCH  27  30
ENDBRANCH  23  27
ENDBRANCH   5  23
BRANCH  19  37
HETATM   37  O   UNK     0     172.248 171.459 171.350  0.00  0.00    -0.393 OA
HETATM   38  H   UNK     0     172.377 171.478 170.387  0.00  0.00     0.210 HD
ENDBRANCH  19  37
BRANCH  20  39
HETATM   39  O   UNK     0     173.749 171.969 173.618  0.00  0.00    -0.393 OA
HETATM   40  H   UNK     0     172.885 171.968 174.064  0.00  0.00     0.210 HD
ENDBRANCH  20  39
ENDBRANCH   1   3
TORSDOF 11
ENDMDL
MODEL 3
REMARK VINA RESULT:      -7.6      4.414      8.093
REMARK  11 active torsions:
REMARK  status: ('A' for Active; 'I' for Inactive)
REMARK    1  A    between atoms: O_1  and  C_9 
REMARK    2  A    between atoms: O_2  and  C_19 
REMARK    3  A    between atoms: O_3  and  C_26 
REMARK    4  A    between atoms: O_4  and  C_27 
REMARK    5  A    between atoms: O_6  and  C_28 
REMARK    6  A    between atoms: O_7  and  C_32 
REMARK    7  A    between atoms: C_10  and  C_19 
REMARK    8  A    between atoms: C_19  and  C_27 
REMARK    9  A    between atoms: C_27  and  C_30 
REMARK   10  A    between atoms: C_30  and  C_31 
REMARK   11  A    between atoms: C_31  and  C_32 
ROOT
HETATM    1  O   UNK     0     180.947 184.358 173.124  0.00  0.00    -0.384 OA
HETATM    2  H   UNK     0     181.094 185.250 173.483  0.00  0.00     0.211 HD
ENDROOT
BRANCH   1   3
HETATM    3  C   UNK     0     182.139 183.969 172.404  0.00  0.00     0.089 C 
HETATM    4  C   UNK     0     183.106 183.234 173.368  0.00  0.00    -0.002 C 
HETATM    5  C   UNK     0     183.445 184.374 174.362  0.00  0.00     0.034 C 
HETATM    6  C   UNK     0     182.356 182.051 174.007  0.00  0.00     0.014 C 
HETATM    7  C   UNK     0     184.389 182.718 172.661  0.00  0.00     0.019 C 
HETATM    8  C   UNK     0     183.586 185.620 173.459  0.00  0.00     0.012 C 
HETATM    9  C   UNK     0     182.894 185.278 172.122  0.00  0.00     0.044 C 
HETATM   10  C   UNK     0     181.847 181.077 172.932  0.00  0.00     0.011 C 
HETATM   11  C   UNK     0     181.052 181.735 171.762  0.00  0.00     0.027 C 
HETATM   12  C   UNK     0     180.770 180.723 170.583  0.00  0.00    -0.023 C 
HETATM   13  C   UNK     0     181.664 183.062 171.288  0.00  0.00    -0.037 C 
HETATM   14  C   UNK     0     180.157 181.477 169.370  0.00  0.00     0.071 C 
HETATM   15  C   UNK     0     179.783 179.601 171.016  0.00  0.00     0.044 C 
HETATM   16  C   UNK     0     182.071 180.023 170.107  0.00  0.00     0.016 C 
HETATM   17  C   UNK     0     178.721 181.973 169.615  0.00  0.00     0.047 C 
HETATM   18  C   UNK     0     181.030 182.645 168.952  0.00  0.00     0.154 C 
HETATM   19  C   UNK     0     177.794 180.834 170.039  0.00  0.00     0.147 C 
HETATM   20  C   UNK     0     178.354 180.098 171.257  0.00  0.00     0.147 C 
HETATM   21  O   UNK     0     181.142 182.979 167.773  0.00  0.00    -0.293 OA
HETATM   22  C   UNK     0     181.694 183.447 170.003  0.00  0.00     0.057 C 
BRANCH   5  23
HETATM   23  C   UNK     0     184.656 184.156 175.261  0.00  0.00     0.084 C 
HETATM   24  C   UNK     0     185.018 185.469 175.975  0.00  0.00     0.049 C 
BRANCH  23  25
HETATM   25  O   UNK     0     184.304 183.202 176.273  0.00  0.00    -0.387 OA
HETATM   26  H   UNK     0     185.092 182.685 176.506  0.00  0.00     0.210 HD
ENDBRANCH  23  25
BRANCH  23  27
HETATM   27  C   UNK     0     185.877 183.602 174.478  0.00  0.00     0.152 C 
BRANCH  27  28
HETATM   28  O   UNK     0     186.322 182.384 175.083  0.00  0.00    -0.393 OA
HETATM   29  H   UNK     0     186.564 181.774 174.364  0.00  0.00     0.210 HD
ENDBRANCH  27  28
BRANCH  27  30
HETATM   30  C   UNK     0     187.072 184.571 174.402  0.00  0.00     0.037 C 
BRANCH  30  31
HETATM   31  C   UNK     0     187.341 185.044 172.961  0.00  0.00     0.040 C 
BRANCH  31  32
HETATM   32  C   UNK     0     187.432 186.576 172.797  0.00  0.00     0.051 C 
HETATM   33  C   UNK     0     188.850 186.961 172.362  0.00  0.00     0.045 C 
HETATM   34  C   UNK     0     186.413 187.120 171.794  0.00  0.00     0.045 C 
BRANCH  32  35
HETATM   35  O   UNK     0     187.184 187.179 174.068  0.00  0.00    -0.391 OA
HETATM   36  H   UNK     0     187.833 187.891 174.193  0.00  0.00     0.210 HD
ENDBRANCH  32  35
ENDBRANCH  31  32
ENDBRANCH  30  31
ENDBRANCH  27  30
ENDBRANCH  23  27
ENDBRANCH   5  23
BRANCH  19  37
HETATM   37  O   UNK     0     177.657 179.914 168.954  0.00  0.00    -0.393 OA
HETATM   38  H   UNK     0     178.293 180.173 168.267  0.00  0.00     0.210 HD
ENDBRANCH  19  37
BRANCH  20  39
HETATM   39  O   UNK     0     177.507 178.992 171.560  0.00  0.00    -0.393 OA
HETATM   40  H   UNK     0     176.998 178.785 170.757  0.00  0.00     0.210 HD
ENDBRANCH  20  39
ENDBRANCH   1   3
TORSDOF 11
ENDMDL
MODEL 4
REMARK VINA RESULT:      -7.5     12.260     14.782
REMARK  11 active torsions:
REMARK  status: ('A' for Active; 'I' for Inactive)
REMARK    1  A    between atoms: O_1  and  C_9 
REMARK    2  A    between atoms: O_2  and  C_19 
REMARK    3  A    between atoms: O_3  and  C_26 
REMARK    4  A    between atoms: O_4  and  C_27 
REMARK    5  A    between atoms: O_6  and  C_28 
REMARK    6  A    between atoms: O_7  and  C_32 
REMARK    7  A    between atoms: C_10  and  C_19 
REMARK    8  A    between atoms: C_19  and  C_27 
REMARK    9  A    between atoms: C_27  and  C_30 
REMARK   10  A    between atoms: C_30  and  C_31 
REMARK   11  A    between atoms: C_31  and  C_32 
ROOT
HETATM    1  O   UNK     0     174.945 177.878 171.733  0.00  0.00    -0.384 OA
HETATM    2  H   UNK     0     173.973 177.889 171.690  0.00  0.00     0.211 HD
ENDROOT
BRANCH   1   3
HETATM    3  C   UNK     0     175.442 177.579 170.409  0.00  0.00     0.089 C 
HETATM    4  C   UNK     0     176.959 177.266 170.487  0.00  0.00    -0.002 C 
HETATM    5  C   UNK     0     177.513 178.636 170.956  0.00  0.00     0.034 C 
HETATM    6  C   UNK     0     177.173 176.127 171.501  0.00  0.00     0.014 C 
HETATM    7  C   UNK     0     177.566 176.864 169.115  0.00  0.00     0.019 C 
HETATM    8  C   UNK     0     176.678 179.663 170.157  0.00  0.00     0.012 C 
HETATM    9  C   UNK     0     175.425 178.915 169.651  0.00  0.00     0.044 C 
HETATM   10  C   UNK     0     176.399 174.865 171.084  0.00  0.00     0.011 C 
HETATM   11  C   UNK     0     174.895 175.093 170.740  0.00  0.00     0.027 C 
HETATM   12  C   UNK     0     174.226 173.817 170.094  0.00  0.00    -0.023 C 
HETATM   13  C   UNK     0     174.648 176.380 169.937  0.00  0.00    -0.037 C 
HETATM   14  C   UNK     0     172.796 174.162 169.592  0.00  0.00     0.071 C 
HETATM   15  C   UNK     0     174.122 172.647 171.113  0.00  0.00     0.044 C 
HETATM   16  C   UNK     0     175.047 173.292 168.885  0.00  0.00     0.016 C 
HETATM   17  C   UNK     0     171.790 174.415 170.728  0.00  0.00     0.047 C 
HETATM   18  C   UNK     0     172.816 175.357 168.658  0.00  0.00     0.154 C 
HETATM   19  C   UNK     0     171.727 173.239 171.701  0.00  0.00     0.147 C 
HETATM   20  C   UNK     0     173.117 172.902 172.242  0.00  0.00     0.147 C 
HETATM   21  O   UNK     0     172.044 175.445 167.705  0.00  0.00    -0.293 OA
HETATM   22  C   UNK     0     173.734 176.478 168.958  0.00  0.00     0.057 C 
BRANCH   5  23
HETATM   23  C   UNK     0     179.014 178.851 170.806  0.00  0.00     0.084 C 
HETATM   24  C   UNK     0     179.353 179.152 169.336  0.00  0.00     0.049 C 
BRANCH  23  25
HETATM   25  O   UNK     0     179.386 180.001 171.576  0.00  0.00    -0.387 OA
HETATM   26  H   UNK     0     179.553 179.727 172.492  0.00  0.00     0.210 HD
ENDBRANCH  23  25
BRANCH  23  27
HETATM   27  C   UNK     0     179.836 177.637 171.321  0.00  0.00     0.152 C 
BRANCH  27  28
HETATM   28  O   UNK     0     180.348 177.924 172.626  0.00  0.00    -0.393 OA
HETATM   29  H   UNK     0     179.599 177.884 173.247  0.00  0.00     0.210 HD
ENDBRANCH  27  28
BRANCH  27  30
HETATM   30  C   UNK     0     181.016 177.242 170.413  0.00  0.00     0.037 C 
BRANCH  30  31
HETATM   31  C   UNK     0     181.019 175.735 170.093  0.00  0.00     0.040 C 
BRANCH  31  32
HETATM   32  C   UNK     0     181.698 174.855 171.163  0.00  0.00     0.051 C 
HETATM   33  C   UNK     0     180.628 174.119 171.976  0.00  0.00     0.045 C 
HETATM   34  C   UNK     0     182.678 173.848 170.559  0.00  0.00     0.045 C 
BRANCH  32  35
HETATM   35  O   UNK     0     182.418 175.708 172.056  0.00  0.00    -0.391 OA
HETATM   36  H   UNK     0     182.750 175.162 172.788  0.00  0.00     0.210 HD
ENDBRANCH  32  35
ENDBRANCH  31  32
ENDBRANCH  30  31
ENDBRANCH  27  30
ENDBRANCH  23  27
ENDBRANCH   5  23
BRANCH  19  37
HETATM   37  O   UNK     0     171.197 172.099 171.024  0.00  0.00    -0.393 OA
HETATM   38  H   UNK     0     171.232 172.281 170.070  0.00  0.00     0.210 HD
ENDBRANCH  19  37
BRANCH  20  39
HETATM   39  O   UNK     0     173.025 171.746 173.071  0.00  0.00    -0.393 OA
HETATM   40  H   UNK     0     172.216 171.269 172.818  0.00  0.00     0.210 HD
ENDBRANCH  20  39
ENDBRANCH   1   3
TORSDOF 11
ENDMDL
MODEL 5
REMARK VINA RESULT:      -7.4      5.710      9.136
REMARK  11 active torsions:
REMARK  status: ('A' for Active; 'I' for Inactive)
REMARK    1  A    between atoms: O_1  and  C_9 
REMARK    2  A    between atoms: O_2  and  C_19 
REMARK    3  A    between atoms: O_3  and  C_26 
REMARK    4  A    between atoms: O_4  and  C_27 
REMARK    5  A    between atoms: O_6  and  C_28 
REMARK    6  A    between atoms: O_7  and  C_32 
REMARK    7  A    between atoms: C_10  and  C_19 
REMARK    8  A    between atoms: C_19  and  C_27 
REMARK    9  A    between atoms: C_27  and  C_30 
REMARK   10  A    between atoms: C_30  and  C_31 
REMARK   11  A    between atoms: C_31  and  C_32 
ROOT
HETATM    1  O   UNK     0     183.318 180.546 172.740  0.00  0.00    -0.384 OA
HETATM    2  H   UNK     0     183.010 180.949 173.570  0.00  0.00     0.211 HD
ENDROOT
BRANCH   1   3
HETATM    3  C   UNK     0     182.920 181.413 171.654  0.00  0.00     0.089 C 
HETATM    4  C   UNK     0     181.406 181.724 171.772  0.00  0.00    -0.002 C 
HETATM    5  C   UNK     0     180.803 180.312 171.561  0.00  0.00     0.034 C 
HETATM    6  C   UNK     0     181.135 182.316 173.167  0.00  0.00     0.014 C 
HETATM    7  C   UNK     0     180.903 182.709 170.681  0.00  0.00     0.019 C 
HETATM    8  C   UNK     0     181.680 179.701 170.444  0.00  0.00     0.012 C 
HETATM    9  C   UNK     0     182.975 180.541 170.390  0.00  0.00     0.044 C 
HETATM   10  C   UNK     0     181.951 183.599 173.390  0.00  0.00     0.011 C 
HETATM   11  C   UNK     0     183.474 183.481 173.070  0.00  0.00     0.027 C 
HETATM   12  C   UNK     0     184.203 184.881 173.087  0.00  0.00    -0.023 C 
HETATM   13  C   UNK     0     183.761 182.663 171.801  0.00  0.00    -0.037 C 
HETATM   14  C   UNK     0     185.661 184.730 172.570  0.00  0.00     0.071 C 
HETATM   15  C   UNK     0     184.248 185.485 174.520  0.00  0.00     0.044 C 
HETATM   16  C   UNK     0     183.476 185.915 172.184  0.00  0.00     0.016 C 
HETATM   17  C   UNK     0     186.580 183.964 173.537  0.00  0.00     0.047 C 
HETATM   18  C   UNK     0     185.692 184.062 171.208  0.00  0.00     0.154 C 
HETATM   19  C   UNK     0     186.588 184.595 174.929  0.00  0.00     0.147 C 
HETATM   20  C   UNK     0     185.167 184.721 175.480  0.00  0.00     0.147 C 
HETATM   21  O   UNK     0     186.529 184.366 170.359  0.00  0.00    -0.293 OA
HETATM   22  C   UNK     0     184.741 182.962 170.934  0.00  0.00     0.057 C 
BRANCH   5  23
HETATM   23  C   UNK     0     179.314 180.248 171.244  0.00  0.00     0.084 C 
HETATM   24  C   UNK     0     178.575 179.492 172.362  0.00  0.00     0.049 C 
BRANCH  23  25
HETATM   25  O   UNK     0     178.798 181.585 171.219  0.00  0.00    -0.387 OA
HETATM   26  H   UNK     0     178.770 181.894 170.299  0.00  0.00     0.210 HD
ENDBRANCH  23  25
BRANCH  23  27
HETATM   27  C   UNK     0     179.035 179.595 169.863  0.00  0.00     0.152 C 
BRANCH  27  28
HETATM   28  O   UNK     0     178.552 180.588 168.952  0.00  0.00    -0.393 OA
HETATM   29  H   UNK     0     179.319 181.109 168.657  0.00  0.00     0.210 HD
ENDBRANCH  27  28
BRANCH  27  30
HETATM   30  C   UNK     0     178.018 178.438 169.904  0.00  0.00     0.037 C 
BRANCH  30  31
HETATM   31  C   UNK     0     176.954 178.566 168.797  0.00  0.00     0.040 C 
BRANCH  31  32
HETATM   32  C   UNK     0     175.555 178.980 169.300  0.00  0.00     0.051 C 
HETATM   33  C   UNK     0     174.495 178.546 168.280  0.00  0.00     0.045 C 
HETATM   34  C   UNK     0     175.227 178.392 170.674  0.00  0.00     0.045 C 
BRANCH  32  35
HETATM   35  O   UNK     0     175.514 180.405 169.395  0.00  0.00    -0.391 OA
HETATM   36  H   UNK     0     176.103 180.767 168.712  0.00  0.00     0.210 HD
ENDBRANCH  32  35
ENDBRANCH  31  32
ENDBRANCH  30  31
ENDBRANCH  27  30
ENDBRANCH  23  27
ENDBRANCH   5  23
BRANCH  19  37
HETATM   37  O   UNK     0     187.180 185.893 174.851  0.00  0.00    -0.393 OA
HETATM   38  H   UNK     0     187.924 185.914 175.475  0.00  0.00     0.210 HD
ENDBRANCH  19  37
BRANCH  20  39
HETATM   39  O   UNK     0     185.214 185.396 176.735  0.00  0.00    -0.393 OA
HETATM   40  H   UNK     0     184.928 186.313 176.585  0.00  0.00     0.210 HD
ENDBRANCH  20  39
ENDBRANCH   1   3
TORSDOF 11
ENDMDL
MODEL 6
REMARK VINA RESULT:      -7.4      5.435      8.398
REMARK  11 active torsions:
REMARK  status: ('A' for Active; 'I' for Inactive)
REMARK    1  A    between atoms: O_1  and  C_9 
REMARK    2  A    between atoms: O_2  and  C_19 
REMARK    3  A    between atoms: O_3  and  C_26 
REMARK    4  A    between atoms: O_4  and  C_27 
REMARK    5  A    between atoms: O_6  and  C_28 
REMARK    6  A    between atoms: O_7  and  C_32 
REMARK    7  A    between atoms: C_10  and  C_19 
REMARK    8  A    between atoms: C_19  and  C_27 
REMARK    9  A    between atoms: C_27  and  C_30 
REMARK   10  A    between atoms: C_30  and  C_31 
REMARK   11  A    between atoms: C_31  and  C_32 
ROOT
HETATM    1  O   UNK     0     184.174 180.589 172.740  0.00  0.00    -0.384 OA
HETATM    2  H   UNK     0     184.122 181.059 173.589  0.00  0.00     0.211 HD
ENDROOT
BRANCH   1   3
HETATM    3  C   UNK     0     183.459 181.372 171.756  0.00  0.00     0.089 C 
HETATM    4  C   UNK     0     181.937 181.295 172.044  0.00  0.00    -0.002 C 
HETATM    5  C   UNK     0     181.674 179.787 171.802  0.00  0.00     0.034 C 
HETATM    6  C   UNK     0     181.689 181.746 173.495  0.00  0.00     0.014 C 
HETATM    7  C   UNK     0     181.094 182.166 171.074  0.00  0.00     0.019 C 
HETATM    8  C   UNK     0     182.541 179.455 170.566  0.00  0.00     0.012 C 
HETATM    9  C   UNK     0     183.581 180.590 170.439  0.00  0.00     0.044 C 
HETATM   10  C   UNK     0     182.192 183.182 173.719  0.00  0.00     0.011 C 
HETATM   11  C   UNK     0     183.652 183.455 173.243  0.00  0.00     0.027 C 
HETATM   12  C   UNK     0     184.019 184.991 173.280  0.00  0.00    -0.023 C 
HETATM   13  C   UNK     0     183.985 182.784 171.901  0.00  0.00    -0.037 C 
HETATM   14  C   UNK     0     185.403 185.224 172.612  0.00  0.00     0.071 C 
HETATM   15  C   UNK     0     184.077 185.531 174.737  0.00  0.00     0.044 C 
HETATM   16  C   UNK     0     182.968 185.847 172.521  0.00  0.00     0.016 C 
HETATM   17  C   UNK     0     186.582 184.672 173.432  0.00  0.00     0.047 C 
HETATM   18  C   UNK     0     185.442 184.639 171.213  0.00  0.00     0.154 C 
HETATM   19  C   UNK     0     186.593 185.231 174.854  0.00  0.00     0.147 C 
HETATM   20  C   UNK     0     185.254 184.981 175.550  0.00  0.00     0.147 C 
HETATM   21  O   UNK     0     186.081 185.172 170.307  0.00  0.00    -0.293 OA
HETATM   22  C   UNK     0     184.760 183.350 170.963  0.00  0.00     0.057 C 
BRANCH   5  23
HETATM   23  C   UNK     0     180.218 179.369 171.631  0.00  0.00     0.084 C 
HETATM   24  C   UNK     0     179.298 180.394 172.314  0.00  0.00     0.049 C 
BRANCH  23  25
HETATM   25  O   UNK     0     179.906 179.379 170.231  0.00  0.00    -0.387 OA
HETATM   26  H   UNK     0     180.732 179.452 169.725  0.00  0.00     0.210 HD
ENDBRANCH  23  25
BRANCH  23  27
HETATM   27  C   UNK     0     179.949 177.940 172.177  0.00  0.00     0.152 C 
BRANCH  27  28
HETATM   28  O   UNK     0     180.982 177.577 173.098  0.00  0.00    -0.393 OA
HETATM   29  H   UNK     0     181.692 177.150 172.587  0.00  0.00     0.210 HD
ENDBRANCH  27  28
BRANCH  27  30
HETATM   30  C   UNK     0     179.867 176.852 171.088  0.00  0.00     0.037 C 
BRANCH  30  31
HETATM   31  C   UNK     0     180.195 175.454 171.644  0.00  0.00     0.040 C 
BRANCH  31  32
HETATM   32  C   UNK     0     181.490 174.831 171.082  0.00  0.00     0.051 C 
HETATM   33  C   UNK     0     181.418 173.304 171.202  0.00  0.00     0.045 C 
HETATM   34  C   UNK     0     181.750 175.228 169.628  0.00  0.00     0.045 C 
BRANCH  32  35
HETATM   35  O   UNK     0     182.588 175.281 171.878  0.00  0.00    -0.391 OA
HETATM   36  H   UNK     0     182.838 176.167 171.567  0.00  0.00     0.210 HD
ENDBRANCH  32  35
ENDBRANCH  31  32
ENDBRANCH  30  31
ENDBRANCH  27  30
ENDBRANCH  23  27
ENDBRANCH   5  23
BRANCH  19  37
HETATM   37  O   UNK     0     186.841 186.637 174.802  0.00  0.00    -0.393 OA
HETATM   38  H   UNK     0     187.023 186.936 175.709  0.00  0.00     0.210 HD
ENDBRANCH  19  37
BRANCH  20  39
HETATM   39  O   UNK     0     185.278 185.597 176.835  0.00  0.00    -0.393 OA
HETATM   40  H   UNK     0     185.792 186.419 176.756  0.00  0.00     0.210 HD
ENDBRANCH  20  39
ENDBRANCH   1   3
TORSDOF 11
ENDMDL
MODEL 7
REMARK VINA RESULT:      -7.4     11.294     14.261
REMARK  11 active torsions:
REMARK  status: ('A' for Active; 'I' for Inactive)
REMARK    1  A    between atoms: O_1  and  C_9 
REMARK    2  A    between atoms: O_2  and  C_19 
REMARK    3  A    between atoms: O_3  and  C_26 
REMARK    4  A    between atoms: O_4  and  C_27 
REMARK    5  A    between atoms: O_6  and  C_28 
REMARK    6  A    between atoms: O_7  and  C_32 
REMARK    7  A    between atoms: C_10  and  C_19 
REMARK    8  A    between atoms: C_19  and  C_27 
REMARK    9  A    between atoms: C_27  and  C_30 
REMARK   10  A    between atoms: C_30  and  C_31 
REMARK   11  A    between atoms: C_31  and  C_32 
ROOT
HETATM    1  O   UNK     0     177.871 177.764 168.303  0.00  0.00    -0.384 OA
HETATM    2  H   UNK     0     178.766 178.145 168.338  0.00  0.00     0.211 HD
ENDROOT
BRANCH   1   3
HETATM    3  C   UNK     0     177.262 177.947 169.601  0.00  0.00     0.089 C 
HETATM    4  C   UNK     0     176.359 176.728 169.922  0.00  0.00    -0.002 C 
HETATM    5  C   UNK     0     175.282 176.865 168.816  0.00  0.00     0.034 C 
HETATM    6  C   UNK     0     177.207 175.448 169.812  0.00  0.00     0.014 C 
HETATM    7  C   UNK     0     175.715 176.808 171.333  0.00  0.00     0.019 C 
HETATM    8  C   UNK     0     175.027 178.388 168.738  0.00  0.00     0.012 C 
HETATM    9  C   UNK     0     176.233 179.074 169.417  0.00  0.00     0.044 C 
HETATM   10  C   UNK     0     178.397 175.489 170.785  0.00  0.00     0.011 C 
HETATM   11  C   UNK     0     179.256 176.789 170.727  0.00  0.00     0.027 C 
HETATM   12  C   UNK     0     180.304 176.870 171.905  0.00  0.00    -0.023 C 
HETATM   13  C   UNK     0     178.412 178.065 170.578  0.00  0.00    -0.037 C 
HETATM   14  C   UNK     0     180.989 178.265 171.915  0.00  0.00     0.071 C 
HETATM   15  C   UNK     0     181.406 175.781 171.766  0.00  0.00     0.044 C 
HETATM   16  C   UNK     0     179.628 176.656 173.287  0.00  0.00     0.016 C 
HETATM   17  C   UNK     0     181.940 178.492 170.726  0.00  0.00     0.047 C 
HETATM   18  C   UNK     0     179.961 179.380 171.959  0.00  0.00     0.154 C 
HETATM   19  C   UNK     0     183.000 177.396 170.633  0.00  0.00     0.147 C 
HETATM   20  C   UNK     0     182.353 176.011 170.583  0.00  0.00     0.147 C 
HETATM   21  O   UNK     0     180.171 180.429 172.566  0.00  0.00    -0.293 OA
HETATM   22  C   UNK     0     178.712 179.226 171.181  0.00  0.00     0.057 C 
BRANCH   5  23
HETATM   23  C   UNK     0     174.003 176.061 169.007  0.00  0.00     0.084 C 
HETATM   24  C   UNK     0     173.222 176.602 170.216  0.00  0.00     0.049 C 
BRANCH  23  25
HETATM   25  O   UNK     0     173.177 176.241 167.849  0.00  0.00    -0.387 OA
HETATM   26  H   UNK     0     172.251 176.078 168.094  0.00  0.00     0.210 HD
ENDBRANCH  23  25
BRANCH  23  27
HETATM   27  C   UNK     0     174.283 174.542 169.170  0.00  0.00     0.152 C 
BRANCH  27  28
HETATM   28  O   UNK     0     173.652 173.821 168.106  0.00  0.00    -0.393 OA
HETATM   29  H   UNK     0     174.217 173.911 167.319  0.00  0.00     0.210 HD
ENDBRANCH  27  28
BRANCH  27  30
HETATM   30  C   UNK     0     173.801 173.950 170.508  0.00  0.00     0.037 C 
BRANCH  30  31
HETATM   31  C   UNK     0     174.098 172.442 170.613  0.00  0.00     0.040 C 
BRANCH  31  32
HETATM   32  C   UNK     0     175.391 172.097 171.381  0.00  0.00     0.051 C 
HETATM   33  C   UNK     0     175.608 173.117 172.504  0.00  0.00     0.045 C 
HETATM   34  C   UNK     0     175.369 170.681 171.961  0.00  0.00     0.045 C 
BRANCH  32  35
HETATM   35  O   UNK     0     176.493 172.200 170.477  0.00  0.00    -0.391 OA
HETATM   36  H   UNK     0     177.207 172.680 170.929  0.00  0.00     0.210 HD
ENDBRANCH  32  35
ENDBRANCH  31  32
ENDBRANCH  30  31
ENDBRANCH  27  30
ENDBRANCH  23  27
ENDBRANCH   5  23
BRANCH  19  37
HETATM   37  O   UNK     0     183.856 177.474 171.775  0.00  0.00    -0.393 OA
HETATM   38  H   UNK     0     183.391 177.990 172.455  0.00  0.00     0.210 HD
ENDBRANCH  19  37
BRANCH  20  39
HETATM   39  O   UNK     0     183.377 175.019 170.590  0.00  0.00    -0.393 OA
HETATM   40  H   UNK     0     183.654 174.892 171.514  0.00  0.00     0.210 HD
ENDBRANCH  20  39
ENDBRANCH   1   3
TORSDOF 11
ENDMDL
MODEL 8
REMARK VINA RESULT:      -7.3      1.965      7.706
REMARK  11 active torsions:
REMARK  status: ('A' for Active; 'I' for Inactive)
REMARK    1  A    between atoms: O_1  and  C_9 
REMARK    2  A    between atoms: O_2  and  C_19 
REMARK    3  A    between atoms: O_3  and  C_26 
REMARK    4  A    between atoms: O_4  and  C_27 
REMARK    5  A    between atoms: O_6  and  C_28 
REMARK    6  A    between atoms: O_7  and  C_32 
REMARK    7  A    between atoms: C_10  and  C_19 
REMARK    8  A    between atoms: C_19  and  C_27 
REMARK    9  A    between atoms: C_27  and  C_30 
REMARK   10  A    between atoms: C_30  and  C_31 
REMARK   11  A    between atoms: C_31  and  C_32 
ROOT
HETATM    1  O   UNK     0     185.075 185.458 170.053  0.00  0.00    -0.384 OA
HETATM    2  H   UNK     0     184.885 184.992 170.886  0.00  0.00     0.211 HD
ENDROOT
BRANCH   1   3
HETATM    3  C   UNK     0     186.148 186.394 170.305  0.00  0.00     0.089 C 
HETATM    4  C   UNK     0     187.026 185.869 171.470  0.00  0.00    -0.002 C 
HETATM    5  C   UNK     0     186.011 185.912 172.640  0.00  0.00     0.034 C 
HETATM    6  C   UNK     0     187.511 184.451 171.117  0.00  0.00     0.014 C 
HETATM    7  C   UNK     0     188.248 186.780 171.764  0.00  0.00     0.019 C 
HETATM    8  C   UNK     0     185.232 187.226 172.403  0.00  0.00     0.012 C 
HETATM    9  C   UNK     0     185.480 187.627 170.932  0.00  0.00     0.044 C 
HETATM   10  C   UNK     0     188.322 184.454 169.811  0.00  0.00     0.011 C 
HETATM   11  C   UNK     0     187.639 185.175 168.608  0.00  0.00     0.027 C 
HETATM   12  C   UNK     0     188.615 185.352 167.380  0.00  0.00    -0.023 C 
HETATM   13  C   UNK     0     186.928 186.477 169.010  0.00  0.00    -0.037 C 
HETATM   14  C   UNK     0     187.951 186.246 166.295  0.00  0.00     0.071 C 
HETATM   15  C   UNK     0     188.979 183.984 166.736  0.00  0.00     0.044 C 
HETATM   16  C   UNK     0     189.951 186.022 167.804  0.00  0.00     0.016 C 
HETATM   17  C   UNK     0     186.774 185.566 165.575  0.00  0.00     0.047 C 
HETATM   18  C   UNK     0     187.490 187.567 166.881  0.00  0.00     0.154 C 
HETATM   19  C   UNK     0     187.183 184.227 164.963  0.00  0.00     0.147 C 
HETATM   20  C   UNK     0     187.805 183.311 166.017  0.00  0.00     0.147 C 
HETATM   21  O   UNK     0     187.527 188.610 166.230  0.00  0.00    -0.293 OA
HETATM   22  C   UNK     0     186.906 187.576 168.241  0.00  0.00     0.057 C 
BRANCH   5  23
HETATM   23  C   UNK     0     186.588 185.813 174.047  0.00  0.00     0.084 C 
HETATM   24  C   UNK     0     187.508 184.585 174.148  0.00  0.00     0.049 C 
BRANCH  23  25
HETATM   25  O   UNK     0     187.395 186.974 174.288  0.00  0.00    -0.387 OA
HETATM   26  H   UNK     0     186.835 187.673 174.664  0.00  0.00     0.210 HD
ENDBRANCH  23  25
BRANCH  23  27
HETATM   27  C   UNK     0     185.480 185.759 175.134  0.00  0.00     0.152 C 
BRANCH  27  28
HETATM   28  O   UNK     0     185.945 186.402 176.325  0.00  0.00    -0.393 OA
HETATM   29  H   UNK     0     186.721 186.938 176.082  0.00  0.00     0.210 HD
ENDBRANCH  27  28
BRANCH  27  30
HETATM   30  C   UNK     0     185.022 184.334 175.500  0.00  0.00     0.037 C 
BRANCH  30  31
HETATM   31  C   UNK     0     183.591 184.044 175.008  0.00  0.00     0.040 C 
BRANCH  31  32
HETATM   32  C   UNK     0     183.414 182.670 174.330  0.00  0.00     0.051 C 
HETATM   33  C   UNK     0     182.031 182.597 173.673  0.00  0.00     0.045 C 
HETATM   34  C   UNK     0     184.500 182.384 173.290  0.00  0.00     0.045 C 
BRANCH  32  35
HETATM   35  O   UNK     0     183.475 181.659 175.338  0.00  0.00    -0.391 OA
HETATM   36  H   UNK     0     184.372 181.662 175.711  0.00  0.00     0.210 HD
ENDBRANCH  32  35
ENDBRANCH  31  32
ENDBRANCH  30  31
ENDBRANCH  27  30
ENDBRANCH  23  27
ENDBRANCH   5  23
BRANCH  19  37
HETATM   37  O   UNK     0     188.132 184.459 163.921  0.00  0.00    -0.393 OA
HETATM   38  H   UNK     0     188.742 183.702 163.906  0.00  0.00     0.210 HD
ENDBRANCH  19  37
BRANCH  20  39
HETATM   39  O   UNK     0     188.253 182.114 165.386  0.00  0.00    -0.393 OA
HETATM   40  H   UNK     0     188.709 182.369 164.565  0.00  0.00     0.210 HD
ENDBRANCH  20  39
ENDBRANCH   1   3
TORSDOF 11
ENDMDL
MODEL 9
REMARK VINA RESULT:      -7.3      8.092     11.501
REMARK  11 active torsions:
REMARK  status: ('A' for Active; 'I' for Inactive)
REMARK    1  A    between atoms: O_1  and  C_9 
REMARK    2  A    between atoms: O_2  and  C_19 
REMARK    3  A    between atoms: O_3  and  C_26 
REMARK    4  A    between atoms: O_4  and  C_27 
REMARK    5  A    between atoms: O_6  and  C_28 
REMARK    6  A    between atoms: O_7  and  C_32 
REMARK    7  A    between atoms: C_10  and  C_19 
REMARK    8  A    between atoms: C_19  and  C_27 
REMARK    9  A    between atoms: C_27  and  C_30 
REMARK   10  A    between atoms: C_30  and  C_31 
REMARK   11  A    between atoms: C_31  and  C_32 
ROOT
HETATM    1  O   UNK     0     181.239 177.871 173.107  0.00  0.00    -0.384 OA
HETATM    2  H   UNK     0     180.327 178.038 173.403  0.00  0.00     0.211 HD
ENDROOT
BRANCH   1   3
HETATM    3  C   UNK     0     181.275 178.037 171.671  0.00  0.00     0.089 C 
HETATM    4  C   UNK     0     179.893 177.662 171.075  0.00  0.00    -0.002 C 
HETATM    5  C   UNK     0     179.827 176.153 171.425  0.00  0.00     0.034 C 
HETATM    6  C   UNK     0     178.813 178.511 171.769  0.00  0.00     0.014 C 
HETATM    7  C   UNK     0     179.818 177.877 169.539  0.00  0.00     0.019 C 
HETATM    8  C   UNK     0     181.268 175.654 171.169  0.00  0.00     0.012 C 
HETATM    9  C   UNK     0     182.172 176.905 171.148  0.00  0.00     0.044 C 
HETATM   10  C   UNK     0     179.078 180.012 171.570  0.00  0.00     0.011 C 
HETATM   11  C   UNK     0     180.527 180.480 171.912  0.00  0.00     0.027 C 
HETATM   12  C   UNK     0     180.799 181.969 171.461  0.00  0.00    -0.023 C 
HETATM   13  C   UNK     0     181.607 179.496 171.438  0.00  0.00    -0.037 C 
HETATM   14  C   UNK     0     182.304 182.314 171.642  0.00  0.00     0.071 C 
HETATM   15  C   UNK     0     179.958 182.981 172.289  0.00  0.00     0.044 C 
HETATM   16  C   UNK     0     180.432 182.190 169.968  0.00  0.00     0.016 C 
HETATM   17  C   UNK     0     182.737 182.422 173.114  0.00  0.00     0.047 C 
HETATM   18  C   UNK     0     183.187 181.307 170.929  0.00  0.00     0.154 C 
HETATM   19  C   UNK     0     181.880 183.426 173.883  0.00  0.00     0.147 C 
HETATM   20  C   UNK     0     180.394 183.088 173.755  0.00  0.00     0.147 C 
HETATM   21  O   UNK     0     184.247 181.638 170.400  0.00  0.00    -0.293 OA
HETATM   22  C   UNK     0     182.795 179.880 170.946  0.00  0.00     0.057 C 
BRANCH   5  23
HETATM   23  C   UNK     0     178.778 175.329 170.689  0.00  0.00     0.084 C 
HETATM   24  C   UNK     0     179.248 175.048 169.252  0.00  0.00     0.049 C 
BRANCH  23  25
HETATM   25  O   UNK     0     178.649 174.064 171.352  0.00  0.00    -0.387 OA
HETATM   26  H   UNK     0     177.790 174.033 171.806  0.00  0.00     0.210 HD
ENDBRANCH  23  25
BRANCH  23  27
HETATM   27  C   UNK     0     177.386 176.018 170.687  0.00  0.00     0.152 C 
BRANCH  27  28
HETATM   28  O   UNK     0     176.582 175.480 171.742  0.00  0.00    -0.393 OA
HETATM   29  H   UNK     0     176.908 174.581 171.926  0.00  0.00     0.210 HD
ENDBRANCH  27  28
BRANCH  27  30
HETATM   30  C   UNK     0     176.610 175.872 169.364  0.00  0.00     0.037 C 
BRANCH  30  31
HETATM   31  C   UNK     0     175.327 176.723 169.349  0.00  0.00     0.040 C 
BRANCH  31  32
HETATM   32  C   UNK     0     175.471 178.086 168.641  0.00  0.00     0.051 C 
HETATM   33  C   UNK     0     174.264 178.318 167.726  0.00  0.00     0.045 C 
HETATM   34  C   UNK     0     175.609 179.249 169.627  0.00  0.00     0.045 C 
BRANCH  32  35
HETATM   35  O   UNK     0     176.641 178.046 167.822  0.00  0.00    -0.391 OA
HETATM   36  H   UNK     0     176.368 178.204 166.902  0.00  0.00     0.210 HD
ENDBRANCH  32  35
ENDBRANCH  31  32
ENDBRANCH  30  31
ENDBRANCH  27  30
ENDBRANCH  23  27
ENDBRANCH   5  23
BRANCH  19  37
HETATM   37  O   UNK     0     182.112 184.736 173.362  0.00  0.00    -0.393 OA
HETATM   38  H   UNK     0     181.890 184.719 172.416  0.00  0.00     0.210 HD
ENDBRANCH  19  37
BRANCH  20  39
HETATM   39  O   UNK     0     179.630 184.099 174.408  0.00  0.00    -0.393 OA
HETATM   40  H   UNK     0     180.106 184.346 175.220  0.00  0.00     0.210 HD
ENDBRANCH  20  39
ENDBRANCH   1   3
TORSDOF 11
ENDMDL
MODEL 10
REMARK VINA RESULT:      -7.3     15.077     17.819
REMARK  11 active torsions:
REMARK  status: ('A' for Active; 'I' for Inactive)
REMARK    1  A    between atoms: O_1  and  C_9 
REMARK    2  A    between atoms: O_2  and  C_19 
REMARK    3  A    between atoms: O_3  and  C_26 
REMARK    4  A    between atoms: O_4  and  C_27 
REMARK    5  A    between atoms: O_6  and  C_28 
REMARK    6  A    between atoms: O_7  and  C_32 
REMARK    7  A    between atoms: C_10  and  C_19 
REMARK    8  A    between atoms: C_19  and  C_27 
REMARK    9  A    between atoms: C_27  and  C_30 
REMARK   10  A    between atoms: C_30  and  C_31 
REMARK   11  A    between atoms: C_31  and  C_32 
ROOT
HETATM    1  O   UNK     0     174.772 171.151 170.746  0.00  0.00    -0.384 OA
HETATM    2  H   UNK     0     174.053 171.064 170.095  0.00  0.00     0.211 HD
ENDROOT
BRANCH   1   3
HETATM    3  C   UNK     0     174.672 172.466 171.340  0.00  0.00     0.089 C 
HETATM    4  C   UNK     0     175.526 173.468 170.519  0.00  0.00    -0.002 C 
HETATM    5  C   UNK     0     176.947 172.895 170.753  0.00  0.00     0.034 C 
HETATM    6  C   UNK     0     175.066 173.416 169.051  0.00  0.00     0.014 C 
HETATM    7  C   UNK     0     175.423 174.924 171.048  0.00  0.00     0.019 C 
HETATM    8  C   UNK     0     176.936 172.476 172.241  0.00  0.00     0.012 C 
HETATM    9  C   UNK     0     175.452 172.380 172.661  0.00  0.00     0.044 C 
HETATM   10  C   UNK     0     173.576 173.773 168.927  0.00  0.00     0.011 C 
HETATM   11  C   UNK     0     172.625 172.994 169.886  0.00  0.00     0.027 C 
HETATM   12  C   UNK     0     171.156 173.574 169.879  0.00  0.00    -0.023 C 
HETATM   13  C   UNK     0     173.201 172.821 171.300  0.00  0.00    -0.037 C 
HETATM   14  C   UNK     0     170.309 172.894 170.991  0.00  0.00     0.071 C 
HETATM   15  C   UNK     0     170.454 173.339 168.511  0.00  0.00     0.044 C 
HETATM   16  C   UNK     0     171.146 175.106 170.136  0.00  0.00     0.016 C 
HETATM   17  C   UNK     0     169.988 171.417 170.702  0.00  0.00     0.047 C 
HETATM   18  C   UNK     0     170.985 173.009 172.343  0.00  0.00     0.154 C 
HETATM   19  C   UNK     0     169.303 171.241 169.348  0.00  0.00     0.147 C 
HETATM   20  C   UNK     0     170.134 171.867 168.229  0.00  0.00     0.147 C 
HETATM   21  O   UNK     0     170.337 173.140 173.381  0.00  0.00    -0.293 OA
HETATM   22  C   UNK     0     172.457 172.878 172.415  0.00  0.00     0.057 C 
BRANCH   5  23
HETATM   23  C   UNK     0     178.116 173.810 170.406  0.00  0.00     0.084 C 
HETATM   24  C   UNK     0     179.045 173.111 169.400  0.00  0.00     0.049 C 
BRANCH  23  25
HETATM   25  O   UNK     0     177.597 174.984 169.766  0.00  0.00    -0.387 OA
HETATM   26  H   UNK     0     177.013 174.714 169.039  0.00  0.00     0.210 HD
ENDBRANCH  23  25
BRANCH  23  27
HETATM   27  C   UNK     0     178.907 174.255 171.666  0.00  0.00     0.152 C 
BRANCH  27  28
HETATM   28  O   UNK     0     178.987 175.684 171.703  0.00  0.00    -0.393 OA
HETATM   29  H   UNK     0     179.262 175.982 170.818  0.00  0.00     0.210 HD
ENDBRANCH  27  28
BRANCH  27  30
HETATM   30  C   UNK     0     180.337 173.687 171.749  0.00  0.00     0.037 C 
BRANCH  30  31
HETATM   31  C   UNK     0     181.404 174.791 171.626  0.00  0.00     0.040 C 
BRANCH  31  32
HETATM   32  C   UNK     0     182.392 174.599 170.457  0.00  0.00     0.051 C 
HETATM   33  C   UNK     0     182.641 173.103 170.237  0.00  0.00     0.045 C 
HETATM   34  C   UNK     0     181.898 175.242 169.159  0.00  0.00     0.045 C 
BRANCH  32  35
HETATM   35  O   UNK     0     183.637 175.202 170.816  0.00  0.00    -0.391 OA
HETATM   36  H   UNK     0     183.564 176.158 170.654  0.00  0.00     0.210 HD
ENDBRANCH  32  35
ENDBRANCH  31  32
ENDBRANCH  30  31
ENDBRANCH  27  30
ENDBRANCH  23  27
ENDBRANCH   5  23
BRANCH  19  37
HETATM   37  O   UNK     0     168.019 171.867 169.389  0.00  0.00    -0.393 OA
HETATM   38  H   UNK     0     167.818 172.181 168.491  0.00  0.00     0.210 HD
ENDBRANCH  19  37
BRANCH  20  39
HETATM   39  O   UNK     0     169.416 171.761 167.002  0.00  0.00    -0.393 OA
HETATM   40  H   UNK     0     170.055 171.876 166.278  0.00  0.00     0.210 HD
ENDBRANCH  20  39
ENDBRANCH   1   3
TORSDOF 11
ENDMDL
