REMARK VINA RESULT:      -7.3      1.965      7.706
REMARK  11 active torsions:
REMARK  status: ('A' for Active; 'I' for Inactive)
REMARK    1  A    between atoms: O_1  and  C_9 
REMARK    2  A    between atoms: O_2  and  C_19 
REMARK    3  A    between atoms: O_3  and  C_26 
REMARK    4  A    between atoms: O_4  and  C_27 
REMARK    5  A    between atoms: O_6  and  C_28 
REMARK    6  A    between atoms: O_7  and  C_32 
REMARK    7  A    between atoms: C_10  and  C_19 
REMARK    8  A    between atoms: C_19  and  C_27 
REMARK    9  A    between atoms: C_27  and  C_30 
REMARK   10  A    between atoms: C_30  and  C_31 
REMARK   11  A    between atoms: C_31  and  C_32 
ROOT
HETATM    1  O   UNK     0     185.075 185.458 170.053  0.00  0.00    -0.384 OA
HETATM    2  H   UNK     0     184.885 184.992 170.886  0.00  0.00     0.211 HD
ENDROOT
BRANCH   1   3
HETATM    3  C   UNK     0     186.148 186.394 170.305  0.00  0.00     0.089 C 
HETATM    4  C   UNK     0     187.026 185.869 171.470  0.00  0.00    -0.002 C 
HETATM    5  C   UNK     0     186.011 185.912 172.640  0.00  0.00     0.034 C 
HETATM    6  C   UNK     0     187.511 184.451 171.117  0.00  0.00     0.014 C 
HETATM    7  C   UNK     0     188.248 186.780 171.764  0.00  0.00     0.019 C 
HETATM    8  C   UNK     0     185.232 187.226 172.403  0.00  0.00     0.012 C 
HETATM    9  C   UNK     0     185.480 187.627 170.932  0.00  0.00     0.044 C 
HETATM   10  C   UNK     0     188.322 184.454 169.811  0.00  0.00     0.011 C 
HETATM   11  C   UNK     0     187.639 185.175 168.608  0.00  0.00     0.027 C 
HETATM   12  C   UNK     0     188.615 185.352 167.380  0.00  0.00    -0.023 C 
HETATM   13  C   UNK     0     186.928 186.477 169.010  0.00  0.00    -0.037 C 
HETATM   14  C   UNK     0     187.951 186.246 166.295  0.00  0.00     0.071 C 
HETATM   15  C   UNK     0     188.979 183.984 166.736  0.00  0.00     0.044 C 
HETATM   16  C   UNK     0     189.951 186.022 167.804  0.00  0.00     0.016 C 
HETATM   17  C   UNK     0     186.774 185.566 165.575  0.00  0.00     0.047 C 
HETATM   18  C   UNK     0     187.490 187.567 166.881  0.00  0.00     0.154 C 
HETATM   19  C   UNK     0     187.183 184.227 164.963  0.00  0.00     0.147 C 
HETATM   20  C   UNK     0     187.805 183.311 166.017  0.00  0.00     0.147 C 
HETATM   21  O   UNK     0     187.527 188.610 166.230  0.00  0.00    -0.293 OA
HETATM   22  C   UNK     0     186.906 187.576 168.241  0.00  0.00     0.057 C 
BRANCH   5  23
HETATM   23  C   UNK     0     186.588 185.813 174.047  0.00  0.00     0.084 C 
HETATM   24  C   UNK     0     187.508 184.585 174.148  0.00  0.00     0.049 C 
BRANCH  23  25
HETATM   25  O   UNK     0     187.395 186.974 174.288  0.00  0.00    -0.387 OA
HETATM   26  H   UNK     0     186.835 187.673 174.664  0.00  0.00     0.210 HD
ENDBRANCH  23  25
BRANCH  23  27
HETATM   27  C   UNK     0     185.480 185.759 175.134  0.00  0.00     0.152 C 
BRANCH  27  28
HETATM   28  O   UNK     0     185.945 186.402 176.325  0.00  0.00    -0.393 OA
HETATM   29  H   UNK     0     186.721 186.938 176.082  0.00  0.00     0.210 HD
ENDBRANCH  27  28
BRANCH  27  30
HETATM   30  C   UNK     0     185.022 184.334 175.500  0.00  0.00     0.037 C 
BRANCH  30  31
HETATM   31  C   UNK     0     183.591 184.044 175.008  0.00  0.00     0.040 C 
BRANCH  31  32
HETATM   32  C   UNK     0     183.414 182.670 174.330  0.00  0.00     0.051 C 
HETATM   33  C   UNK     0     182.031 182.597 173.673  0.00  0.00     0.045 C 
HETATM   34  C   UNK     0     184.500 182.384 173.290  0.00  0.00     0.045 C 
BRANCH  32  35
HETATM   35  O   UNK     0     183.475 181.659 175.338  0.00  0.00    -0.391 OA
HETATM   36  H   UNK     0     184.372 181.662 175.711  0.00  0.00     0.210 HD
ENDBRANCH  32  35
ENDBRANCH  31  32
ENDBRANCH  30  31
ENDBRANCH  27  30
ENDBRANCH  23  27
ENDBRANCH   5  23
BRANCH  19  37
HETATM   37  O   UNK     0     188.132 184.459 163.921  0.00  0.00    -0.393 OA
HETATM   38  H   UNK     0     188.742 183.702 163.906  0.00  0.00     0.210 HD
ENDBRANCH  19  37
BRANCH  20  39
HETATM   39  O   UNK     0     188.253 182.114 165.386  0.00  0.00    -0.393 OA
HETATM   40  H   UNK     0     188.709 182.369 164.565  0.00  0.00     0.210 HD
ENDBRANCH  20  39
ENDBRANCH   1   3
TORSDOF 11
