REMARK VINA RESULT:      -7.4      5.710      9.136
REMARK  11 active torsions:
REMARK  status: ('A' for Active; 'I' for Inactive)
REMARK    1  A    between atoms: O_1  and  C_9 
REMARK    2  A    between atoms: O_2  and  C_19 
REMARK    3  A    between atoms: O_3  and  C_26 
REMARK    4  A    between atoms: O_4  and  C_27 
REMARK    5  A    between atoms: O_6  and  C_28 
REMARK    6  A    between atoms: O_7  and  C_32 
REMARK    7  A    between atoms: C_10  and  C_19 
REMARK    8  A    between atoms: C_19  and  C_27 
REMARK    9  A    between atoms: C_27  and  C_30 
REMARK   10  A    between atoms: C_30  and  C_31 
REMARK   11  A    between atoms: C_31  and  C_32 
ROOT
HETATM    1  O   UNK     0     183.318 180.546 172.740  0.00  0.00    -0.384 OA
HETATM    2  H   UNK     0     183.010 180.949 173.570  0.00  0.00     0.211 HD
ENDROOT
BRANCH   1   3
HETATM    3  C   UNK     0     182.920 181.413 171.654  0.00  0.00     0.089 C 
HETATM    4  C   UNK     0     181.406 181.724 171.772  0.00  0.00    -0.002 C 
HETATM    5  C   UNK     0     180.803 180.312 171.561  0.00  0.00     0.034 C 
HETATM    6  C   UNK     0     181.135 182.316 173.167  0.00  0.00     0.014 C 
HETATM    7  C   UNK     0     180.903 182.709 170.681  0.00  0.00     0.019 C 
HETATM    8  C   UNK     0     181.680 179.701 170.444  0.00  0.00     0.012 C 
HETATM    9  C   UNK     0     182.975 180.541 170.390  0.00  0.00     0.044 C 
HETATM   10  C   UNK     0     181.951 183.599 173.390  0.00  0.00     0.011 C 
HETATM   11  C   UNK     0     183.474 183.481 173.070  0.00  0.00     0.027 C 
HETATM   12  C   UNK     0     184.203 184.881 173.087  0.00  0.00    -0.023 C 
HETATM   13  C   UNK     0     183.761 182.663 171.801  0.00  0.00    -0.037 C 
HETATM   14  C   UNK     0     185.661 184.730 172.570  0.00  0.00     0.071 C 
HETATM   15  C   UNK     0     184.248 185.485 174.520  0.00  0.00     0.044 C 
HETATM   16  C   UNK     0     183.476 185.915 172.184  0.00  0.00     0.016 C 
HETATM   17  C   UNK     0     186.580 183.964 173.537  0.00  0.00     0.047 C 
HETATM   18  C   UNK     0     185.692 184.062 171.208  0.00  0.00     0.154 C 
HETATM   19  C   UNK     0     186.588 184.595 174.929  0.00  0.00     0.147 C 
HETATM   20  C   UNK     0     185.167 184.721 175.480  0.00  0.00     0.147 C 
HETATM   21  O   UNK     0     186.529 184.366 170.359  0.00  0.00    -0.293 OA
HETATM   22  C   UNK     0     184.741 182.962 170.934  0.00  0.00     0.057 C 
BRANCH   5  23
HETATM   23  C   UNK     0     179.314 180.248 171.244  0.00  0.00     0.084 C 
HETATM   24  C   UNK     0     178.575 179.492 172.362  0.00  0.00     0.049 C 
BRANCH  23  25
HETATM   25  O   UNK     0     178.798 181.585 171.219  0.00  0.00    -0.387 OA
HETATM   26  H   UNK     0     178.770 181.894 170.299  0.00  0.00     0.210 HD
ENDBRANCH  23  25
BRANCH  23  27
HETATM   27  C   UNK     0     179.035 179.595 169.863  0.00  0.00     0.152 C 
BRANCH  27  28
HETATM   28  O   UNK     0     178.552 180.588 168.952  0.00  0.00    -0.393 OA
HETATM   29  H   UNK     0     179.319 181.109 168.657  0.00  0.00     0.210 HD
ENDBRANCH  27  28
BRANCH  27  30
HETATM   30  C   UNK     0     178.018 178.438 169.904  0.00  0.00     0.037 C 
BRANCH  30  31
HETATM   31  C   UNK     0     176.954 178.566 168.797  0.00  0.00     0.040 C 
BRANCH  31  32
HETATM   32  C   UNK     0     175.555 178.980 169.300  0.00  0.00     0.051 C 
HETATM   33  C   UNK     0     174.495 178.546 168.280  0.00  0.00     0.045 C 
HETATM   34  C   UNK     0     175.227 178.392 170.674  0.00  0.00     0.045 C 
BRANCH  32  35
HETATM   35  O   UNK     0     175.514 180.405 169.395  0.00  0.00    -0.391 OA
HETATM   36  H   UNK     0     176.103 180.767 168.712  0.00  0.00     0.210 HD
ENDBRANCH  32  35
ENDBRANCH  31  32
ENDBRANCH  30  31
ENDBRANCH  27  30
ENDBRANCH  23  27
ENDBRANCH   5  23
BRANCH  19  37
HETATM   37  O   UNK     0     187.180 185.893 174.851  0.00  0.00    -0.393 OA
HETATM   38  H   UNK     0     187.924 185.914 175.475  0.00  0.00     0.210 HD
ENDBRANCH  19  37
BRANCH  20  39
HETATM   39  O   UNK     0     185.214 185.396 176.735  0.00  0.00    -0.393 OA
HETATM   40  H   UNK     0     184.928 186.313 176.585  0.00  0.00     0.210 HD
ENDBRANCH  20  39
ENDBRANCH   1   3
TORSDOF 11
