REMARK VINA RESULT:      -7.4      5.435      8.398
REMARK  11 active torsions:
REMARK  status: ('A' for Active; 'I' for Inactive)
REMARK    1  A    between atoms: O_1  and  C_9 
REMARK    2  A    between atoms: O_2  and  C_19 
REMARK    3  A    between atoms: O_3  and  C_26 
REMARK    4  A    between atoms: O_4  and  C_27 
REMARK    5  A    between atoms: O_6  and  C_28 
REMARK    6  A    between atoms: O_7  and  C_32 
REMARK    7  A    between atoms: C_10  and  C_19 
REMARK    8  A    between atoms: C_19  and  C_27 
REMARK    9  A    between atoms: C_27  and  C_30 
REMARK   10  A    between atoms: C_30  and  C_31 
REMARK   11  A    between atoms: C_31  and  C_32 
ROOT
HETATM    1  O   UNK     0     184.174 180.589 172.740  0.00  0.00    -0.384 OA
HETATM    2  H   UNK     0     184.122 181.059 173.589  0.00  0.00     0.211 HD
ENDROOT
BRANCH   1   3
HETATM    3  C   UNK     0     183.459 181.372 171.756  0.00  0.00     0.089 C 
HETATM    4  C   UNK     0     181.937 181.295 172.044  0.00  0.00    -0.002 C 
HETATM    5  C   UNK     0     181.674 179.787 171.802  0.00  0.00     0.034 C 
HETATM    6  C   UNK     0     181.689 181.746 173.495  0.00  0.00     0.014 C 
HETATM    7  C   UNK     0     181.094 182.166 171.074  0.00  0.00     0.019 C 
HETATM    8  C   UNK     0     182.541 179.455 170.566  0.00  0.00     0.012 C 
HETATM    9  C   UNK     0     183.581 180.590 170.439  0.00  0.00     0.044 C 
HETATM   10  C   UNK     0     182.192 183.182 173.719  0.00  0.00     0.011 C 
HETATM   11  C   UNK     0     183.652 183.455 173.243  0.00  0.00     0.027 C 
HETATM   12  C   UNK     0     184.019 184.991 173.280  0.00  0.00    -0.023 C 
HETATM   13  C   UNK     0     183.985 182.784 171.901  0.00  0.00    -0.037 C 
HETATM   14  C   UNK     0     185.403 185.224 172.612  0.00  0.00     0.071 C 
HETATM   15  C   UNK     0     184.077 185.531 174.737  0.00  0.00     0.044 C 
HETATM   16  C   UNK     0     182.968 185.847 172.521  0.00  0.00     0.016 C 
HETATM   17  C   UNK     0     186.582 184.672 173.432  0.00  0.00     0.047 C 
HETATM   18  C   UNK     0     185.442 184.639 171.213  0.00  0.00     0.154 C 
HETATM   19  C   UNK     0     186.593 185.231 174.854  0.00  0.00     0.147 C 
HETATM   20  C   UNK     0     185.254 184.981 175.550  0.00  0.00     0.147 C 
HETATM   21  O   UNK     0     186.081 185.172 170.307  0.00  0.00    -0.293 OA
HETATM   22  C   UNK     0     184.760 183.350 170.963  0.00  0.00     0.057 C 
BRANCH   5  23
HETATM   23  C   UNK     0     180.218 179.369 171.631  0.00  0.00     0.084 C 
HETATM   24  C   UNK     0     179.298 180.394 172.314  0.00  0.00     0.049 C 
BRANCH  23  25
HETATM   25  O   UNK     0     179.906 179.379 170.231  0.00  0.00    -0.387 OA
HETATM   26  H   UNK     0     180.732 179.452 169.725  0.00  0.00     0.210 HD
ENDBRANCH  23  25
BRANCH  23  27
HETATM   27  C   UNK     0     179.949 177.940 172.177  0.00  0.00     0.152 C 
BRANCH  27  28
HETATM   28  O   UNK     0     180.982 177.577 173.098  0.00  0.00    -0.393 OA
HETATM   29  H   UNK     0     181.692 177.150 172.587  0.00  0.00     0.210 HD
ENDBRANCH  27  28
BRANCH  27  30
HETATM   30  C   UNK     0     179.867 176.852 171.088  0.00  0.00     0.037 C 
BRANCH  30  31
HETATM   31  C   UNK     0     180.195 175.454 171.644  0.00  0.00     0.040 C 
BRANCH  31  32
HETATM   32  C   UNK     0     181.490 174.831 171.082  0.00  0.00     0.051 C 
HETATM   33  C   UNK     0     181.418 173.304 171.202  0.00  0.00     0.045 C 
HETATM   34  C   UNK     0     181.750 175.228 169.628  0.00  0.00     0.045 C 
BRANCH  32  35
HETATM   35  O   UNK     0     182.588 175.281 171.878  0.00  0.00    -0.391 OA
HETATM   36  H   UNK     0     182.838 176.167 171.567  0.00  0.00     0.210 HD
ENDBRANCH  32  35
ENDBRANCH  31  32
ENDBRANCH  30  31
ENDBRANCH  27  30
ENDBRANCH  23  27
ENDBRANCH   5  23
BRANCH  19  37
HETATM   37  O   UNK     0     186.841 186.637 174.802  0.00  0.00    -0.393 OA
HETATM   38  H   UNK     0     187.023 186.936 175.709  0.00  0.00     0.210 HD
ENDBRANCH  19  37
BRANCH  20  39
HETATM   39  O   UNK     0     185.278 185.597 176.835  0.00  0.00    -0.393 OA
HETATM   40  H   UNK     0     185.792 186.419 176.756  0.00  0.00     0.210 HD
ENDBRANCH  20  39
ENDBRANCH   1   3
TORSDOF 11
