REMARK VINA RESULT:      -7.5     12.260     14.782
REMARK  11 active torsions:
REMARK  status: ('A' for Active; 'I' for Inactive)
REMARK    1  A    between atoms: O_1  and  C_9 
REMARK    2  A    between atoms: O_2  and  C_19 
REMARK    3  A    between atoms: O_3  and  C_26 
REMARK    4  A    between atoms: O_4  and  C_27 
REMARK    5  A    between atoms: O_6  and  C_28 
REMARK    6  A    between atoms: O_7  and  C_32 
REMARK    7  A    between atoms: C_10  and  C_19 
REMARK    8  A    between atoms: C_19  and  C_27 
REMARK    9  A    between atoms: C_27  and  C_30 
REMARK   10  A    between atoms: C_30  and  C_31 
REMARK   11  A    between atoms: C_31  and  C_32 
ROOT
HETATM    1  O   UNK     0     174.945 177.878 171.733  0.00  0.00    -0.384 OA
HETATM    2  H   UNK     0     173.973 177.889 171.690  0.00  0.00     0.211 HD
ENDROOT
BRANCH   1   3
HETATM    3  C   UNK     0     175.442 177.579 170.409  0.00  0.00     0.089 C 
HETATM    4  C   UNK     0     176.959 177.266 170.487  0.00  0.00    -0.002 C 
HETATM    5  C   UNK     0     177.513 178.636 170.956  0.00  0.00     0.034 C 
HETATM    6  C   UNK     0     177.173 176.127 171.501  0.00  0.00     0.014 C 
HETATM    7  C   UNK     0     177.566 176.864 169.115  0.00  0.00     0.019 C 
HETATM    8  C   UNK     0     176.678 179.663 170.157  0.00  0.00     0.012 C 
HETATM    9  C   UNK     0     175.425 178.915 169.651  0.00  0.00     0.044 C 
HETATM   10  C   UNK     0     176.399 174.865 171.084  0.00  0.00     0.011 C 
HETATM   11  C   UNK     0     174.895 175.093 170.740  0.00  0.00     0.027 C 
HETATM   12  C   UNK     0     174.226 173.817 170.094  0.00  0.00    -0.023 C 
HETATM   13  C   UNK     0     174.648 176.380 169.937  0.00  0.00    -0.037 C 
HETATM   14  C   UNK     0     172.796 174.162 169.592  0.00  0.00     0.071 C 
HETATM   15  C   UNK     0     174.122 172.647 171.113  0.00  0.00     0.044 C 
HETATM   16  C   UNK     0     175.047 173.292 168.885  0.00  0.00     0.016 C 
HETATM   17  C   UNK     0     171.790 174.415 170.728  0.00  0.00     0.047 C 
HETATM   18  C   UNK     0     172.816 175.357 168.658  0.00  0.00     0.154 C 
HETATM   19  C   UNK     0     171.727 173.239 171.701  0.00  0.00     0.147 C 
HETATM   20  C   UNK     0     173.117 172.902 172.242  0.00  0.00     0.147 C 
HETATM   21  O   UNK     0     172.044 175.445 167.705  0.00  0.00    -0.293 OA
HETATM   22  C   UNK     0     173.734 176.478 168.958  0.00  0.00     0.057 C 
BRANCH   5  23
HETATM   23  C   UNK     0     179.014 178.851 170.806  0.00  0.00     0.084 C 
HETATM   24  C   UNK     0     179.353 179.152 169.336  0.00  0.00     0.049 C 
BRANCH  23  25
HETATM   25  O   UNK     0     179.386 180.001 171.576  0.00  0.00    -0.387 OA
HETATM   26  H   UNK     0     179.553 179.727 172.492  0.00  0.00     0.210 HD
ENDBRANCH  23  25
BRANCH  23  27
HETATM   27  C   UNK     0     179.836 177.637 171.321  0.00  0.00     0.152 C 
BRANCH  27  28
HETATM   28  O   UNK     0     180.348 177.924 172.626  0.00  0.00    -0.393 OA
HETATM   29  H   UNK     0     179.599 177.884 173.247  0.00  0.00     0.210 HD
ENDBRANCH  27  28
BRANCH  27  30
HETATM   30  C   UNK     0     181.016 177.242 170.413  0.00  0.00     0.037 C 
BRANCH  30  31
HETATM   31  C   UNK     0     181.019 175.735 170.093  0.00  0.00     0.040 C 
BRANCH  31  32
HETATM   32  C   UNK     0     181.698 174.855 171.163  0.00  0.00     0.051 C 
HETATM   33  C   UNK     0     180.628 174.119 171.976  0.00  0.00     0.045 C 
HETATM   34  C   UNK     0     182.678 173.848 170.559  0.00  0.00     0.045 C 
BRANCH  32  35
HETATM   35  O   UNK     0     182.418 175.708 172.056  0.00  0.00    -0.391 OA
HETATM   36  H   UNK     0     182.750 175.162 172.788  0.00  0.00     0.210 HD
ENDBRANCH  32  35
ENDBRANCH  31  32
ENDBRANCH  30  31
ENDBRANCH  27  30
ENDBRANCH  23  27
ENDBRANCH   5  23
BRANCH  19  37
HETATM   37  O   UNK     0     171.197 172.099 171.024  0.00  0.00    -0.393 OA
HETATM   38  H   UNK     0     171.232 172.281 170.070  0.00  0.00     0.210 HD
ENDBRANCH  19  37
BRANCH  20  39
HETATM   39  O   UNK     0     173.025 171.746 173.071  0.00  0.00    -0.393 OA
HETATM   40  H   UNK     0     172.216 171.269 172.818  0.00  0.00     0.210 HD
ENDBRANCH  20  39
ENDBRANCH   1   3
TORSDOF 11
