REMARK VINA RESULT:      -7.6      4.414      8.093
REMARK  11 active torsions:
REMARK  status: ('A' for Active; 'I' for Inactive)
REMARK    1  A    between atoms: O_1  and  C_9 
REMARK    2  A    between atoms: O_2  and  C_19 
REMARK    3  A    between atoms: O_3  and  C_26 
REMARK    4  A    between atoms: O_4  and  C_27 
REMARK    5  A    between atoms: O_6  and  C_28 
REMARK    6  A    between atoms: O_7  and  C_32 
REMARK    7  A    between atoms: C_10  and  C_19 
REMARK    8  A    between atoms: C_19  and  C_27 
REMARK    9  A    between atoms: C_27  and  C_30 
REMARK   10  A    between atoms: C_30  and  C_31 
REMARK   11  A    between atoms: C_31  and  C_32 
ROOT
HETATM    1  O   UNK     0     180.947 184.358 173.124  0.00  0.00    -0.384 OA
HETATM    2  H   UNK     0     181.094 185.250 173.483  0.00  0.00     0.211 HD
ENDROOT
BRANCH   1   3
HETATM    3  C   UNK     0     182.139 183.969 172.404  0.00  0.00     0.089 C 
HETATM    4  C   UNK     0     183.106 183.234 173.368  0.00  0.00    -0.002 C 
HETATM    5  C   UNK     0     183.445 184.374 174.362  0.00  0.00     0.034 C 
HETATM    6  C   UNK     0     182.356 182.051 174.007  0.00  0.00     0.014 C 
HETATM    7  C   UNK     0     184.389 182.718 172.661  0.00  0.00     0.019 C 
HETATM    8  C   UNK     0     183.586 185.620 173.459  0.00  0.00     0.012 C 
HETATM    9  C   UNK     0     182.894 185.278 172.122  0.00  0.00     0.044 C 
HETATM   10  C   UNK     0     181.847 181.077 172.932  0.00  0.00     0.011 C 
HETATM   11  C   UNK     0     181.052 181.735 171.762  0.00  0.00     0.027 C 
HETATM   12  C   UNK     0     180.770 180.723 170.583  0.00  0.00    -0.023 C 
HETATM   13  C   UNK     0     181.664 183.062 171.288  0.00  0.00    -0.037 C 
HETATM   14  C   UNK     0     180.157 181.477 169.370  0.00  0.00     0.071 C 
HETATM   15  C   UNK     0     179.783 179.601 171.016  0.00  0.00     0.044 C 
HETATM   16  C   UNK     0     182.071 180.023 170.107  0.00  0.00     0.016 C 
HETATM   17  C   UNK     0     178.721 181.973 169.615  0.00  0.00     0.047 C 
HETATM   18  C   UNK     0     181.030 182.645 168.952  0.00  0.00     0.154 C 
HETATM   19  C   UNK     0     177.794 180.834 170.039  0.00  0.00     0.147 C 
HETATM   20  C   UNK     0     178.354 180.098 171.257  0.00  0.00     0.147 C 
HETATM   21  O   UNK     0     181.142 182.979 167.773  0.00  0.00    -0.293 OA
HETATM   22  C   UNK     0     181.694 183.447 170.003  0.00  0.00     0.057 C 
BRANCH   5  23
HETATM   23  C   UNK     0     184.656 184.156 175.261  0.00  0.00     0.084 C 
HETATM   24  C   UNK     0     185.018 185.469 175.975  0.00  0.00     0.049 C 
BRANCH  23  25
HETATM   25  O   UNK     0     184.304 183.202 176.273  0.00  0.00    -0.387 OA
HETATM   26  H   UNK     0     185.092 182.685 176.506  0.00  0.00     0.210 HD
ENDBRANCH  23  25
BRANCH  23  27
HETATM   27  C   UNK     0     185.877 183.602 174.478  0.00  0.00     0.152 C 
BRANCH  27  28
HETATM   28  O   UNK     0     186.322 182.384 175.083  0.00  0.00    -0.393 OA
HETATM   29  H   UNK     0     186.564 181.774 174.364  0.00  0.00     0.210 HD
ENDBRANCH  27  28
BRANCH  27  30
HETATM   30  C   UNK     0     187.072 184.571 174.402  0.00  0.00     0.037 C 
BRANCH  30  31
HETATM   31  C   UNK     0     187.341 185.044 172.961  0.00  0.00     0.040 C 
BRANCH  31  32
HETATM   32  C   UNK     0     187.432 186.576 172.797  0.00  0.00     0.051 C 
HETATM   33  C   UNK     0     188.850 186.961 172.362  0.00  0.00     0.045 C 
HETATM   34  C   UNK     0     186.413 187.120 171.794  0.00  0.00     0.045 C 
BRANCH  32  35
HETATM   35  O   UNK     0     187.184 187.179 174.068  0.00  0.00    -0.391 OA
HETATM   36  H   UNK     0     187.833 187.891 174.193  0.00  0.00     0.210 HD
ENDBRANCH  32  35
ENDBRANCH  31  32
ENDBRANCH  30  31
ENDBRANCH  27  30
ENDBRANCH  23  27
ENDBRANCH   5  23
BRANCH  19  37
HETATM   37  O   UNK     0     177.657 179.914 168.954  0.00  0.00    -0.393 OA
HETATM   38  H   UNK     0     178.293 180.173 168.267  0.00  0.00     0.210 HD
ENDBRANCH  19  37
BRANCH  20  39
HETATM   39  O   UNK     0     177.507 178.992 171.560  0.00  0.00    -0.393 OA
HETATM   40  H   UNK     0     176.998 178.785 170.757  0.00  0.00     0.210 HD
ENDBRANCH  20  39
ENDBRANCH   1   3
TORSDOF 11
