MODEL 1
REMARK VINA RESULT:    -5.342      0.000      0.000
REMARK INTER + INTRA:          -6.337
REMARK INTER:                  -6.279
REMARK INTRA:                  -0.058
REMARK UNBOUND:                -0.058
REMARK  Name = 370
REMARK  5 active torsions:
REMARK  status: ('A' for Active; 'I' for Inactive)
REMARK    1  A    between atoms: O_1  and  C_7
REMARK    2  A    between atoms: O_2  and  C_8
REMARK    3  A    between atoms: O_3  and  C_9
REMARK    4  A    between atoms: O_4  and  C_12
REMARK    5  A    between atoms: C_6  and  C_12
REMARK                            x       y       z     vdW  Elec       q    Type
REMARK                         _______ _______ _______ _____ _____    ______ ____
ROOT
ATOM      1  C   UNL     1     -34.794  16.585  53.924  0.00  0.00    +0.000 A 
ATOM      2  C   UNL     1     -33.911  14.102  54.842  0.00  0.00    +0.000 A 
ATOM      3  C   UNL     1     -34.735  14.891  55.646  0.00  0.00    +0.000 A 
ATOM      4  C   UNL     1     -33.530  14.555  53.578  0.00  0.00    +0.000 A 
ATOM      5  C   UNL     1     -35.175  16.132  55.187  0.00  0.00    +0.000 A 
ATOM      6  C   UNL     1     -33.971  15.796  53.120  0.00  0.00    +0.000 A 
ENDROOT
BRANCH   2   7
ATOM      7  O   UNL     1     -33.480  12.889  55.290  0.00  0.00    +0.000 OA
ATOM      8  H   UNL     1     -34.051  12.200  54.909  0.00  0.00    +0.000 HD
ENDBRANCH   2   7
BRANCH   3   9
ATOM      9  O   UNL     1     -35.114  14.459  56.880  0.00  0.00    +0.000 OA
ATOM     10  H   UNL     1     -35.062  15.202  57.507  0.00  0.00    +0.000 HD
ENDBRANCH   3   9
BRANCH   4  11
ATOM     11  O   UNL     1     -32.725  13.795  52.784  0.00  0.00    +0.000 OA
ATOM     12  H   UNL     1     -32.728  14.179  51.890  0.00  0.00    +0.000 HD
ENDBRANCH   4  11
BRANCH   1  14
ATOM     13  O   UNL     1     -36.246  18.485  53.863  0.00  0.00    +0.000 OA
ATOM     14  C   UNL     1     -35.253  17.880  53.447  0.00  0.00    +0.000 C 
BRANCH  14  15
ATOM     15  O   UNL     1     -34.459  18.383  52.463  0.00  0.00    +0.000 OA
ATOM     16  H   UNL     1     -34.717  19.297  52.216  0.00  0.00    +0.000 HD
ENDBRANCH  14  15
ENDBRANCH   1  14
TORSDOF 5
ENDMDL
MODEL 2
REMARK VINA RESULT:    -5.323      0.048      2.402
REMARK INTER + INTRA:          -6.314
REMARK INTER:                  -6.257
REMARK INTRA:                  -0.058
REMARK UNBOUND:                -0.058
REMARK  Name = 370
REMARK  5 active torsions:
REMARK  status: ('A' for Active; 'I' for Inactive)
REMARK    1  A    between atoms: O_1  and  C_7
REMARK    2  A    between atoms: O_2  and  C_8
REMARK    3  A    between atoms: O_3  and  C_9
REMARK    4  A    between atoms: O_4  and  C_12
REMARK    5  A    between atoms: C_6  and  C_12
REMARK                            x       y       z     vdW  Elec       q    Type
REMARK                         _______ _______ _______ _____ _____    ______ ____
ROOT
ATOM      1  C   UNL     1     -34.770  16.619  53.926  0.00  0.00    +0.000 A 
ATOM      2  C   UNL     1     -33.921  14.112  54.813  0.00  0.00    +0.000 A 
ATOM      3  C   UNL     1     -33.541  14.572  53.551  0.00  0.00    +0.000 A 
ATOM      4  C   UNL     1     -34.726  14.906  55.631  0.00  0.00    +0.000 A 
ATOM      5  C   UNL     1     -33.966  15.824  53.109  0.00  0.00    +0.000 A 
ATOM      6  C   UNL     1     -35.150  16.158  55.188  0.00  0.00    +0.000 A 
ENDROOT
BRANCH   2   7
ATOM      7  O   UNL     1     -33.507  12.888  55.245  0.00  0.00    +0.000 OA
ATOM      8  H   UNL     1     -32.537  12.901  55.320  0.00  0.00    +0.000 HD
ENDBRANCH   2   7
BRANCH   3   9
ATOM      9  O   UNL     1     -32.756  13.806  52.744  0.00  0.00    +0.000 OA
ATOM     10  H   UNL     1     -32.076  13.368  53.285  0.00  0.00    +0.000 HD
ENDBRANCH   3   9
BRANCH   4  11
ATOM     11  O   UNL     1     -35.105  14.468  56.864  0.00  0.00    +0.000 OA
ATOM     12  H   UNL     1     -34.411  14.709  57.501  0.00  0.00    +0.000 HD
ENDBRANCH   4  11
BRANCH   1  14
ATOM     13  O   UNL     1     -36.209  18.528  53.875  0.00  0.00    +0.000 OA
ATOM     14  C   UNL     1     -35.213  17.924  53.464  0.00  0.00    +0.000 C 
BRANCH  14  15
ATOM     15  O   UNL     1     -34.401  18.438  52.501  0.00  0.00    +0.000 OA
ATOM     16  H   UNL     1     -34.680  19.339  52.230  0.00  0.00    +0.000 HD
ENDBRANCH  14  15
ENDBRANCH   1  14
TORSDOF 5
ENDMDL
MODEL 3
REMARK VINA RESULT:    -5.181     17.317     17.584
REMARK INTER + INTRA:          -6.147
REMARK INTER:                  -6.092
REMARK INTRA:                  -0.055
REMARK UNBOUND:                -0.058
REMARK  Name = 370
REMARK  5 active torsions:
REMARK  status: ('A' for Active; 'I' for Inactive)
REMARK    1  A    between atoms: O_1  and  C_7
REMARK    2  A    between atoms: O_2  and  C_8
REMARK    3  A    between atoms: O_3  and  C_9
REMARK    4  A    between atoms: O_4  and  C_12
REMARK    5  A    between atoms: C_6  and  C_12
REMARK                            x       y       z     vdW  Elec       q    Type
REMARK                         _______ _______ _______ _____ _____    ______ ____
ROOT
ATOM      1  C   UNL     1     -25.840   3.695  44.899  0.00  0.00    +0.000 A 
ATOM      2  C   UNL     1     -23.705   4.668  46.410  0.00  0.00    +0.000 A 
ATOM      3  C   UNL     1     -24.408   3.541  46.839  0.00  0.00    +0.000 A 
ATOM      4  C   UNL     1     -24.071   5.308  45.226  0.00  0.00    +0.000 A 
ATOM      5  C   UNL     1     -25.475   3.056  46.084  0.00  0.00    +0.000 A 
ATOM      6  C   UNL     1     -25.138   4.822  44.471  0.00  0.00    +0.000 A 
ENDROOT
BRANCH   2   7
ATOM      7  O   UNL     1     -22.663   5.143  47.149  0.00  0.00    +0.000 OA
ATOM      8  H   UNL     1     -22.065   5.632  46.557  0.00  0.00    +0.000 HD
ENDBRANCH   2   7
BRANCH   3   9
ATOM      9  O   UNL     1     -24.060   2.907  47.993  0.00  0.00    +0.000 OA
ATOM     10  H   UNL     1     -24.755   3.054  48.658  0.00  0.00    +0.000 HD
ENDBRANCH   3   9
BRANCH   4  11
ATOM     11  O   UNL     1     -23.394   6.411  44.797  0.00  0.00    +0.000 OA
ATOM     12  H   UNL     1     -23.758   6.677  43.935  0.00  0.00    +0.000 HD
ENDBRANCH   4  11
BRANCH   1  14
ATOM     13  O   UNL     1     -27.993   2.705  44.572  0.00  0.00    +0.000 OA
ATOM     14  C   UNL     1     -26.954   3.189  44.113  0.00  0.00    +0.000 C 
BRANCH  14  15
ATOM     15  O   UNL     1     -26.738   3.303  42.774  0.00  0.00    +0.000 OA
ATOM     16  H   UNL     1     -26.514   2.439  42.365  0.00  0.00    +0.000 HD
ENDBRANCH  14  15
ENDBRANCH   1  14
TORSDOF 5
ENDMDL
MODEL 4
REMARK VINA RESULT:    -5.160     17.333     17.678
REMARK INTER + INTRA:          -6.123
REMARK INTER:                  -6.067
REMARK INTRA:                  -0.055
REMARK UNBOUND:                -0.058
REMARK  Name = 370
REMARK  5 active torsions:
REMARK  status: ('A' for Active; 'I' for Inactive)
REMARK    1  A    between atoms: O_1  and  C_7
REMARK    2  A    between atoms: O_2  and  C_8
REMARK    3  A    between atoms: O_3  and  C_9
REMARK    4  A    between atoms: O_4  and  C_12
REMARK    5  A    between atoms: C_6  and  C_12
REMARK                            x       y       z     vdW  Elec       q    Type
REMARK                         _______ _______ _______ _____ _____    ______ ____
ROOT
ATOM      1  C   UNL     1     -25.850   3.729  44.853  0.00  0.00    +0.000 A 
ATOM      2  C   UNL     1     -23.698   4.737  46.316  0.00  0.00    +0.000 A 
ATOM      3  C   UNL     1     -24.078   5.349  45.122  0.00  0.00    +0.000 A 
ATOM      4  C   UNL     1     -24.395   3.620  46.779  0.00  0.00    +0.000 A 
ATOM      5  C   UNL     1     -25.153   4.845  44.391  0.00  0.00    +0.000 A 
ATOM      6  C   UNL     1     -25.470   3.116  46.048  0.00  0.00    +0.000 A 
ENDROOT
BRANCH   2   7
ATOM      7  O   UNL     1     -22.646   5.229  47.031  0.00  0.00    +0.000 OA
ATOM      8  H   UNL     1     -22.610   4.763  47.884  0.00  0.00    +0.000 HD
ENDBRANCH   2   7
BRANCH   3   9
ATOM      9  O   UNL     1     -23.406   6.441  44.660  0.00  0.00    +0.000 OA
ATOM     10  H   UNL     1     -23.441   6.447  43.688  0.00  0.00    +0.000 HD
ENDBRANCH   3   9
BRANCH   4  11
ATOM     11  O   UNL     1     -24.033   3.011  47.944  0.00  0.00    +0.000 OA
ATOM     12  H   UNL     1     -23.137   2.649  47.833  0.00  0.00    +0.000 HD
ENDBRANCH   4  11
BRANCH   1  14
ATOM     13  O   UNL     1     -27.996   2.711  44.572  0.00  0.00    +0.000 OA
ATOM     14  C   UNL     1     -26.971   3.203  44.090  0.00  0.00    +0.000 C 
BRANCH  14  15
ATOM     15  O   UNL     1     -26.780   3.308  42.747  0.00  0.00    +0.000 OA
ATOM     16  H   UNL     1     -27.576   3.655  42.290  0.00  0.00    +0.000 HD
ENDBRANCH  14  15
ENDBRANCH   1  14
TORSDOF 5
ENDMDL
MODEL 5
REMARK VINA RESULT:    -5.143      1.219      3.966
REMARK INTER + INTRA:          -6.102
REMARK INTER:                  -6.044
REMARK INTRA:                  -0.058
REMARK UNBOUND:                -0.058
REMARK  Name = 370
REMARK  5 active torsions:
REMARK  status: ('A' for Active; 'I' for Inactive)
REMARK    1  A    between atoms: O_1  and  C_7
REMARK    2  A    between atoms: O_2  and  C_8
REMARK    3  A    between atoms: O_3  and  C_9
REMARK    4  A    between atoms: O_4  and  C_12
REMARK    5  A    between atoms: C_6  and  C_12
REMARK                            x       y       z     vdW  Elec       q    Type
REMARK                         _______ _______ _______ _____ _____    ______ ____
ROOT
ATOM      1  C   UNL     1     -34.189  14.663  54.737  0.00  0.00    +0.000 A 
ATOM      2  C   UNL     1     -35.164  17.139  55.580  0.00  0.00    +0.000 A 
ATOM      3  C   UNL     1     -34.840  16.159  56.519  0.00  0.00    +0.000 A 
ATOM      4  C   UNL     1     -34.999  16.880  54.219  0.00  0.00    +0.000 A 
ATOM      5  C   UNL     1     -34.353  14.922  56.097  0.00  0.00    +0.000 A 
ATOM      6  C   UNL     1     -34.513  15.643  53.798  0.00  0.00    +0.000 A 
ENDROOT
BRANCH   2   7
ATOM      7  O   UNL     1     -35.640  18.348  55.992  0.00  0.00    +0.000 OA
ATOM      8  H   UNL     1     -36.599  18.371  55.829  0.00  0.00    +0.000 HD
ENDBRANCH   2   7
BRANCH   3   9
ATOM      9  O   UNL     1     -34.995  16.400  57.851  0.00  0.00    +0.000 OA
ATOM     10  H   UNL     1     -34.274  16.980  58.155  0.00  0.00    +0.000 HD
ENDBRANCH   3   9
BRANCH   4  11
ATOM     11  O   UNL     1     -35.314  17.827  53.291  0.00  0.00    +0.000 OA
ATOM     12  H   UNL     1     -34.485  18.196  52.938  0.00  0.00    +0.000 HD
ENDBRANCH   4  11
BRANCH   1  14
ATOM     13  O   UNL     1     -33.688  12.336  54.969  0.00  0.00    +0.000 OA
ATOM     14  C   UNL     1     -33.683  13.373  54.298  0.00  0.00    +0.000 C 
BRANCH  14  15
ATOM     15  O   UNL     1     -33.184  13.414  53.032  0.00  0.00    +0.000 OA
ATOM     16  H   UNL     1     -32.202  13.432  53.027  0.00  0.00    +0.000 HD
ENDBRANCH  14  15
ENDBRANCH   1  14
TORSDOF 5
ENDMDL
MODEL 6
REMARK VINA RESULT:    -5.140      1.223      4.468
REMARK INTER + INTRA:          -6.099
REMARK INTER:                  -6.041
REMARK INTRA:                  -0.058
REMARK UNBOUND:                -0.058
REMARK  Name = 370
REMARK  5 active torsions:
REMARK  status: ('A' for Active; 'I' for Inactive)
REMARK    1  A    between atoms: O_1  and  C_7
REMARK    2  A    between atoms: O_2  and  C_8
REMARK    3  A    between atoms: O_3  and  C_9
REMARK    4  A    between atoms: O_4  and  C_12
REMARK    5  A    between atoms: C_6  and  C_12
REMARK                            x       y       z     vdW  Elec       q    Type
REMARK                         _______ _______ _______ _____ _____    ______ ____
ROOT
ATOM      1  C   UNL     1     -34.205  14.666  54.731  0.00  0.00    +0.000 A 
ATOM      2  C   UNL     1     -35.161  17.143  55.593  0.00  0.00    +0.000 A 
ATOM      3  C   UNL     1     -35.003  16.891  54.229  0.00  0.00    +0.000 A 
ATOM      4  C   UNL     1     -34.841  16.155  56.525  0.00  0.00    +0.000 A 
ATOM      5  C   UNL     1     -34.524  15.653  53.800  0.00  0.00    +0.000 A 
ATOM      6  C   UNL     1     -34.363  14.918  56.095  0.00  0.00    +0.000 A 
ENDROOT
BRANCH   2   7
ATOM      7  O   UNL     1     -35.627  18.353  56.013  0.00  0.00    +0.000 OA
ATOM      8  H   UNL     1     -35.213  19.046  55.471  0.00  0.00    +0.000 HD
ENDBRANCH   2   7
BRANCH   3   9
ATOM      9  O   UNL     1     -35.312  17.847  53.309  0.00  0.00    +0.000 OA
ATOM     10  H   UNL     1     -34.529  18.024  52.760  0.00  0.00    +0.000 HD
ENDBRANCH   3   9
BRANCH   4  11
ATOM     11  O   UNL     1     -34.989  16.389  57.860  0.00  0.00    +0.000 OA
ATOM     12  H   UNL     1     -35.805  16.902  57.991  0.00  0.00    +0.000 HD
ENDBRANCH   4  11
BRANCH   1  14
ATOM     13  O   UNL     1     -33.727  12.332  54.942  0.00  0.00    +0.000 OA
ATOM     14  C   UNL     1     -33.705  13.376  54.283  0.00  0.00    +0.000 C 
BRANCH  14  15
ATOM     15  O   UNL     1     -33.193  13.427  53.023  0.00  0.00    +0.000 OA
ATOM     16  H   UNL     1     -32.525  12.723  52.872  0.00  0.00    +0.000 HD
ENDBRANCH  14  15
ENDBRANCH   1  14
TORSDOF 5
ENDMDL
MODEL 7
REMARK VINA RESULT:    -4.895      1.684      4.452
REMARK INTER + INTRA:          -5.811
REMARK INTER:                  -5.756
REMARK INTRA:                  -0.055
REMARK UNBOUND:                -0.058
REMARK  Name = 370
REMARK  5 active torsions:
REMARK  status: ('A' for Active; 'I' for Inactive)
REMARK    1  A    between atoms: O_1  and  C_7
REMARK    2  A    between atoms: O_2  and  C_8
REMARK    3  A    between atoms: O_3  and  C_9
REMARK    4  A    between atoms: O_4  and  C_12
REMARK    5  A    between atoms: C_6  and  C_12
REMARK                            x       y       z     vdW  Elec       q    Type
REMARK                         _______ _______ _______ _____ _____    ______ ____
ROOT
ATOM      1  C   UNL     1     -35.217  15.363  53.947  0.00  0.00    +0.000 A 
ATOM      2  C   UNL     1     -36.615  17.603  53.046  0.00  0.00    +0.000 A 
ATOM      3  C   UNL     1     -37.310  16.468  53.467  0.00  0.00    +0.000 A 
ATOM      4  C   UNL     1     -35.221  17.617  53.076  0.00  0.00    +0.000 A 
ATOM      5  C   UNL     1     -36.611  15.349  53.916  0.00  0.00    +0.000 A 
ATOM      6  C   UNL     1     -34.522  16.497  53.526  0.00  0.00    +0.000 A 
ENDROOT
BRANCH   2   7
ATOM      7  O   UNL     1     -37.299  18.697  52.606  0.00  0.00    +0.000 OA
ATOM      8  H   UNL     1     -38.118  18.395  52.176  0.00  0.00    +0.000 HD
ENDBRANCH   2   7
BRANCH   3   9
ATOM      9  O   UNL     1     -38.672  16.443  53.443  0.00  0.00    +0.000 OA
ATOM     10  H   UNL     1     -38.968  15.592  53.074  0.00  0.00    +0.000 HD
ENDBRANCH   3   9
BRANCH   4  11
ATOM     11  O   UNL     1     -34.530  18.718  52.666  0.00  0.00    +0.000 OA
ATOM     12  H   UNL     1     -34.973  19.507  53.023  0.00  0.00    +0.000 HD
ENDBRANCH   4  11
BRANCH   1  14
ATOM     13  O   UNL     1     -34.803  13.020  54.199  0.00  0.00    +0.000 OA
ATOM     14  C   UNL     1     -34.487  14.195  54.415  0.00  0.00    +0.000 C 
BRANCH  14  15
ATOM     15  O   UNL     1     -33.384  14.526  55.139  0.00  0.00    +0.000 OA
ATOM     16  H   UNL     1     -33.594  15.167  55.852  0.00  0.00    +0.000 HD
ENDBRANCH  14  15
ENDBRANCH   1  14
TORSDOF 5
ENDMDL
MODEL 8
REMARK VINA RESULT:    -4.835     10.134     12.150
REMARK INTER + INTRA:          -5.741
REMARK INTER:                  -5.682
REMARK INTRA:                  -0.059
REMARK UNBOUND:                -0.058
REMARK  Name = 370
REMARK  5 active torsions:
REMARK  status: ('A' for Active; 'I' for Inactive)
REMARK    1  A    between atoms: O_1  and  C_7
REMARK    2  A    between atoms: O_2  and  C_8
REMARK    3  A    between atoms: O_3  and  C_9
REMARK    4  A    between atoms: O_4  and  C_12
REMARK    5  A    between atoms: C_6  and  C_12
REMARK                            x       y       z     vdW  Elec       q    Type
REMARK                         _______ _______ _______ _____ _____    ______ ____
ROOT
ATOM      1  C   UNL     1     -37.159   5.214  60.142  0.00  0.00    +0.000 A 
ATOM      2  C   UNL     1     -38.057   6.802  58.030  0.00  0.00    +0.000 A 
ATOM      3  C   UNL     1     -38.919   6.485  59.080  0.00  0.00    +0.000 A 
ATOM      4  C   UNL     1     -36.746   6.325  58.036  0.00  0.00    +0.000 A 
ATOM      5  C   UNL     1     -38.470   5.691  60.135  0.00  0.00    +0.000 A 
ATOM      6  C   UNL     1     -36.297   5.532  59.091  0.00  0.00    +0.000 A 
ENDROOT
BRANCH   2   7
ATOM      7  O   UNL     1     -38.496   7.577  56.998  0.00  0.00    +0.000 OA
ATOM      8  H   UNL     1     -39.119   8.235  57.352  0.00  0.00    +0.000 HD
ENDBRANCH   2   7
BRANCH   3   9
ATOM      9  O   UNL     1     -40.201   6.945  59.086  0.00  0.00    +0.000 OA
ATOM     10  H   UNL     1     -40.719   6.434  59.732  0.00  0.00    +0.000 HD
ENDBRANCH   3   9
BRANCH   4  11
ATOM     11  O   UNL     1     -35.895   6.626  57.015  0.00  0.00    +0.000 OA
ATOM     12  H   UNL     1     -36.372   6.511  56.175  0.00  0.00    +0.000 HD
ENDBRANCH   4  11
BRANCH   1  14
ATOM     13  O   UNL     1     -37.415   3.806  62.058  0.00  0.00    +0.000 OA
ATOM     14  C   UNL     1     -36.692   4.386  61.242  0.00  0.00    +0.000 C 
BRANCH  14  15
ATOM     15  O   UNL     1     -35.334   4.305  61.291  0.00  0.00    +0.000 OA
ATOM     16  H   UNL     1     -35.032   3.607  61.911  0.00  0.00    +0.000 HD
ENDBRANCH  14  15
ENDBRANCH   1  14
TORSDOF 5
ENDMDL
MODEL 9
REMARK VINA RESULT:    -4.834     10.116     12.338
REMARK INTER + INTRA:          -5.740
REMARK INTER:                  -5.682
REMARK INTRA:                  -0.059
REMARK UNBOUND:                -0.058
REMARK  Name = 370
REMARK  5 active torsions:
REMARK  status: ('A' for Active; 'I' for Inactive)
REMARK    1  A    between atoms: O_1  and  C_7
REMARK    2  A    between atoms: O_2  and  C_8
REMARK    3  A    between atoms: O_3  and  C_9
REMARK    4  A    between atoms: O_4  and  C_12
REMARK    5  A    between atoms: C_6  and  C_12
REMARK                            x       y       z     vdW  Elec       q    Type
REMARK                         _______ _______ _______ _____ _____    ______ ____
ROOT
ATOM      1  C   UNL     1     -37.190   5.224  60.144  0.00  0.00    +0.000 A 
ATOM      2  C   UNL     1     -38.049   6.828  58.028  0.00  0.00    +0.000 A 
ATOM      3  C   UNL     1     -36.749   6.320  58.037  0.00  0.00    +0.000 A 
ATOM      4  C   UNL     1     -38.919   6.532  59.078  0.00  0.00    +0.000 A 
ATOM      5  C   UNL     1     -36.320   5.519  59.094  0.00  0.00    +0.000 A 
ATOM      6  C   UNL     1     -38.489   5.731  60.135  0.00  0.00    +0.000 A 
ENDROOT
BRANCH   2   7
ATOM      7  O   UNL     1     -38.468   7.612  56.995  0.00  0.00    +0.000 OA
ATOM      8  H   UNL     1     -37.730   7.716  56.370  0.00  0.00    +0.000 HD
ENDBRANCH   2   7
BRANCH   3   9
ATOM      9  O   UNL     1     -35.891   6.601  57.017  0.00  0.00    +0.000 OA
ATOM     10  H   UNL     1     -35.383   7.401  57.240  0.00  0.00    +0.000 HD
ENDBRANCH   3   9
BRANCH   4  11
ATOM     11  O   UNL     1     -40.190   7.023  59.083  0.00  0.00    +0.000 OA
ATOM     12  H   UNL     1     -40.398   7.342  58.188  0.00  0.00    +0.000 HD
ENDBRANCH   4  11
BRANCH   1  14
ATOM     13  O   UNL     1     -37.479   3.797  62.042  0.00  0.00    +0.000 OA
ATOM     14  C   UNL     1     -36.741   4.389  61.247  0.00  0.00    +0.000 C 
BRANCH  14  15
ATOM     15  O   UNL     1     -35.385   4.317  61.327  0.00  0.00    +0.000 OA
ATOM     16  H   UNL     1     -34.987   3.986  60.493  0.00  0.00    +0.000 HD
ENDBRANCH  14  15
ENDBRANCH   1  14
TORSDOF 5
ENDMDL
MODEL 10
REMARK VINA RESULT:    -4.752     17.979     18.588
REMARK INTER + INTRA:          -5.643
REMARK INTER:                  -5.587
REMARK INTRA:                  -0.056
REMARK UNBOUND:                -0.058
REMARK  Name = 370
REMARK  5 active torsions:
REMARK  status: ('A' for Active; 'I' for Inactive)
REMARK    1  A    between atoms: O_1  and  C_7
REMARK    2  A    between atoms: O_2  and  C_8
REMARK    3  A    between atoms: O_3  and  C_9
REMARK    4  A    between atoms: O_4  and  C_12
REMARK    5  A    between atoms: C_6  and  C_12
REMARK                            x       y       z     vdW  Elec       q    Type
REMARK                         _______ _______ _______ _____ _____    ______ ____
ROOT
ATOM      1  C   UNL     1     -24.099   3.046  46.130  0.00  0.00    +0.000 A 
ATOM      2  C   UNL     1     -25.908   3.224  44.014  0.00  0.00    +0.000 A 
ATOM      3  C   UNL     1     -25.986   2.158  44.911  0.00  0.00    +0.000 A 
ATOM      4  C   UNL     1     -24.925   4.201  44.175  0.00  0.00    +0.000 A 
ATOM      5  C   UNL     1     -25.081   2.070  45.968  0.00  0.00    +0.000 A 
ATOM      6  C   UNL     1     -24.021   4.111  45.233  0.00  0.00    +0.000 A 
ENDROOT
BRANCH   2   7
ATOM      7  O   UNL     1     -26.792   3.310  42.979  0.00  0.00    +0.000 OA
ATOM      8  H   UNL     1     -26.374   3.812  42.259  0.00  0.00    +0.000 HD
ENDBRANCH   2   7
BRANCH   3   9
ATOM      9  O   UNL     1     -26.942   1.199  44.764  0.00  0.00    +0.000 OA
ATOM     10  H   UNL     1     -27.380   1.316  43.903  0.00  0.00    +0.000 HD
ENDBRANCH   3   9
BRANCH   4  11
ATOM     11  O   UNL     1     -24.837   5.245  43.304  0.00  0.00    +0.000 OA
ATOM     12  H   UNL     1     -24.425   4.925  42.484  0.00  0.00    +0.000 HD
ENDBRANCH   4  11
BRANCH   1  14
ATOM     13  O   UNL     1     -22.665   3.911  47.838  0.00  0.00    +0.000 OA
ATOM     14  C   UNL     1     -23.155   2.953  47.233  0.00  0.00    +0.000 C 
BRANCH  14  15
ATOM     15  O   UNL     1     -22.849   1.664  47.548  0.00  0.00    +0.000 OA
ATOM     16  H   UNL     1     -22.622   1.137  46.752  0.00  0.00    +0.000 HD
ENDBRANCH  14  15
ENDBRANCH   1  14
TORSDOF 5
ENDMDL
