REMARK VINA RESULT:      -7.2      1.993      6.712
REMARK  8 active torsions:
REMARK  status: ('A' for Active; 'I' for Inactive)
REMARK    1  A    between atoms: C_2  and  O_3 
REMARK    2  A    between atoms: C_15  and  O_16 
REMARK    3  A    between atoms: C_28  and  C_29 
REMARK    4  A    between atoms: C_33  and  C_34 
REMARK    5  A    between atoms: O_3  and  C_4 
REMARK    6  A    between atoms: C_4  and  C_6 
REMARK    7  A    between atoms: O_16  and  C_17 
REMARK    8  A    between atoms: C_17  and  C_19 
ROOT
ATOM      1  O   LIG     1     180.370 176.494 170.268  0.00  0.00    -0.315 OA
ATOM      2  C   LIG     1     179.175 175.795 170.689  0.00  0.00     0.332 C 
ATOM      3  C   LIG     1     178.607 176.309 172.043  0.00  0.00     0.244 C 
ATOM      4  C   LIG     1     179.706 176.454 173.146  0.00  0.00     0.112 C 
ATOM      5  C   LIG     1     180.978 177.168 172.583  0.00  0.00     0.188 C 
ATOM      6  O   LIG     1     180.682 178.558 172.416  0.00  0.00    -0.220 OA
ATOM      7  C   LIG     1     181.461 176.611 171.207  0.00  0.00     0.182 C 
ENDROOT
BRANCH   2   8
ATOM      8  O   LIG     1     179.276 174.362 170.704  0.00  0.00    -0.418 OA
BRANCH   8   9
ATOM      9  C   LIG     1     178.664 173.485 169.851  0.00  0.00     0.343 C 
ATOM     10  O   LIG     1     179.322 173.009 168.894  0.00  0.00    -0.245 OA
BRANCH   9  11
ATOM     11  C   LIG     1     177.294 173.148 170.030  0.00  0.00     0.082 A 
ATOM     12  C   LIG     1     176.805 172.759 171.303  0.00  0.00     0.052 A 
ATOM     13  C   LIG     1     175.429 172.551 171.525  0.00  0.00     0.238 A 
ATOM     14  C   LIG     1     174.520 172.690 170.459  0.00  0.00     0.273 A 
ATOM     15  O   LIG     1     174.966 172.226 172.762  0.00  0.00    -0.283 OA
ATOM     16  O   LIG     1     173.196 172.510 170.693  0.00  0.00    -0.280 OA
ATOM     17  C   LIG     1     174.993 173.011 169.170  0.00  0.00     0.238 A 
ATOM     18  C   LIG     1     176.366 173.250 168.964  0.00  0.00     0.052 A 
ATOM     19  O   LIG     1     174.120 173.102 168.133  0.00  0.00    -0.283 OA
ENDBRANCH   9  11
ENDBRANCH   8   9
ENDBRANCH   2   8
BRANCH   3  20
ATOM     20  O   LIG     1     177.948 177.566 171.785  0.00  0.00    -0.442 OA
BRANCH  20  21
ATOM     21  C   LIG     1     176.604 177.820 171.774  0.00  0.00     0.341 C 
ATOM     22  O   LIG     1     176.187 178.476 172.754  0.00  0.00    -0.245 OA
BRANCH  21  23
ATOM     23  C   LIG     1     175.727 177.472 170.706  0.00  0.00     0.082 A 
ATOM     24  C   LIG     1     175.996 177.896 169.381  0.00  0.00     0.052 A 
ATOM     25  C   LIG     1     175.117 177.591 168.321  0.00  0.00     0.238 A 
ATOM     26  O   LIG     1     175.391 178.040 167.069  0.00  0.00    -0.283 OA
ATOM     27  C   LIG     1     173.954 176.831 168.568  0.00  0.00     0.273 A 
ATOM     28  O   LIG     1     173.087 176.512 167.570  0.00  0.00    -0.280 OA
ATOM     29  C   LIG     1     173.676 176.390 169.876  0.00  0.00     0.238 A 
ATOM     30  O   LIG     1     172.549 175.675 170.118  0.00  0.00    -0.283 OA
ATOM     31  C   LIG     1     174.564 176.695 170.928  0.00  0.00     0.052 A 
ENDBRANCH  21  23
ENDBRANCH  20  21
ENDBRANCH   3  20
BRANCH   7  32
ATOM     32  C   LIG     1     182.351 175.337 171.250  0.00  0.00     0.214 C 
ATOM     33  O   LIG     1     182.599 174.839 169.940  0.00  0.00    -0.218 OA
ENDBRANCH   7  32
BRANCH   4  34
ATOM     34  C   LIG     1     180.011 175.119 173.894  0.00  0.00     0.189 C 
ATOM     35  O   LIG     1     180.689 175.367 175.121  0.00  0.00    -0.220 OA
ENDBRANCH   4  34
TORSDOF 8
