MODEL 1
REMARK VINA RESULT:      -9.1      0.000      0.000
REMARK  Name = 5280637
REMARK                            x       y       z     vdW  Elec       q    Type
REMARK                         _______ _______ _______ _____ _____    ______ ____
ROOT
ATOM     13  C   LIG    1        4.129  44.122  21.857  0.00  0.00    +0.131 A 
ATOM     14  C   LIG    1        3.291  43.214  21.209  0.00  0.00    +0.092 A 
ATOM     15  C   LIG    1        2.669  42.194  21.931  0.00  0.00    +0.135 A 
ATOM     16  C   LIG    1        2.892  42.090  23.306  0.00  0.00    +0.105 A 
ATOM     17  C   LIG    1        2.252  41.025  24.093  0.00  0.00    +0.197 A 
ATOM     18  C   LIG    1        2.556  41.010  25.539  0.00  0.00    +0.098 A 
ATOM     19  C   LIG    1        3.374  41.944  26.048  0.00  0.00    +0.139 A 
ATOM     30  O   LIG    1        3.982  42.942  25.302  0.00  0.00    -0.454 OA
ATOM     31  O   LIG    1        1.510  40.195  23.588  0.00  0.00    -0.287 OA
ATOM     32  C   LIG    1        3.728  42.997  23.955  0.00  0.00    +0.146 A 
ATOM     35  C   LIG    1        4.349  44.015  23.231  0.00  0.00    +0.093 A 
ENDROOT
BRANCH  19  20
ATOM     20  C   LIG    1        3.721  41.974  27.484  0.00  0.00    +0.021 A 
ATOM     21  C   LIG    1        2.837  41.449  28.429  0.00  0.00    +0.015 A 
ATOM     22  C   LIG    1        3.164  41.478  29.785  0.00  0.00    +0.050 A 
ATOM     23  C   LIG    1        4.376  42.031  30.199  0.00  0.00    +0.158 A 
ATOM     24  C   LIG    1        5.260  42.556  29.257  0.00  0.00    +0.159 A 
ATOM     29  C   LIG    1        4.934  42.527  27.901  0.00  0.00    +0.060 A 
BRANCH  24  25
ATOM     25  O   LIG    1        6.448  43.097  29.650  0.00  0.00    -0.503 OA
ATOM     26  H   LIG    1        7.126  42.853  28.998  0.00  0.00    +0.292 HD
ENDBRANCH  24  25
BRANCH  23  27
ATOM     27  O   LIG    1        4.683  42.054  31.526  0.00  0.00    -0.503 OA
ATOM     28  H   LIG    1        4.688  41.143  31.866  0.00  0.00    +0.292 HD
ENDBRANCH  23  27
ENDBRANCH  19  20
BRANCH  15  33
ATOM     33  O   LIG    1        1.862  41.333  21.251  0.00  0.00    -0.506 OA
ATOM     34  H   LIG    1        1.826  40.475  21.699  0.00  0.00    +0.292 HD
ENDBRANCH  15  33
BRANCH  13  12
ATOM     12  O   LIG    1        4.734  45.116  21.146  0.00  0.00    -0.461 OA
BRANCH  12   2
ATOM      1  O   LIG    1        7.016  45.521  21.416  0.00  0.00    -0.331 OA
ATOM      2  C   LIG    1        6.038  44.835  20.639  0.00  0.00    +0.339 C 
ATOM      3  C   LIG    1        6.086  45.301  19.183  0.00  0.00    +0.214 C 
ATOM      4  C   LIG    1        7.496  45.175  18.605  0.00  0.00    +0.180 C 
ATOM      5  C   LIG    1        8.537  45.781  19.546  0.00  0.00    +0.177 C 
ATOM     36  C   LIG    1        8.349  45.260  20.972  0.00  0.00    +0.179 C 
BRANCH   5   6
ATOM      6  O   LIG    1        9.842  45.442  19.087  0.00  0.00    -0.386 OA
ATOM      7  H   LIG    1       10.248  46.244  18.717  0.00  0.00    +0.210 HD
ENDBRANCH   5   6
BRANCH   4   8
ATOM      8  O   LIG    1        7.564  45.872  17.360  0.00  0.00    -0.386 OA
ATOM      9  H   LIG    1        7.929  45.257  16.702  0.00  0.00    +0.210 HD
ENDBRANCH   4   8
BRANCH   3  10
ATOM     10  O   LIG    1        5.188  44.492  18.424  0.00  0.00    -0.383 OA
ATOM     11  H   LIG    1        4.630  43.995  19.046  0.00  0.00    +0.210 HD
ENDBRANCH   3  10
BRANCH  36  37
ATOM     37  C   LIG    1        9.301  45.940  21.951  0.00  0.00    +0.190 C 
BRANCH  37  38
ATOM     38  O   LIG    1        9.902  47.045  21.301  0.00  0.00    -0.392 OA
ATOM     39  H   LIG    1       10.081  47.723  21.976  0.00  0.00    +0.210 HD
ENDBRANCH  37  38
ENDBRANCH  36  37
ENDBRANCH  12   2
ENDBRANCH  13  12
TORSDOF 11
ENDMDL
MODEL 2
REMARK VINA RESULT:      -8.8      2.669      5.297
REMARK  Name = 5280637
REMARK                            x       y       z     vdW  Elec       q    Type
REMARK                         _______ _______ _______ _____ _____    ______ ____
ROOT
ATOM     13  C   LIG    1        3.701  43.579  22.462  0.00  0.00    +0.131 A 
ATOM     14  C   LIG    1        4.092  43.902  23.762  0.00  0.00    +0.092 A 
ATOM     15  C   LIG    1        3.759  43.060  24.824  0.00  0.00    +0.135 A 
ATOM     16  C   LIG    1        3.032  41.894  24.577  0.00  0.00    +0.105 A 
ATOM     17  C   LIG    1        2.665  40.988  25.676  0.00  0.00    +0.197 A 
ATOM     18  C   LIG    1        1.898  39.783  25.300  0.00  0.00    +0.098 A 
ATOM     19  C   LIG    1        1.585  39.578  24.011  0.00  0.00    +0.139 A 
ATOM     30  O   LIG    1        1.926  40.438  22.978  0.00  0.00    -0.454 OA
ATOM     31  O   LIG    1        2.972  41.212  26.838  0.00  0.00    -0.287 OA
ATOM     32  C   LIG    1        2.641  41.569  23.278  0.00  0.00    +0.146 A 
ATOM     35  C   LIG    1        2.974  42.412  22.219  0.00  0.00    +0.093 A 
ENDROOT
BRANCH  19  20
ATOM     20  C   LIG    1        0.812  38.396  23.577  0.00  0.00    +0.021 A 
ATOM     21  C   LIG    1       -0.493  38.205  24.035  0.00  0.00    +0.015 A 
ATOM     22  C   LIG    1       -1.222  37.088  23.627  0.00  0.00    +0.050 A 
ATOM     23  C   LIG    1       -0.647  36.159  22.758  0.00  0.00    +0.158 A 
ATOM     24  C   LIG    1        0.657  36.347  22.300  0.00  0.00    +0.159 A 
ATOM     29  C   LIG    1        1.386  37.464  22.709  0.00  0.00    +0.060 A 
BRANCH  24  25
ATOM     25  O   LIG    1        1.227  35.447  21.450  0.00  0.00    -0.503 OA
ATOM     26  H   LIG    1        0.911  34.559  21.688  0.00  0.00    +0.292 HD
ENDBRANCH  24  25
BRANCH  23  27
ATOM     27  O   LIG    1       -1.369  35.072  22.368  0.00  0.00    -0.503 OA
ATOM     28  H   LIG    1       -1.134  34.316  22.933  0.00  0.00    +0.292 HD
ENDBRANCH  23  27
ENDBRANCH  19  20
BRANCH  15  33
ATOM     33  O   LIG    1        4.164  43.421  26.074  0.00  0.00    -0.506 OA
ATOM     34  H   LIG    1        4.332  42.636  26.616  0.00  0.00    +0.292 HD
ENDBRANCH  15  33
BRANCH  13  12
ATOM     12  O   LIG    1        4.028  44.405  21.427  0.00  0.00    -0.461 OA
BRANCH  12   2
ATOM      1  O   LIG    1        6.253  45.068  21.192  0.00  0.00    -0.331 OA
ATOM      2  C   LIG    1        5.262  44.137  20.763  0.00  0.00    +0.339 C 
ATOM      3  C   LIG    1        5.023  44.265  19.258  0.00  0.00    +0.214 C 
ATOM      4  C   LIG    1        6.331  44.141  18.475  0.00  0.00    +0.180 C 
ATOM      5  C   LIG    1        7.418  45.038  19.067  0.00  0.00    +0.177 C 
ATOM     36  C   LIG    1        7.523  44.838  20.580  0.00  0.00    +0.179 C 
BRANCH   5   6
ATOM      6  O   LIG    1        8.669  44.725  18.462  0.00  0.00    -0.386 OA
ATOM      7  H   LIG    1        9.277  45.466  18.628  0.00  0.00    +0.210 HD
ENDBRANCH   5   6
BRANCH   4   8
ATOM      8  O   LIG    1        6.114  44.542  17.121  0.00  0.00    -0.386 OA
ATOM      9  H   LIG    1        6.791  44.105  16.577  0.00  0.00    +0.210 HD
ENDBRANCH   4   8
BRANCH   3  10
ATOM     10  O   LIG    1        4.131  43.226  18.857  0.00  0.00    -0.383 OA
ATOM     11  H   LIG    1        3.529  43.042  19.598  0.00  0.00    +0.210 HD
ENDBRANCH   3  10
BRANCH  36  37
ATOM     37  C   LIG    1        8.519  45.807  21.210  0.00  0.00    +0.190 C 
BRANCH  37  38
ATOM     38  O   LIG    1        8.760  46.862  20.297  0.00  0.00    -0.392 OA
ATOM     39  H   LIG    1        9.677  47.159  20.424  0.00  0.00    +0.210 HD
ENDBRANCH  37  38
ENDBRANCH  36  37
ENDBRANCH  12   2
ENDBRANCH  13  12
TORSDOF 11
ENDMDL
MODEL 3
REMARK VINA RESULT:      -8.8      2.071      3.024
REMARK  Name = 5280637
REMARK                            x       y       z     vdW  Elec       q    Type
REMARK                         _______ _______ _______ _____ _____    ______ ____
ROOT
ATOM     13  C   LIG    1        6.133  44.235  20.652  0.00  0.00    +0.131 A 
ATOM     14  C   LIG    1        5.276  43.930  19.594  0.00  0.00    +0.092 A 
ATOM     15  C   LIG    1        4.112  43.196  19.823  0.00  0.00    +0.135 A 
ATOM     16  C   LIG    1        3.811  42.768  21.118  0.00  0.00    +0.105 A 
ATOM     17  C   LIG    1        2.592  41.992  21.391  0.00  0.00    +0.197 A 
ATOM     18  C   LIG    1        2.373  41.594  22.797  0.00  0.00    +0.098 A 
ATOM     19  C   LIG    1        3.269  41.954  23.729  0.00  0.00    +0.139 A 
ATOM     30  O   LIG    1        4.421  42.679  23.468  0.00  0.00    -0.454 OA
ATOM     31  O   LIG    1        1.801  41.687  20.510  0.00  0.00    -0.287 OA
ATOM     32  C   LIG    1        4.666  43.073  22.177  0.00  0.00    +0.146 A 
ATOM     35  C   LIG    1        5.829  43.806  21.945  0.00  0.00    +0.093 A 
ENDROOT
BRANCH  19  20
ATOM     20  C   LIG    1        3.106  41.577  25.149  0.00  0.00    +0.021 A 
ATOM     21  C   LIG    1        2.340  40.462  25.495  0.00  0.00    +0.015 A 
ATOM     22  C   LIG    1        2.185  40.107  26.835  0.00  0.00    +0.050 A 
ATOM     23  C   LIG    1        2.797  40.866  27.833  0.00  0.00    +0.158 A 
ATOM     24  C   LIG    1        3.562  41.981  27.490  0.00  0.00    +0.159 A 
ATOM     29  C   LIG    1        3.717  42.336  26.149  0.00  0.00    +0.060 A 
BRANCH  24  25
ATOM     25  O   LIG    1        4.166  42.728  28.456  0.00  0.00    -0.503 OA
ATOM     26  H   LIG    1        4.095  42.252  29.301  0.00  0.00    +0.292 HD
ENDBRANCH  24  25
BRANCH  23  27
ATOM     27  O   LIG    1        2.638  40.510  29.138  0.00  0.00    -0.503 OA
ATOM     28  H   LIG    1        2.122  41.198  29.593  0.00  0.00    +0.292 HD
ENDBRANCH  23  27
ENDBRANCH  19  20
BRANCH  15  33
ATOM     33  O   LIG    1        3.310  42.924  18.757  0.00  0.00    -0.506 OA
ATOM     34  H   LIG    1        3.718  43.235  17.935  0.00  0.00    +0.292 HD
ENDBRANCH  15  33
BRANCH  13  12
ATOM     12  O   LIG    1        7.270  44.952  20.422  0.00  0.00    -0.461 OA
BRANCH  12   2
ATOM      1  O   LIG    1        9.259  43.788  20.783  0.00  0.00    -0.331 OA
ATOM      2  C   LIG    1        8.347  44.258  19.794  0.00  0.00    +0.339 C 
ATOM      3  C   LIG    1        9.043  45.232  18.843  0.00  0.00    +0.214 C 
ATOM      4  C   LIG    1       10.304  44.614  18.239  0.00  0.00    +0.180 C 
ATOM      5  C   LIG    1       11.180  43.977  19.317  0.00  0.00    +0.177 C 
ATOM     36  C   LIG    1       10.352  43.059  20.219  0.00  0.00    +0.179 C 
BRANCH   5   6
ATOM      6  O   LIG    1       12.216  43.219  18.697  0.00  0.00    -0.386 OA
ATOM      7  H   LIG    1       13.006  43.274  19.261  0.00  0.00    +0.210 HD
ENDBRANCH   5   6
BRANCH   4   8
ATOM      8  O   LIG    1       11.069  45.631  17.590  0.00  0.00    -0.386 OA
ATOM      9  H   LIG    1       10.840  46.479  18.011  0.00  0.00    +0.210 HD
ENDBRANCH   4   8
BRANCH   3  10
ATOM     10  O   LIG    1        8.131  45.566  17.797  0.00  0.00    -0.383 OA
ATOM     11  H   LIG    1        8.229  44.905  17.090  0.00  0.00    +0.210 HD
ENDBRANCH   3  10
BRANCH  36  37
ATOM     37  C   LIG    1       11.180  42.505  21.374  0.00  0.00    +0.190 C 
BRANCH  37  38
ATOM     38  O   LIG    1       11.938  41.408  20.898  0.00  0.00    -0.392 OA
ATOM     39  H   LIG    1       12.296  40.939  21.671  0.00  0.00    +0.210 HD
ENDBRANCH  37  38
ENDBRANCH  36  37
ENDBRANCH  12   2
ENDBRANCH  13  12
TORSDOF 11
ENDMDL
MODEL 4
REMARK VINA RESULT:      -8.7      1.799      8.291
REMARK  Name = 5280637
REMARK                            x       y       z     vdW  Elec       q    Type
REMARK                         _______ _______ _______ _____ _____    ______ ____
ROOT
ATOM     13  C   LIG    1        3.800  40.842  25.407  0.00  0.00    +0.131 A 
ATOM     14  C   LIG    1        2.675  40.217  24.870  0.00  0.00    +0.092 A 
ATOM     15  C   LIG    1        2.224  40.558  23.594  0.00  0.00    +0.135 A 
ATOM     16  C   LIG    1        2.908  41.530  22.859  0.00  0.00    +0.105 A 
ATOM     17  C   LIG    1        2.457  41.912  21.513  0.00  0.00    +0.197 A 
ATOM     18  C   LIG    1        3.256  42.948  20.827  0.00  0.00    +0.098 A 
ATOM     19  C   LIG    1        4.325  43.472  21.446  0.00  0.00    +0.139 A 
ATOM     30  O   LIG    1        4.743  43.115  22.719  0.00  0.00    -0.454 OA
ATOM     31  O   LIG    1        1.477  41.406  20.984  0.00  0.00    -0.287 OA
ATOM     32  C   LIG    1        4.034  42.155  23.395  0.00  0.00    +0.146 A 
ATOM     35  C   LIG    1        4.481  41.812  24.671  0.00  0.00    +0.093 A 
ENDROOT
BRANCH  19  20
ATOM     20  C   LIG    1        5.156  44.517  20.813  0.00  0.00    +0.021 A 
ATOM     21  C   LIG    1        6.330  44.168  20.143  0.00  0.00    +0.015 A 
ATOM     22  C   LIG    1        7.115  45.154  19.546  0.00  0.00    +0.050 A 
ATOM     23  C   LIG    1        6.726  46.492  19.616  0.00  0.00    +0.158 A 
ATOM     24  C   LIG    1        5.554  46.843  20.285  0.00  0.00    +0.159 A 
ATOM     29  C   LIG    1        4.769  45.857  20.882  0.00  0.00    +0.060 A 
BRANCH  24  25
ATOM     25  O   LIG    1        5.164  48.147  20.358  0.00  0.00    -0.503 OA
ATOM     26  H   LIG    1        4.324  48.189  20.846  0.00  0.00    +0.292 HD
ENDBRANCH  24  25
BRANCH  23  27
ATOM     27  O   LIG    1        7.502  47.447  19.030  0.00  0.00    -0.503 OA
ATOM     28  H   LIG    1        7.040  47.794  18.247  0.00  0.00    +0.292 HD
ENDBRANCH  23  27
ENDBRANCH  19  20
BRANCH  15  33
ATOM     33  O   LIG    1        1.121  39.919  23.115  0.00  0.00    -0.506 OA
ATOM     34  H   LIG    1        0.408  40.553  22.945  0.00  0.00    +0.292 HD
ENDBRANCH  15  33
BRANCH  13  12
ATOM     12  O   LIG    1        4.236  40.505  26.655  0.00  0.00    -0.461 OA
BRANCH  12   2
ATOM      1  O   LIG    1        6.264  41.265  27.522  0.00  0.00    -0.331 OA
ATOM      2  C   LIG    1        4.869  41.537  27.410  0.00  0.00    +0.339 C 
ATOM      3  C   LIG    1        4.218  41.574  28.793  0.00  0.00    +0.214 C 
ATOM      4  C   LIG    1        4.939  42.553  29.721  0.00  0.00    +0.180 C 
ATOM      5  C   LIG    1        6.451  42.334  29.689  0.00  0.00    +0.177 C 
ATOM     36  C   LIG    1        6.963  42.278  28.248  0.00  0.00    +0.179 C 
BRANCH   5   6
ATOM      6  O   LIG    1        7.097  43.401  30.378  0.00  0.00    -0.386 OA
ATOM      7  H   LIG    1        7.392  43.066  31.242  0.00  0.00    +0.210 HD
ENDBRANCH   5   6
BRANCH   4   8
ATOM      8  O   LIG    1        4.490  42.355  31.062  0.00  0.00    -0.386 OA
ATOM      9  H   LIG    1        3.535  42.539  31.079  0.00  0.00    +0.210 HD
ENDBRANCH   4   8
BRANCH   3  10
ATOM     10  O   LIG    1        2.859  41.983  28.637  0.00  0.00    -0.383 OA
ATOM     11  H   LIG    1        2.723  42.786  29.168  0.00  0.00    +0.210 HD
ENDBRANCH   3  10
BRANCH  36  37
ATOM     37  C   LIG    1        8.450  41.943  28.190  0.00  0.00    +0.190 C 
BRANCH  37  38
ATOM     38  O   LIG    1        9.187  43.146  28.300  0.00  0.00    -0.392 OA
ATOM     39  H   LIG    1        8.715  43.830  27.794  0.00  0.00    +0.210 HD
ENDBRANCH  37  38
ENDBRANCH  36  37
ENDBRANCH  12   2
ENDBRANCH  13  12
TORSDOF 11
ENDMDL
MODEL 5
REMARK VINA RESULT:      -8.5      1.526      2.135
REMARK  Name = 5280637
REMARK                            x       y       z     vdW  Elec       q    Type
REMARK                         _______ _______ _______ _____ _____    ______ ____
ROOT
ATOM     13  C   LIG    1        6.005  42.123  21.880  0.00  0.00    +0.131 A 
ATOM     14  C   LIG    1        4.856  41.708  21.206  0.00  0.00    +0.092 A 
ATOM     15  C   LIG    1        3.706  41.373  21.921  0.00  0.00    +0.135 A 
ATOM     16  C   LIG    1        3.713  41.455  23.315  0.00  0.00    +0.105 A 
ATOM     17  C   LIG    1        2.517  41.107  24.097  0.00  0.00    +0.197 A 
ATOM     18  C   LIG    1        2.636  41.233  25.564  0.00  0.00    +0.098 A 
ATOM     19  C   LIG    1        3.795  41.650  26.096  0.00  0.00    +0.139 A 
ATOM     30  O   LIG    1        4.924  41.970  25.357  0.00  0.00    -0.454 OA
ATOM     31  O   LIG    1        1.478  40.733  23.570  0.00  0.00    -0.287 OA
ATOM     32  C   LIG    1        4.860  41.871  23.990  0.00  0.00    +0.146 A 
ATOM     35  C   LIG    1        6.009  42.204  23.273  0.00  0.00    +0.093 A 
ENDROOT
BRANCH  19  20
ATOM     20  C   LIG    1        3.975  41.786  27.556  0.00  0.00    +0.021 A 
ATOM     21  C   LIG    1        2.988  41.327  28.430  0.00  0.00    +0.015 A 
ATOM     22  C   LIG    1        3.157  41.457  29.808  0.00  0.00    +0.050 A 
ATOM     23  C   LIG    1        4.315  42.046  30.316  0.00  0.00    +0.158 A 
ATOM     24  C   LIG    1        5.303  42.507  29.445  0.00  0.00    +0.159 A 
ATOM     29  C   LIG    1        5.133  42.377  28.067  0.00  0.00    +0.060 A 
BRANCH  24  25
ATOM     25  O   LIG    1        6.438  43.082  29.931  0.00  0.00    -0.503 OA
ATOM     26  H   LIG    1        6.192  43.896  30.401  0.00  0.00    +0.292 HD
ENDBRANCH  24  25
BRANCH  23  27
ATOM     27  O   LIG    1        4.468  42.168  31.664  0.00  0.00    -0.503 OA
ATOM     28  H   LIG    1        3.606  42.036  32.095  0.00  0.00    +0.292 HD
ENDBRANCH  23  27
ENDBRANCH  19  20
BRANCH  15  33
ATOM     33  O   LIG    1        2.611  40.973  21.216  0.00  0.00    -0.506 OA
ATOM     34  H   LIG    1        2.706  40.051  20.934  0.00  0.00    +0.292 HD
ENDBRANCH  15  33
BRANCH  13  12
ATOM     12  O   LIG    1        7.127  42.449  21.176  0.00  0.00    -0.461 OA
BRANCH  12   2
ATOM      1  O   LIG    1        6.268  44.567  20.708  0.00  0.00    -0.331 OA
ATOM      2  C   LIG    1        7.436  43.838  21.076  0.00  0.00    +0.339 C 
ATOM      3  C   LIG    1        8.526  44.002  20.016  0.00  0.00    +0.214 C 
ATOM      4  C   LIG    1        8.812  45.478  19.736  0.00  0.00    +0.180 C 
ATOM      5  C   LIG    1        7.519  46.258  19.504  0.00  0.00    +0.177 C 
ATOM     36  C   LIG    1        6.505  45.973  20.614  0.00  0.00    +0.179 C 
BRANCH   5   6
ATOM      6  O   LIG    1        7.808  47.653  19.477  0.00  0.00    -0.386 OA
ATOM      7  H   LIG    1        6.964  48.136  19.507  0.00  0.00    +0.210 HD
ENDBRANCH   5   6
BRANCH   4   8
ATOM      8  O   LIG    1        9.615  45.591  18.560  0.00  0.00    -0.386 OA
ATOM      9  H   LIG    1        9.209  45.031  17.876  0.00  0.00    +0.210 HD
ENDBRANCH   4   8
BRANCH   3  10
ATOM     10  O   LIG    1        9.714  43.371  20.494  0.00  0.00    -0.383 OA
ATOM     11  H   LIG    1        9.471  42.498  20.847  0.00  0.00    +0.210 HD
ENDBRANCH   3  10
BRANCH  36  37
ATOM     37  C   LIG    1        5.165  46.648  20.342  0.00  0.00    +0.190 C 
BRANCH  37  38
ATOM     38  O   LIG    1        5.285  48.026  20.647  0.00  0.00    -0.392 OA
ATOM     39  H   LIG    1        6.061  48.135  21.223  0.00  0.00    +0.210 HD
ENDBRANCH  37  38
ENDBRANCH  36  37
ENDBRANCH  12   2
ENDBRANCH  13  12
TORSDOF 11
ENDMDL
MODEL 6
REMARK VINA RESULT:      -8.4      2.209      9.591
REMARK  Name = 5280637
REMARK                            x       y       z     vdW  Elec       q    Type
REMARK                         _______ _______ _______ _____ _____    ______ ____
ROOT
ATOM     13  C   LIG    1        3.394  41.912  26.061  0.00  0.00    +0.131 A 
ATOM     14  C   LIG    1        2.463  41.006  25.554  0.00  0.00    +0.092 A 
ATOM     15  C   LIG    1        2.206  40.957  24.184  0.00  0.00    +0.135 A 
ATOM     16  C   LIG    1        2.887  41.822  23.324  0.00  0.00    +0.105 A 
ATOM     17  C   LIG    1        2.637  41.795  21.875  0.00  0.00    +0.197 A 
ATOM     18  C   LIG    1        3.415  42.751  21.060  0.00  0.00    +0.098 A 
ATOM     19  C   LIG    1        4.288  43.572  21.665  0.00  0.00    +0.139 A 
ATOM     30  O   LIG    1        4.516  43.600  23.032  0.00  0.00    -0.454 OA
ATOM     31  O   LIG    1        1.832  41.028  21.365  0.00  0.00    -0.287 OA
ATOM     32  C   LIG    1        3.819  42.728  23.829  0.00  0.00    +0.146 A 
ATOM     35  C   LIG    1        4.073  42.775  25.199  0.00  0.00    +0.093 A 
ENDROOT
BRANCH  19  20
ATOM     20  C   LIG    1        5.087  44.554  20.903  0.00  0.00    +0.021 A 
ATOM     21  C   LIG    1        6.165  44.128  20.125  0.00  0.00    +0.015 A 
ATOM     22  C   LIG    1        6.920  45.056  19.407  0.00  0.00    +0.050 A 
ATOM     23  C   LIG    1        6.597  46.412  19.464  0.00  0.00    +0.158 A 
ATOM     24  C   LIG    1        5.520  46.840  20.241  0.00  0.00    +0.159 A 
ATOM     29  C   LIG    1        4.766  45.912  20.959  0.00  0.00    +0.060 A 
BRANCH  24  25
ATOM     25  O   LIG    1        5.195  48.162  20.302  0.00  0.00    -0.503 OA
ATOM     26  H   LIG    1        5.799  48.596  20.928  0.00  0.00    +0.292 HD
ENDBRANCH  24  25
BRANCH  23  27
ATOM     27  O   LIG    1        7.342  47.308  18.759  0.00  0.00    -0.503 OA
ATOM     28  H   LIG    1        7.187  47.171  17.808  0.00  0.00    +0.292 HD
ENDBRANCH  23  27
ENDBRANCH  19  20
BRANCH  15  33
ATOM     33  O   LIG    1        1.287  40.055  23.739  0.00  0.00    -0.506 OA
ATOM     34  H   LIG    1        1.049  40.238  22.817  0.00  0.00    +0.292 HD
ENDBRANCH  15  33
BRANCH  13  12
ATOM     12  O   LIG    1        3.641  41.957  27.402  0.00  0.00    -0.461 OA
BRANCH  12   2
ATOM      1  O   LIG    1        2.213  41.596  29.211  0.00  0.00    -0.331 OA
ATOM      2  C   LIG    1        2.998  40.966  28.202  0.00  0.00    +0.339 C 
ATOM      3  C   LIG    1        4.084  40.095  28.835  0.00  0.00    +0.214 C 
ATOM      4  C   LIG    1        3.488  39.098  29.830  0.00  0.00    +0.180 C 
ATOM      5  C   LIG    1        2.525  39.789  30.796  0.00  0.00    +0.177 C 
ATOM     36  C   LIG    1        1.520  40.656  30.034  0.00  0.00    +0.179 C 
BRANCH   5   6
ATOM      6  O   LIG    1        1.823  38.803  31.548  0.00  0.00    -0.386 OA
ATOM      7  H   LIG    1        1.756  38.001  31.002  0.00  0.00    +0.210 HD
ENDBRANCH   5   6
BRANCH   4   8
ATOM      8  O   LIG    1        4.538  38.508  30.598  0.00  0.00    -0.386 OA
ATOM      9  H   LIG    1        4.951  39.218  31.118  0.00  0.00    +0.210 HD
ENDBRANCH   4   8
BRANCH   3  10
ATOM     10  O   LIG    1        4.750  39.382  27.793  0.00  0.00    -0.383 OA
ATOM     11  H   LIG    1        5.076  40.031  27.145  0.00  0.00    +0.210 HD
ENDBRANCH   3  10
BRANCH  36  37
ATOM     37  C   LIG    1        0.624  41.447  30.983  0.00  0.00    +0.190 C 
BRANCH  37  38
ATOM     38  O   LIG    1       -0.414  40.597  31.435  0.00  0.00    -0.392 OA
ATOM     39  H   LIG    1       -1.120  41.160  31.797  0.00  0.00    +0.210 HD
ENDBRANCH  37  38
ENDBRANCH  36  37
ENDBRANCH  12   2
ENDBRANCH  13  12
TORSDOF 11
ENDMDL
MODEL 7
REMARK VINA RESULT:      -8.3      3.179      6.520
REMARK  Name = 5280637
REMARK                            x       y       z     vdW  Elec       q    Type
REMARK                         _______ _______ _______ _____ _____    ______ ____
ROOT
ATOM     13  C   LIG    1        9.393  44.440  19.907  0.00  0.00    +0.131 A 
ATOM     14  C   LIG    1        9.150  45.772  19.571  0.00  0.00    +0.092 A 
ATOM     15  C   LIG    1        7.885  46.326  19.772  0.00  0.00    +0.135 A 
ATOM     16  C   LIG    1        6.866  45.538  20.312  0.00  0.00    +0.105 A 
ATOM     17  C   LIG    1        5.522  46.093  20.534  0.00  0.00    +0.197 A 
ATOM     18  C   LIG    1        4.522  45.171  21.111  0.00  0.00    +0.098 A 
ATOM     19  C   LIG    1        4.880  43.910  21.399  0.00  0.00    +0.139 A 
ATOM     30  O   LIG    1        6.145  43.387  21.181  0.00  0.00    -0.454 OA
ATOM     31  O   LIG    1        5.240  47.251  20.258  0.00  0.00    -0.287 OA
ATOM     32  C   LIG    1        7.108  44.207  20.648  0.00  0.00    +0.146 A 
ATOM     35  C   LIG    1        8.373  43.655  20.446  0.00  0.00    +0.093 A 
ENDROOT
BRANCH  19  20
ATOM     20  C   LIG    1        3.920  42.942  21.969  0.00  0.00    +0.021 A 
ATOM     21  C   LIG    1        3.120  42.168  21.125  0.00  0.00    +0.015 A 
ATOM     22  C   LIG    1        2.214  41.255  21.664  0.00  0.00    +0.050 A 
ATOM     23  C   LIG    1        2.106  41.112  23.048  0.00  0.00    +0.158 A 
ATOM     24  C   LIG    1        2.903  41.885  23.892  0.00  0.00    +0.159 A 
ATOM     29  C   LIG    1        3.810  42.798  23.354  0.00  0.00    +0.060 A 
BRANCH  24  25
ATOM     25  O   LIG    1        2.807  41.752  25.245  0.00  0.00    -0.503 OA
ATOM     26  H   LIG    1        2.016  42.232  25.544  0.00  0.00    +0.292 HD
ENDBRANCH  24  25
BRANCH  23  27
ATOM     27  O   LIG    1        1.216  40.218  23.561  0.00  0.00    -0.503 OA
ATOM     28  H   LIG    1        0.648  40.671  24.207  0.00  0.00    +0.292 HD
ENDBRANCH  23  27
ENDBRANCH  19  20
BRANCH  15  33
ATOM     33  O   LIG    1        7.698  47.630  19.427  0.00  0.00    -0.506 OA
ATOM     34  H   LIG    1        7.075  48.057  20.034  0.00  0.00    +0.292 HD
ENDBRANCH  15  33
BRANCH  13  12
ATOM     12  O   LIG    1       10.631  43.903  19.708  0.00  0.00    -0.461 OA
BRANCH  12   2
ATOM      1  O   LIG    1       11.537  44.340  21.813  0.00  0.00    -0.331 OA
ATOM      2  C   LIG    1       11.268  43.327  20.848  0.00  0.00    +0.339 C 
ATOM      3  C   LIG    1       12.569  42.674  20.379  0.00  0.00    +0.214 C 
ATOM      4  C   LIG    1       13.391  42.161  21.562  0.00  0.00    +0.180 C 
ATOM      5  C   LIG    1       13.521  43.227  22.650  0.00  0.00    +0.177 C 
ATOM     36  C   LIG    1       12.153  43.822  22.994  0.00  0.00    +0.179 C 
BRANCH   5   6
ATOM      6  O   LIG    1       14.087  42.642  23.819  0.00  0.00    -0.386 OA
ATOM      7  H   LIG    1       13.364  42.456  24.442  0.00  0.00    +0.210 HD
ENDBRANCH   5   6
BRANCH   4   8
ATOM      8  O   LIG    1       14.705  41.821  21.116  0.00  0.00    -0.386 OA
ATOM      9  H   LIG    1       15.051  41.144  21.724  0.00  0.00    +0.210 HD
ENDBRANCH   4   8
BRANCH   3  10
ATOM     10  O   LIG    1       12.239  41.581  19.523  0.00  0.00    -0.383 OA
ATOM     11  H   LIG    1       12.524  40.760  19.959  0.00  0.00    +0.210 HD
ENDBRANCH   3  10
BRANCH  36  37
ATOM     37  C   LIG    1       12.272  44.970  23.992  0.00  0.00    +0.190 C 
BRANCH  37  38
ATOM     38  O   LIG    1       13.600  45.460  23.958  0.00  0.00    -0.392 OA
ATOM     39  H   LIG    1       14.083  45.055  24.699  0.00  0.00    +0.210 HD
ENDBRANCH  37  38
ENDBRANCH  36  37
ENDBRANCH  12   2
ENDBRANCH  13  12
TORSDOF 11
ENDMDL
MODEL 8
REMARK VINA RESULT:      -8.0      5.318      8.621
REMARK  Name = 5280637
REMARK                            x       y       z     vdW  Elec       q    Type
REMARK                         _______ _______ _______ _____ _____    ______ ____
ROOT
ATOM     13  C   LIG    1        9.725  44.466  18.530  0.00  0.00    +0.131 A 
ATOM     14  C   LIG    1       10.840  44.965  17.858  0.00  0.00    +0.092 A 
ATOM     15  C   LIG    1       12.117  44.501  18.177  0.00  0.00    +0.135 A 
ATOM     16  C   LIG    1       12.269  43.534  19.173  0.00  0.00    +0.105 A 
ATOM     17  C   LIG    1       13.602  43.027  19.532  0.00  0.00    +0.197 A 
ATOM     18  C   LIG    1       13.645  42.005  20.598  0.00  0.00    +0.098 A 
ATOM     19  C   LIG    1       12.500  41.599  21.167  0.00  0.00    +0.139 A 
ATOM     30  O   LIG    1       11.245  42.085  20.832  0.00  0.00    -0.454 OA
ATOM     31  O   LIG    1       14.622  43.423  18.986  0.00  0.00    -0.287 OA
ATOM     32  C   LIG    1       11.155  43.034  19.845  0.00  0.00    +0.146 A 
ATOM     35  C   LIG    1        9.880  43.500  19.525  0.00  0.00    +0.093 A 
ENDROOT
BRANCH  19  20
ATOM     20  C   LIG    1       12.483  40.586  22.244  0.00  0.00    +0.021 A 
ATOM     21  C   LIG    1       13.678  40.165  22.828  0.00  0.00    +0.015 A 
ATOM     22  C   LIG    1       13.662  39.208  23.843  0.00  0.00    +0.050 A 
ATOM     23  C   LIG    1       12.450  38.671  24.277  0.00  0.00    +0.158 A 
ATOM     24  C   LIG    1       11.254  39.090  23.694  0.00  0.00    +0.159 A 
ATOM     29  C   LIG    1       11.270  40.047  22.679  0.00  0.00    +0.060 A 
BRANCH  24  25
ATOM     25  O   LIG    1       10.064  38.574  24.111  0.00  0.00    -0.503 OA
ATOM     26  H   LIG    1        9.387  39.269  24.041  0.00  0.00    +0.292 HD
ENDBRANCH  24  25
BRANCH  23  27
ATOM     27  O   LIG    1       12.448  37.737  25.268  0.00  0.00    -0.503 OA
ATOM     28  H   LIG    1       12.207  38.166  26.107  0.00  0.00    +0.292 HD
ENDBRANCH  23  27
ENDBRANCH  19  20
BRANCH  15  33
ATOM     33  O   LIG    1       13.174  45.020  17.492  0.00  0.00    -0.506 OA
ATOM     34  H   LIG    1       12.866  45.565  16.752  0.00  0.00    +0.292 HD
ENDBRANCH  15  33
BRANCH  13  12
ATOM     12  O   LIG    1        8.479  44.924  18.215  0.00  0.00    -0.461 OA
BRANCH  12   2
ATOM      1  O   LIG    1        6.415  44.220  19.045  0.00  0.00    -0.331 OA
ATOM      2  C   LIG    1        7.551  45.044  19.293  0.00  0.00    +0.339 C 
ATOM      3  C   LIG    1        7.137  46.512  19.394  0.00  0.00    +0.214 C 
ATOM      4  C   LIG    1        6.028  46.706  20.430  0.00  0.00    +0.180 C 
ATOM      5  C   LIG    1        4.899  45.696  20.228  0.00  0.00    +0.177 C 
ATOM     36  C   LIG    1        5.456  44.276  20.103  0.00  0.00    +0.179 C 
BRANCH   5   6
ATOM      6  O   LIG    1        4.008  45.757  21.338  0.00  0.00    -0.386 OA
ATOM      7  H   LIG    1        4.371  45.197  22.045  0.00  0.00    +0.210 HD
ENDBRANCH   5   6
BRANCH   4   8
ATOM      8  O   LIG    1        5.478  48.018  20.296  0.00  0.00    -0.386 OA
ATOM      9  H   LIG    1        5.705  48.511  21.104  0.00  0.00    +0.210 HD
ENDBRANCH   4   8
BRANCH   3  10
ATOM     10  O   LIG    1        8.281  47.275  19.777  0.00  0.00    -0.383 OA
ATOM     11  H   LIG    1        8.749  46.787  20.476  0.00  0.00    +0.210 HD
ENDBRANCH   3  10
BRANCH  36  37
ATOM     37  C   LIG    1        4.359  43.265  19.784  0.00  0.00    +0.190 C 
BRANCH  37  38
ATOM     38  O   LIG    1        3.711  42.908  20.991  0.00  0.00    -0.392 OA
ATOM     39  H   LIG    1        3.467  41.968  20.928  0.00  0.00    +0.210 HD
ENDBRANCH  37  38
ENDBRANCH  36  37
ENDBRANCH  12   2
ENDBRANCH  13  12
TORSDOF 11
ENDMDL
MODEL 9
REMARK VINA RESULT:      -7.7      3.988     10.176
REMARK  Name = 5280637
REMARK                            x       y       z     vdW  Elec       q    Type
REMARK                         _______ _______ _______ _____ _____    ______ ____
ROOT
ATOM     13  C   LIG    1        1.451  38.077  22.789  0.00  0.00    +0.131 A 
ATOM     14  C   LIG    1        1.381  38.220  24.175  0.00  0.00    +0.092 A 
ATOM     15  C   LIG    1        1.855  39.383  24.784  0.00  0.00    +0.135 A 
ATOM     16  C   LIG    1        2.399  40.401  23.997  0.00  0.00    +0.105 A 
ATOM     17  C   LIG    1        2.908  41.637  24.610  0.00  0.00    +0.197 A 
ATOM     18  C   LIG    1        3.460  42.646  23.683  0.00  0.00    +0.098 A 
ATOM     19  C   LIG    1        3.467  42.394  22.365  0.00  0.00    +0.139 A 
ATOM     30  O   LIG    1        2.994  41.224  21.790  0.00  0.00    -0.454 OA
ATOM     31  O   LIG    1        2.880  41.826  25.818  0.00  0.00    -0.287 OA
ATOM     32  C   LIG    1        2.469  40.258  22.612  0.00  0.00    +0.146 A 
ATOM     35  C   LIG    1        1.996  39.095  22.005  0.00  0.00    +0.093 A 
ENDROOT
BRANCH  19  20
ATOM     20  C   LIG    1        4.013  43.362  21.392  0.00  0.00    +0.021 A 
ATOM     21  C   LIG    1        4.338  42.948  20.098  0.00  0.00    +0.015 A 
ATOM     22  C   LIG    1        4.856  43.862  19.180  0.00  0.00    +0.050 A 
ATOM     23  C   LIG    1        5.049  45.192  19.553  0.00  0.00    +0.158 A 
ATOM     24  C   LIG    1        4.726  45.608  20.845  0.00  0.00    +0.159 A 
ATOM     29  C   LIG    1        4.209  44.694  21.763  0.00  0.00    +0.060 A 
BRANCH  24  25
ATOM     25  O   LIG    1        4.909  46.905  21.219  0.00  0.00    -0.503 OA
ATOM     26  H   LIG    1        5.272  47.394  20.461  0.00  0.00    +0.292 HD
ENDBRANCH  24  25
BRANCH  23  27
ATOM     27  O   LIG    1        5.556  46.074  18.648  0.00  0.00    -0.503 OA
ATOM     28  H   LIG    1        5.006  46.877  18.645  0.00  0.00    +0.292 HD
ENDBRANCH  23  27
ENDBRANCH  19  20
BRANCH  15  33
ATOM     33  O   LIG    1        1.765  39.474  26.140  0.00  0.00    -0.506 OA
ATOM     34  H   LIG    1        1.008  38.965  26.466  0.00  0.00    +0.292 HD
ENDBRANCH  15  33
BRANCH  13  12
ATOM     12  O   LIG    1        0.987  36.938  22.198  0.00  0.00    -0.461 OA
BRANCH  12   2
ATOM      1  O   LIG    1       -0.981  37.596  23.264  0.00  0.00    -0.331 OA
ATOM      2  C   LIG    1       -0.397  36.644  22.379  0.00  0.00    +0.339 C 
ATOM      3  C   LIG    1       -0.506  35.234  22.961  0.00  0.00    +0.214 C 
ATOM      4  C   LIG    1       -1.951  34.894  23.328  0.00  0.00    +0.180 C 
ATOM      5  C   LIG    1       -2.594  36.015  24.143  0.00  0.00    +0.177 C 
ATOM     36  C   LIG    1       -2.377  37.371  23.468  0.00  0.00    +0.179 C 
BRANCH   5   6
ATOM      6  O   LIG    1       -3.992  35.768  24.265  0.00  0.00    -0.386 OA
ATOM      7  H   LIG    1       -4.158  34.847  23.998  0.00  0.00    +0.210 HD
ENDBRANCH   5   6
BRANCH   4   8
ATOM      8  O   LIG    1       -1.973  33.703  24.117  0.00  0.00    -0.386 OA
ATOM      9  H   LIG    1       -2.766  33.743  24.680  0.00  0.00    +0.210 HD
ENDBRANCH   4   8
BRANCH   3  10
ATOM     10  O   LIG    1       -0.034  34.308  21.983  0.00  0.00    -0.383 OA
ATOM     11  H   LIG    1        0.924  34.200  22.107  0.00  0.00    +0.210 HD
ENDBRANCH   3  10
BRANCH  36  37
ATOM     37  C   LIG    1       -2.908  38.518  24.322  0.00  0.00    +0.190 C 
BRANCH  37  38
ATOM     38  O   LIG    1       -3.099  38.046  25.643  0.00  0.00    -0.392 OA
ATOM     39  H   LIG    1       -2.330  37.497  25.874  0.00  0.00    +0.210 HD
ENDBRANCH  37  38
ENDBRANCH  36  37
ENDBRANCH  12   2
ENDBRANCH  13  12
TORSDOF 11
ENDMDL
