MODEL 1
REMARK VINA RESULT:      -7.8      0.000      0.000
REMARK  Name = 5320623
REMARK  11 active torsions:
REMARK  status: ('A' for Active; 'I' for Inactive)
REMARK    1  A    between atoms: O_2  and  C_16
REMARK    2  A    between atoms: O_2  and  C_18
REMARK    3  A    between atoms: O_3  and  C_12
REMARK    4  A    between atoms: O_4  and  C_13
REMARK    5  A    between atoms: O_5  and  C_14
REMARK    6  A    between atoms: O_6  and  C_17
REMARK    7  A    between atoms: O_8  and  C_20
REMARK    8  A    between atoms: O_9  and  C_23
REMARK    9  A    between atoms: O_11  and  C_32
REMARK   10  A    between atoms: C_15  and  C_17
REMARK   11  A    between atoms: C_25  and  C_27
REMARK                            x       y       z     vdW  Elec       q    Type
REMARK                         _______ _______ _______ _____ _____    ______ ____
ROOT
ATOM      7  O   UNL     1      29.824  23.446  31.778  0.00  0.00    +0.000 OA
ATOM     10  O   UNL     1      27.293  25.048  29.016  0.00  0.00    +0.000 OA
ATOM     18  C   UNL     1      32.292  24.658  29.386  0.00  0.00    +0.000 A 
ATOM     19  C   UNL     1      31.719  24.066  30.511  0.00  0.00    +0.000 A 
ATOM     20  C   UNL     1      31.481  25.227  28.403  0.00  0.00    +0.000 A 
ATOM     21  C   UNL     1      30.331  24.043  30.651  0.00  0.00    +0.000 A 
ATOM     22  C   UNL     1      29.522  24.611  29.668  0.00  0.00    +0.000 A 
ATOM     23  C   UNL     1      30.092  25.205  28.540  0.00  0.00    +0.000 A 
ATOM     24  C   UNL     1      28.062  24.572  29.840  0.00  0.00    +0.000 A 
ATOM     25  C   UNL     1      28.449  23.416  31.948  0.00  0.00    +0.000 A 
ATOM     26  C   UNL     1      27.567  23.922  31.071  0.00  0.00    +0.000 A 
ENDROOT
BRANCH  25  27
ATOM     27  C   UNL     1      28.013  22.746  33.190  0.00  0.00    +0.000 A 
ATOM     28  C   UNL     1      28.897  22.611  34.263  0.00  0.00    +0.000 A 
ATOM     29  C   UNL     1      26.714  22.242  33.296  0.00  0.00    +0.000 A 
ATOM     30  C   UNL     1      28.484  21.978  35.435  0.00  0.00    +0.000 A 
ATOM     31  C   UNL     1      26.301  21.609  34.468  0.00  0.00    +0.000 A 
ATOM     32  C   UNL     1      27.187  21.476  35.537  0.00  0.00    +0.000 A 
BRANCH  32  11
ATOM     11  O   UNL     1      26.784  20.858  36.682  0.00  0.00    +0.000 OA
ATOM     39  H   UNL     1      25.870  20.548  36.567  0.00  0.00    +0.000 HD
ENDBRANCH  32  11
ENDBRANCH  25  27
BRANCH  20   8
ATOM      8  O   UNL     1      32.051  25.804  27.305  0.00  0.00    +0.000 OA
ATOM     37  H   UNL     1      33.016  25.806  27.427  0.00  0.00    +0.000 HD
ENDBRANCH  20   8
BRANCH  23   9
ATOM      9  O   UNL     1      29.334  25.771  27.559  0.00  0.00    +0.000 OA
ATOM     38  H   UNL     1      29.697  26.632  27.299  0.00  0.00    +0.000 HD
ENDBRANCH  23   9
BRANCH  18   2
ATOM      2  O   UNL     1      33.651  24.676  29.259  0.00  0.00    +0.000 OA
BRANCH   2  16
ATOM      1  O   UNL     1      34.922  26.613  29.544  0.00  0.00    +0.000 OA
ATOM     12  C   UNL     1      36.395  25.428  31.708  0.00  0.00    +0.000 C 
ATOM     13  C   UNL     1      36.838  26.722  31.025  0.00  0.00    +0.000 C 
ATOM     14  C   UNL     1      35.479  24.608  30.798  0.00  0.00    +0.000 C 
ATOM     15  C   UNL     1      35.636  27.467  30.439  0.00  0.00    +0.000 C 
ATOM     16  C   UNL     1      34.370  25.473  30.200  0.00  0.00    +0.000 C 
BRANCH  12   3
ATOM      3  O   UNL     1      37.564  24.669  32.016  0.00  0.00    +0.000 OA
ATOM     33  H   UNL     1      38.266  25.299  32.252  0.00  0.00    +0.000 HD
ENDBRANCH  12   3
BRANCH  13   4
ATOM      4  O   UNL     1      37.491  27.558  31.977  0.00  0.00    +0.000 OA
ATOM     34  H   UNL     1      37.924  26.985  32.633  0.00  0.00    +0.000 HD
ENDBRANCH  13   4
BRANCH  14   5
ATOM      5  O   UNL     1      34.872  23.563  31.556  0.00  0.00    +0.000 OA
ATOM     35  H   UNL     1      35.150  22.713  31.177  0.00  0.00    +0.000 HD
ENDBRANCH  14   5
BRANCH  15  17
ATOM     17  C   UNL     1      36.065  28.701  29.651  0.00  0.00    +0.000 C 
BRANCH  17   6
ATOM      6  O   UNL     1      36.035  29.822  30.515  0.00  0.00    +0.000 OA
ATOM     36  H   UNL     1      36.809  30.373  30.309  0.00  0.00    +0.000 HD
ENDBRANCH  17   6
ENDBRANCH  15  17
ENDBRANCH   2  16
ENDBRANCH  18   2
TORSDOF 11
ENDMDL
MODEL 2
REMARK VINA RESULT:      -7.7     32.969     36.144
REMARK  Name = 5320623
REMARK  11 active torsions:
REMARK  status: ('A' for Active; 'I' for Inactive)
REMARK    1  A    between atoms: O_2  and  C_16
REMARK    2  A    between atoms: O_2  and  C_18
REMARK    3  A    between atoms: O_3  and  C_12
REMARK    4  A    between atoms: O_4  and  C_13
REMARK    5  A    between atoms: O_5  and  C_14
REMARK    6  A    between atoms: O_6  and  C_17
REMARK    7  A    between atoms: O_8  and  C_20
REMARK    8  A    between atoms: O_9  and  C_23
REMARK    9  A    between atoms: O_11  and  C_32
REMARK   10  A    between atoms: C_15  and  C_17
REMARK   11  A    between atoms: C_25  and  C_27
REMARK                            x       y       z     vdW  Elec       q    Type
REMARK                         _______ _______ _______ _____ _____    ______ ____
ROOT
ATOM      7  O   UNL     1       9.641  18.158   1.364  0.00  0.00    +0.000 OA
ATOM     10  O   UNL     1      10.581  14.631   3.174  0.00  0.00    +0.000 OA
ATOM     18  C   UNL     1      13.264  18.280   0.991  0.00  0.00    +0.000 A 
ATOM     19  C   UNL     1      11.914  18.623   0.923  0.00  0.00    +0.000 A 
ATOM     20  C   UNL     1      13.653  17.084   1.596  0.00  0.00    +0.000 A 
ATOM     21  C   UNL     1      10.953  17.768   1.462  0.00  0.00    +0.000 A 
ATOM     22  C   UNL     1      11.343  16.574   2.066  0.00  0.00    +0.000 A 
ATOM     23  C   UNL     1      12.694  16.227   2.137  0.00  0.00    +0.000 A 
ATOM     24  C   UNL     1      10.309  15.691   2.627  0.00  0.00    +0.000 A 
ATOM     25  C   UNL     1       8.663  17.324   1.884  0.00  0.00    +0.000 A 
ATOM     26  C   UNL     1       8.914  16.155   2.495  0.00  0.00    +0.000 A 
ENDROOT
BRANCH  25  27
ATOM     27  C   UNL     1       7.289  17.843   1.732  0.00  0.00    +0.000 A 
ATOM     28  C   UNL     1       7.077  19.140   1.261  0.00  0.00    +0.000 A 
ATOM     29  C   UNL     1       6.195  17.039   2.061  0.00  0.00    +0.000 A 
ATOM     30  C   UNL     1       5.779  19.630   1.117  0.00  0.00    +0.000 A 
ATOM     31  C   UNL     1       4.897  17.528   1.918  0.00  0.00    +0.000 A 
ATOM     32  C   UNL     1       4.689  18.824   1.447  0.00  0.00    +0.000 A 
BRANCH  32  11
ATOM     11  O   UNL     1       3.422  19.303   1.307  0.00  0.00    +0.000 OA
ATOM     39  H   UNL     1       3.459  20.168   0.866  0.00  0.00    +0.000 HD
ENDBRANCH  32  11
ENDBRANCH  25  27
BRANCH  20   8
ATOM      8  O   UNL     1      14.977  16.757   1.660  0.00  0.00    +0.000 OA
ATOM     37  H   UNL     1      15.479  17.556   1.900  0.00  0.00    +0.000 HD
ENDBRANCH  20   8
BRANCH  23   9
ATOM      9  O   UNL     1      13.114  15.068   2.719  0.00  0.00    +0.000 OA
ATOM     38  H   UNL     1      12.821  14.299   2.205  0.00  0.00    +0.000 HD
ENDBRANCH  23   9
BRANCH  18   2
ATOM      2  O   UNL     1      14.196  19.124   0.460  0.00  0.00    +0.000 OA
BRANCH   2  16
ATOM      1  O   UNL     1      14.192  21.424   0.855  0.00  0.00    +0.000 OA
ATOM     12  C   UNL     1      16.802  21.308   2.050  0.00  0.00    +0.000 C 
ATOM     13  C   UNL     1      16.144  22.627   1.644  0.00  0.00    +0.000 C 
ATOM     14  C   UNL     1      16.203  20.131   1.280  0.00  0.00    +0.000 C 
ATOM     15  C   UNL     1      14.618  22.508   1.683  0.00  0.00    +0.000 C 
ATOM     16  C   UNL     1      14.675  20.163   1.313  0.00  0.00    +0.000 C 
BRANCH  12   3
ATOM      3  O   UNL     1      18.198  21.405   1.763  0.00  0.00    +0.000 OA
ATOM     33  H   UNL     1      18.533  20.500   1.644  0.00  0.00    +0.000 HD
ENDBRANCH  12   3
BRANCH  13   4
ATOM      4  O   UNL     1      16.559  23.656   2.537  0.00  0.00    +0.000 OA
ATOM     34  H   UNL     1      15.768  23.998   2.990  0.00  0.00    +0.000 HD
ENDBRANCH  13   4
BRANCH  14   5
ATOM      5  O   UNL     1      16.638  18.908   1.874  0.00  0.00    +0.000 OA
ATOM     35  H   UNL     1      17.098  19.120   2.702  0.00  0.00    +0.000 HD
ENDBRANCH  14   5
BRANCH  15  17
ATOM     17  C   UNL     1      13.939  23.773   1.169  0.00  0.00    +0.000 C 
BRANCH  17   6
ATOM      6  O   UNL     1      14.143  24.810   2.110  0.00  0.00    +0.000 OA
ATOM     36  H   UNL     1      13.941  25.652   1.668  0.00  0.00    +0.000 HD
ENDBRANCH  17   6
ENDBRANCH  15  17
ENDBRANCH   2  16
ENDBRANCH  18   2
TORSDOF 11
ENDMDL
MODEL 3
REMARK VINA RESULT:      -7.6      4.446      9.086
REMARK  Name = 5320623
REMARK  11 active torsions:
REMARK  status: ('A' for Active; 'I' for Inactive)
REMARK    1  A    between atoms: O_2  and  C_16
REMARK    2  A    between atoms: O_2  and  C_18
REMARK    3  A    between atoms: O_3  and  C_12
REMARK    4  A    between atoms: O_4  and  C_13
REMARK    5  A    between atoms: O_5  and  C_14
REMARK    6  A    between atoms: O_6  and  C_17
REMARK    7  A    between atoms: O_8  and  C_20
REMARK    8  A    between atoms: O_9  and  C_23
REMARK    9  A    between atoms: O_11  and  C_32
REMARK   10  A    between atoms: C_15  and  C_17
REMARK   11  A    between atoms: C_25  and  C_27
REMARK                            x       y       z     vdW  Elec       q    Type
REMARK                         _______ _______ _______ _____ _____    ______ ____
ROOT
ATOM      7  O   UNL     1      35.588  27.747  29.283  0.00  0.00    +0.000 OA
ATOM     10  O   UNL     1      33.683  26.950  32.795  0.00  0.00    +0.000 OA
ATOM     18  C   UNL     1      33.185  25.287  28.075  0.00  0.00    +0.000 A 
ATOM     19  C   UNL     1      34.221  26.221  28.108  0.00  0.00    +0.000 A 
ATOM     20  C   UNL     1      32.491  24.970  29.244  0.00  0.00    +0.000 A 
ATOM     21  C   UNL     1      34.561  26.837  29.312  0.00  0.00    +0.000 A 
ATOM     22  C   UNL     1      33.866  26.519  30.479  0.00  0.00    +0.000 A 
ATOM     23  C   UNL     1      32.829  25.585  30.450  0.00  0.00    +0.000 A 
ATOM     24  C   UNL     1      34.247  27.183  31.734  0.00  0.00    +0.000 A 
ATOM     25  C   UNL     1      35.943  28.381  30.463  0.00  0.00    +0.000 A 
ATOM     26  C   UNL     1      35.355  28.155  31.649  0.00  0.00    +0.000 A 
ENDROOT
BRANCH  25  27
ATOM     27  C   UNL     1      37.062  29.334  30.319  0.00  0.00    +0.000 A 
ATOM     28  C   UNL     1      37.207  30.074  29.144  0.00  0.00    +0.000 A 
ATOM     29  C   UNL     1      37.982  29.498  31.358  0.00  0.00    +0.000 A 
ATOM     30  C   UNL     1      38.264  30.974  29.008  0.00  0.00    +0.000 A 
ATOM     31  C   UNL     1      39.039  30.397  31.223  0.00  0.00    +0.000 A 
ATOM     32  C   UNL     1      39.181  31.134  30.047  0.00  0.00    +0.000 A 
BRANCH  32  11
ATOM     11  O   UNL     1      40.213  32.012  29.915  0.00  0.00    +0.000 OA
ATOM     39  H   UNL     1      40.946  31.725  30.485  0.00  0.00    +0.000 HD
ENDBRANCH  32  11
ENDBRANCH  25  27
BRANCH  20   8
ATOM      8  O   UNL     1      31.479  24.055  29.203  0.00  0.00    +0.000 OA
ATOM     37  H   UNL     1      30.674  24.471  29.557  0.00  0.00    +0.000 HD
ENDBRANCH  20   8
BRANCH  23   9
ATOM      9  O   UNL     1      32.127  25.249  31.569  0.00  0.00    +0.000 OA
ATOM     38  H   UNL     1      32.428  24.397  31.922  0.00  0.00    +0.000 HD
ENDBRANCH  23   9
BRANCH  18   2
ATOM      2  O   UNL     1      32.860  24.691  26.892  0.00  0.00    +0.000 OA
BRANCH   2  16
ATOM      1  O   UNL     1      33.792  24.633  24.753  0.00  0.00    +0.000 OA
ATOM     12  C   UNL     1      34.975  22.062  25.247  0.00  0.00    +0.000 C 
ATOM     13  C   UNL     1      34.882  22.667  23.846  0.00  0.00    +0.000 C 
ATOM     14  C   UNL     1      33.934  22.676  26.184  0.00  0.00    +0.000 C 
ATOM     15  C   UNL     1      34.862  24.196  23.914  0.00  0.00    +0.000 C 
ATOM     16  C   UNL     1      33.945  24.203  26.104  0.00  0.00    +0.000 C 
BRANCH  12   3
ATOM      3  O   UNL     1      34.746  20.656  25.137  0.00  0.00    +0.000 OA
ATOM     33  H   UNL     1      33.811  20.496  25.351  0.00  0.00    +0.000 HD
ENDBRANCH  12   3
BRANCH  13   4
ATOM      4  O   UNL     1      36.003  22.244  23.075  0.00  0.00    +0.000 OA
ATOM     34  H   UNL     1      36.791  22.283  23.644  0.00  0.00    +0.000 HD
ENDBRANCH  13   4
BRANCH  14   5
ATOM      5  O   UNL     1      34.227  22.297  27.529  0.00  0.00    +0.000 OA
ATOM     35  H   UNL     1      34.468  23.098  28.023  0.00  0.00    +0.000 HD
ENDBRANCH  14   5
BRANCH  15  17
ATOM     17  C   UNL     1      34.652  24.821  22.539  0.00  0.00    +0.000 C 
BRANCH  17   6
ATOM      6  O   UNL     1      34.223  23.811  21.644  0.00  0.00    +0.000 OA
ATOM     36  H   UNL     1      33.252  23.772  21.688  0.00  0.00    +0.000 HD
ENDBRANCH  17   6
ENDBRANCH  15  17
ENDBRANCH   2  16
ENDBRANCH  18   2
TORSDOF 11
ENDMDL
MODEL 4
REMARK VINA RESULT:      -7.6     13.592     17.215
REMARK  Name = 5320623
REMARK  11 active torsions:
REMARK  status: ('A' for Active; 'I' for Inactive)
REMARK    1  A    between atoms: O_2  and  C_16
REMARK    2  A    between atoms: O_2  and  C_18
REMARK    3  A    between atoms: O_3  and  C_12
REMARK    4  A    between atoms: O_4  and  C_13
REMARK    5  A    between atoms: O_5  and  C_14
REMARK    6  A    between atoms: O_6  and  C_17
REMARK    7  A    between atoms: O_8  and  C_20
REMARK    8  A    between atoms: O_9  and  C_23
REMARK    9  A    between atoms: O_11  and  C_32
REMARK   10  A    between atoms: C_15  and  C_17
REMARK   11  A    between atoms: C_25  and  C_27
REMARK                            x       y       z     vdW  Elec       q    Type
REMARK                         _______ _______ _______ _____ _____    ______ ____
ROOT
ATOM      7  O   UNL     1      27.488  27.543  13.981  0.00  0.00    +0.000 OA
ATOM     10  O   UNL     1      29.493  24.086  13.185  0.00  0.00    +0.000 OA
ATOM     18  C   UNL     1      30.190  27.887  16.403  0.00  0.00    +0.000 A 
ATOM     19  C   UNL     1      29.041  28.146  15.656  0.00  0.00    +0.000 A 
ATOM     20  C   UNL     1      30.924  26.721  16.178  0.00  0.00    +0.000 A 
ATOM     21  C   UNL     1      28.626  27.235  14.684  0.00  0.00    +0.000 A 
ATOM     22  C   UNL     1      29.360  26.071  14.461  0.00  0.00    +0.000 A 
ATOM     23  C   UNL     1      30.511  25.808  15.207  0.00  0.00    +0.000 A 
ATOM     24  C   UNL     1      28.899  25.128  13.431  0.00  0.00    +0.000 A 
ATOM     25  C   UNL     1      27.057  26.660  13.003  0.00  0.00    +0.000 A 
ATOM     26  C   UNL     1      27.672  25.506  12.702  0.00  0.00    +0.000 A 
ENDROOT
BRANCH  25  27
ATOM     27  C   UNL     1      25.821  27.086  12.314  0.00  0.00    +0.000 A 
ATOM     28  C   UNL     1      24.804  27.723  13.027  0.00  0.00    +0.000 A 
ATOM     29  C   UNL     1      25.665  26.849  10.946  0.00  0.00    +0.000 A 
ATOM     30  C   UNL     1      23.637  28.124  12.376  0.00  0.00    +0.000 A 
ATOM     31  C   UNL     1      24.498  27.250  10.295  0.00  0.00    +0.000 A 
ATOM     32  C   UNL     1      23.484  27.887  11.010  0.00  0.00    +0.000 A 
BRANCH  32  11
ATOM     11  O   UNL     1      22.345  28.278  10.374  0.00  0.00    +0.000 OA
ATOM     39  H   UNL     1      22.531  28.370   9.424  0.00  0.00    +0.000 HD
ENDBRANCH  32  11
ENDBRANCH  25  27
BRANCH  20   8
ATOM      8  O   UNL     1      32.047  26.476  16.914  0.00  0.00    +0.000 OA
ATOM     37  H   UNL     1      32.802  26.399  16.305  0.00  0.00    +0.000 HD
ENDBRANCH  20   8
BRANCH  23   9
ATOM      9  O   UNL     1      31.254  24.682  15.017  0.00  0.00    +0.000 OA
ATOM     38  H   UNL     1      30.827  23.914  15.428  0.00  0.00    +0.000 HD
ENDBRANCH  23   9
BRANCH  18   2
ATOM      2  O   UNL     1      30.587  28.785  17.351  0.00  0.00    +0.000 OA
BRANCH   2  16
ATOM      1  O   UNL     1      29.085  30.387  18.139  0.00  0.00    +0.000 OA
ATOM     12  C   UNL     1      29.463  29.527  20.854  0.00  0.00    +0.000 C 
ATOM     13  C   UNL     1      28.761  30.838  20.499  0.00  0.00    +0.000 C 
ATOM     14  C   UNL     1      30.370  29.059  19.715  0.00  0.00    +0.000 C 
ATOM     15  C   UNL     1      28.109  30.749  19.118  0.00  0.00    +0.000 C 
ATOM     16  C   UNL     1      29.640  29.095  18.372  0.00  0.00    +0.000 C 
BRANCH  12   3
ATOM      3  O   UNL     1      30.248  29.750  22.027  0.00  0.00    +0.000 OA
ATOM     33  H   UNL     1      31.173  29.556  21.799  0.00  0.00    +0.000 HD
ENDBRANCH  12   3
BRANCH  13   4
ATOM      4  O   UNL     1      27.761  31.117  21.475  0.00  0.00    +0.000 OA
ATOM     34  H   UNL     1      28.151  30.971  22.355  0.00  0.00    +0.000 HD
ENDBRANCH  13   4
BRANCH  14   5
ATOM      5  O   UNL     1      30.786  27.717  19.963  0.00  0.00    +0.000 OA
ATOM     35  H   UNL     1      29.992  27.174  20.099  0.00  0.00    +0.000 HD
ENDBRANCH  14   5
BRANCH  15  17
ATOM     17  C   UNL     1      27.503  32.082  18.691  0.00  0.00    +0.000 C 
BRANCH  17   6
ATOM      6  O   UNL     1      26.148  32.114  19.099  0.00  0.00    +0.000 OA
ATOM     36  H   UNL     1      25.598  31.998  18.305  0.00  0.00    +0.000 HD
ENDBRANCH  17   6
ENDBRANCH  15  17
ENDBRANCH   2  16
ENDBRANCH  18   2
TORSDOF 11
ENDMDL
MODEL 5
REMARK VINA RESULT:      -7.4      4.539      9.049
REMARK  Name = 5320623
REMARK  11 active torsions:
REMARK  status: ('A' for Active; 'I' for Inactive)
REMARK    1  A    between atoms: O_2  and  C_16
REMARK    2  A    between atoms: O_2  and  C_18
REMARK    3  A    between atoms: O_3  and  C_12
REMARK    4  A    between atoms: O_4  and  C_13
REMARK    5  A    between atoms: O_5  and  C_14
REMARK    6  A    between atoms: O_6  and  C_17
REMARK    7  A    between atoms: O_8  and  C_20
REMARK    8  A    between atoms: O_9  and  C_23
REMARK    9  A    between atoms: O_11  and  C_32
REMARK   10  A    between atoms: C_15  and  C_17
REMARK   11  A    between atoms: C_25  and  C_27
REMARK                            x       y       z     vdW  Elec       q    Type
REMARK                         _______ _______ _______ _____ _____    ______ ____
ROOT
ATOM      7  O   UNL     1      35.667  27.557  29.085  0.00  0.00    +0.000 OA
ATOM     10  O   UNL     1      33.399  26.726  32.366  0.00  0.00    +0.000 OA
ATOM     18  C   UNL     1      33.326  25.209  27.573  0.00  0.00    +0.000 A 
ATOM     19  C   UNL     1      34.380  26.108  27.736  0.00  0.00    +0.000 A 
ATOM     20  C   UNL     1      32.510  24.883  28.657  0.00  0.00    +0.000 A 
ATOM     21  C   UNL     1      34.616  26.680  28.986  0.00  0.00    +0.000 A 
ATOM     22  C   UNL     1      33.800  26.353  30.068  0.00  0.00    +0.000 A 
ATOM     23  C   UNL     1      32.744  25.453  29.909  0.00  0.00    +0.000 A 
ATOM     24  C   UNL     1      34.073  26.970  31.374  0.00  0.00    +0.000 A 
ATOM     25  C   UNL     1      35.921  28.148  30.313  0.00  0.00    +0.000 A 
ATOM     26  C   UNL     1      35.212  27.908  31.428  0.00  0.00    +0.000 A 
ENDROOT
BRANCH  25  27
ATOM     27  C   UNL     1      37.076  29.068  30.309  0.00  0.00    +0.000 A 
ATOM     28  C   UNL     1      38.085  28.933  31.265  0.00  0.00    +0.000 A 
ATOM     29  C   UNL     1      37.163  30.080  29.349  0.00  0.00    +0.000 A 
ATOM     30  C   UNL     1      39.175  29.803  31.261  0.00  0.00    +0.000 A 
ATOM     31  C   UNL     1      38.254  30.949  29.345  0.00  0.00    +0.000 A 
ATOM     32  C   UNL     1      39.259  30.812  30.301  0.00  0.00    +0.000 A 
BRANCH  32  11
ATOM     11  O   UNL     1      40.323  31.661  30.298  0.00  0.00    +0.000 OA
ATOM     39  H   UNL     1      40.839  31.516  29.486  0.00  0.00    +0.000 HD
ENDBRANCH  32  11
ENDBRANCH  25  27
BRANCH  20   8
ATOM      8  O   UNL     1      31.481  24.001  28.489  0.00  0.00    +0.000 OA
ATOM     37  H   UNL     1      31.015  24.228  27.665  0.00  0.00    +0.000 HD
ENDBRANCH  20   8
BRANCH  23   9
ATOM      9  O   UNL     1      31.925  25.110  30.942  0.00  0.00    +0.000 OA
ATOM     38  H   UNL     1      32.059  24.183  31.195  0.00  0.00    +0.000 HD
ENDBRANCH  23   9
BRANCH  18   2
ATOM      2  O   UNL     1      33.103  24.655  26.345  0.00  0.00    +0.000 OA
BRANCH   2  16
ATOM      1  O   UNL     1      33.694  25.524  24.262  0.00  0.00    +0.000 OA
ATOM     12  C   UNL     1      35.596  23.416  23.829  0.00  0.00    +0.000 C 
ATOM     13  C   UNL     1      35.139  24.350  22.709  0.00  0.00    +0.000 C 
ATOM     14  C   UNL     1      34.575  23.373  24.966  0.00  0.00    +0.000 C 
ATOM     15  C   UNL     1      34.709  25.707  23.274  0.00  0.00    +0.000 C 
ATOM     16  C   UNL     1      34.154  24.781  25.388  0.00  0.00    +0.000 C 
BRANCH  12   3
ATOM      3  O   UNL     1      35.750  22.107  23.277  0.00  0.00    +0.000 OA
ATOM     33  H   UNL     1      36.134  21.543  23.970  0.00  0.00    +0.000 HD
ENDBRANCH  12   3
BRANCH  13   4
ATOM      4  O   UNL     1      36.208  24.541  21.787  0.00  0.00    +0.000 OA
ATOM     34  H   UNL     1      36.417  25.491  21.761  0.00  0.00    +0.000 HD
ENDBRANCH  13   4
BRANCH  14   5
ATOM      5  O   UNL     1      35.153  22.722  26.096  0.00  0.00    +0.000 OA
ATOM     35  H   UNL     1      34.606  22.922  26.874  0.00  0.00    +0.000 HD
ENDBRANCH  14   5
BRANCH  15  17
ATOM     17  C   UNL     1      34.138  26.615  22.190  0.00  0.00    +0.000 C 
BRANCH  17   6
ATOM      6  O   UNL     1      33.602  25.808  21.159  0.00  0.00    +0.000 OA
ATOM     36  H   UNL     1      32.640  25.955  21.140  0.00  0.00    +0.000 HD
ENDBRANCH  17   6
ENDBRANCH  15  17
ENDBRANCH   2  16
ENDBRANCH  18   2
TORSDOF 11
ENDMDL
MODEL 6
REMARK VINA RESULT:      -7.2     22.009     24.913
REMARK  Name = 5320623
REMARK  11 active torsions:
REMARK  status: ('A' for Active; 'I' for Inactive)
REMARK    1  A    between atoms: O_2  and  C_16
REMARK    2  A    between atoms: O_2  and  C_18
REMARK    3  A    between atoms: O_3  and  C_12
REMARK    4  A    between atoms: O_4  and  C_13
REMARK    5  A    between atoms: O_5  and  C_14
REMARK    6  A    between atoms: O_6  and  C_17
REMARK    7  A    between atoms: O_8  and  C_20
REMARK    8  A    between atoms: O_9  and  C_23
REMARK    9  A    between atoms: O_11  and  C_32
REMARK   10  A    between atoms: C_15  and  C_17
REMARK   11  A    between atoms: C_25  and  C_27
REMARK                            x       y       z     vdW  Elec       q    Type
REMARK                         _______ _______ _______ _____ _____    ______ ____
ROOT
ATOM      7  O   UNL     1       9.154  29.813  29.487  0.00  0.00    +0.000 OA
ATOM     10  O   UNL     1      10.623  27.618  32.589  0.00  0.00    +0.000 OA
ATOM     18  C   UNL     1       9.877  32.529  31.807  0.00  0.00    +0.000 A 
ATOM     19  C   UNL     1       9.467  31.833  30.669  0.00  0.00    +0.000 A 
ATOM     20  C   UNL     1      10.391  31.836  32.904  0.00  0.00    +0.000 A 
ATOM     21  C   UNL     1       9.572  30.442  30.632  0.00  0.00    +0.000 A 
ATOM     22  C   UNL     1      10.086  29.752  31.729  0.00  0.00    +0.000 A 
ATOM     23  C   UNL     1      10.497  30.446  32.869  0.00  0.00    +0.000 A 
ATOM     24  C   UNL     1      10.185  28.287  31.662  0.00  0.00    +0.000 A 
ATOM     25  C   UNL     1       9.254  28.432  29.418  0.00  0.00    +0.000 A 
ATOM     26  C   UNL     1       9.724  27.658  30.409  0.00  0.00    +0.000 A 
ENDROOT
BRANCH  25  27
ATOM     27  C   UNL     1       8.770  27.858  28.146  0.00  0.00    +0.000 A 
ATOM     28  C   UNL     1       9.198  28.391  26.928  0.00  0.00    +0.000 A 
ATOM     29  C   UNL     1       7.880  26.781  28.156  0.00  0.00    +0.000 A 
ATOM     30  C   UNL     1       8.740  27.849  25.727  0.00  0.00    +0.000 A 
ATOM     31  C   UNL     1       7.423  26.239  26.955  0.00  0.00    +0.000 A 
ATOM     32  C   UNL     1       7.852  26.773  25.740  0.00  0.00    +0.000 A 
BRANCH  32  11
ATOM     11  O   UNL     1       7.405  26.244  24.568  0.00  0.00    +0.000 OA
ATOM     39  H   UNL     1       7.085  25.341  24.732  0.00  0.00    +0.000 HD
ENDBRANCH  32  11
ENDBRANCH  25  27
BRANCH  20   8
ATOM      8  O   UNL     1      10.789  32.526  34.013  0.00  0.00    +0.000 OA
ATOM     37  H   UNL     1      10.075  32.483  34.672  0.00  0.00    +0.000 HD
ENDBRANCH  20   8
BRANCH  23   9
ATOM      9  O   UNL     1      11.005  29.806  33.960  0.00  0.00    +0.000 OA
ATOM     38  H   UNL     1      10.348  29.204  34.344  0.00  0.00    +0.000 HD
ENDBRANCH  23   9
BRANCH  18   2
ATOM      2  O   UNL     1       9.770  33.889  31.833  0.00  0.00    +0.000 OA
BRANCH   2  16
ATOM      1  O   UNL     1       7.634  34.725  31.402  0.00  0.00    +0.000 OA
ATOM     12  C   UNL     1       7.738  36.416  33.723  0.00  0.00    +0.000 C 
ATOM     13  C   UNL     1       6.673  36.577  32.637  0.00  0.00    +0.000 C 
ATOM     14  C   UNL     1       8.972  35.692  33.184  0.00  0.00    +0.000 C 
ATOM     15  C   UNL     1       6.412  35.245  31.929  0.00  0.00    +0.000 C 
ATOM     16  C   UNL     1       8.586  34.425  32.421  0.00  0.00    +0.000 C 
BRANCH  12   3
ATOM      3  O   UNL     1       8.108  37.719  34.174  0.00  0.00    +0.000 OA
ATOM     33  H   UNL     1       8.674  38.115  33.489  0.00  0.00    +0.000 HD
ENDBRANCH  12   3
BRANCH  13   4
ATOM      4  O   UNL     1       5.462  37.041  33.229  0.00  0.00    +0.000 OA
ATOM     34  H   UNL     1       4.930  36.264  33.471  0.00  0.00    +0.000 HD
ENDBRANCH  13   4
BRANCH  14   5
ATOM      5  O   UNL     1       9.814  35.319  34.274  0.00  0.00    +0.000 OA
ATOM     35  H   UNL     1       9.970  34.361  34.222  0.00  0.00    +0.000 HD
ENDBRANCH  14   5
BRANCH  15  17
ATOM     17  C   UNL     1       5.441  35.404  30.765  0.00  0.00    +0.000 C 
BRANCH  17   6
ATOM      6  O   UNL     1       5.294  36.783  30.483  0.00  0.00    +0.000 OA
ATOM     36  H   UNL     1       6.142  37.103  30.130  0.00  0.00    +0.000 HD
ENDBRANCH  17   6
ENDBRANCH  15  17
ENDBRANCH   2  16
ENDBRANCH  18   2
TORSDOF 11
ENDMDL
MODEL 7
REMARK VINA RESULT:      -7.2      4.811      9.148
REMARK  Name = 5320623
REMARK  11 active torsions:
REMARK  status: ('A' for Active; 'I' for Inactive)
REMARK    1  A    between atoms: O_2  and  C_16
REMARK    2  A    between atoms: O_2  and  C_18
REMARK    3  A    between atoms: O_3  and  C_12
REMARK    4  A    between atoms: O_4  and  C_13
REMARK    5  A    between atoms: O_5  and  C_14
REMARK    6  A    between atoms: O_6  and  C_17
REMARK    7  A    between atoms: O_8  and  C_20
REMARK    8  A    between atoms: O_9  and  C_23
REMARK    9  A    between atoms: O_11  and  C_32
REMARK   10  A    between atoms: C_15  and  C_17
REMARK   11  A    between atoms: C_25  and  C_27
REMARK                            x       y       z     vdW  Elec       q    Type
REMARK                         _______ _______ _______ _____ _____    ______ ____
ROOT
ATOM      7  O   UNL     1      36.184  27.543  29.321  0.00  0.00    +0.000 OA
ATOM     10  O   UNL     1      33.520  26.771  32.305  0.00  0.00    +0.000 OA
ATOM     18  C   UNL     1      33.360  26.455  27.289  0.00  0.00    +0.000 A 
ATOM     19  C   UNL     1      34.623  26.914  27.663  0.00  0.00    +0.000 A 
ATOM     20  C   UNL     1      32.401  26.173  28.263  0.00  0.00    +0.000 A 
ATOM     21  C   UNL     1      34.926  27.090  29.014  0.00  0.00    +0.000 A 
ATOM     22  C   UNL     1      33.966  26.808  29.985  0.00  0.00    +0.000 A 
ATOM     23  C   UNL     1      32.700  26.348  29.614  0.00  0.00    +0.000 A 
ATOM     24  C   UNL     1      34.311  27.001  31.401  0.00  0.00    +0.000 A 
ATOM     25  C   UNL     1      36.509  27.735  30.654  0.00  0.00    +0.000 A 
ATOM     26  C   UNL     1      35.676  27.493  31.679  0.00  0.00    +0.000 A 
ENDROOT
BRANCH  25  27
ATOM     27  C   UNL     1      37.888  28.218  30.872  0.00  0.00    +0.000 A 
ATOM     28  C   UNL     1      38.139  29.584  31.016  0.00  0.00    +0.000 A 
ATOM     29  C   UNL     1      38.948  27.310  30.931  0.00  0.00    +0.000 A 
ATOM     30  C   UNL     1      39.441  30.040  31.221  0.00  0.00    +0.000 A 
ATOM     31  C   UNL     1      40.251  27.765  31.136  0.00  0.00    +0.000 A 
ATOM     32  C   UNL     1      40.497  29.130  31.280  0.00  0.00    +0.000 A 
BRANCH  32  11
ATOM     11  O   UNL     1      41.768  29.575  31.479  0.00  0.00    +0.000 OA
ATOM     39  H   UNL     1      42.384  28.991  31.005  0.00  0.00    +0.000 HD
ENDBRANCH  32  11
ENDBRANCH  25  27
BRANCH  20   8
ATOM      8  O   UNL     1      31.168  25.724  27.888  0.00  0.00    +0.000 OA
ATOM     37  H   UNL     1      31.014  24.861  28.310  0.00  0.00    +0.000 HD
ENDBRANCH  20   8
BRANCH  23   9
ATOM      9  O   UNL     1      31.736  26.063  30.535  0.00  0.00    +0.000 OA
ATOM     38  H   UNL     1      30.867  25.989  30.111  0.00  0.00    +0.000 HD
ENDBRANCH  23   9
BRANCH  18   2
ATOM      2  O   UNL     1      33.075  26.287  25.965  0.00  0.00    +0.000 OA
BRANCH   2  16
ATOM      1  O   UNL     1      32.909  28.079  24.479  0.00  0.00    +0.000 OA
ATOM     12  C   UNL     1      35.033  27.032  22.851  0.00  0.00    +0.000 C 
ATOM     13  C   UNL     1      34.115  28.159  22.377  0.00  0.00    +0.000 C 
ATOM     14  C   UNL     1      34.374  26.211  23.960  0.00  0.00    +0.000 C 
ATOM     15  C   UNL     1      33.572  28.955  23.566  0.00  0.00    +0.000 C 
ATOM     16  C   UNL     1      33.791  27.113  25.048  0.00  0.00    +0.000 C 
BRANCH  12   3
ATOM      3  O   UNL     1      35.308  26.188  21.732  0.00  0.00    +0.000 OA
ATOM     33  H   UNL     1      34.867  26.577  20.958  0.00  0.00    +0.000 HD
ENDBRANCH  12   3
BRANCH  13   4
ATOM      4  O   UNL     1      34.844  29.033  21.519  0.00  0.00    +0.000 OA
ATOM     34  H   UNL     1      35.112  29.810  22.039  0.00  0.00    +0.000 HD
ENDBRANCH  13   4
BRANCH  14   5
ATOM      5  O   UNL     1      35.349  25.359  24.560  0.00  0.00    +0.000 OA
ATOM     35  H   UNL     1      35.985  25.917  25.038  0.00  0.00    +0.000 HD
ENDBRANCH  14   5
BRANCH  15  17
ATOM     17  C   UNL     1      32.562  30.010  23.128  0.00  0.00    +0.000 C 
BRANCH  17   6
ATOM      6  O   UNL     1      31.660  30.243  24.193  0.00  0.00    +0.000 OA
ATOM     36  H   UNL     1      32.176  30.572  24.949  0.00  0.00    +0.000 HD
ENDBRANCH  17   6
ENDBRANCH  15  17
ENDBRANCH   2  16
ENDBRANCH  18   2
TORSDOF 11
ENDMDL
MODEL 8
REMARK VINA RESULT:      -7.0      4.670      9.137
REMARK  Name = 5320623
REMARK  11 active torsions:
REMARK  status: ('A' for Active; 'I' for Inactive)
REMARK    1  A    between atoms: O_2  and  C_16
REMARK    2  A    between atoms: O_2  and  C_18
REMARK    3  A    between atoms: O_3  and  C_12
REMARK    4  A    between atoms: O_4  and  C_13
REMARK    5  A    between atoms: O_5  and  C_14
REMARK    6  A    between atoms: O_6  and  C_17
REMARK    7  A    between atoms: O_8  and  C_20
REMARK    8  A    between atoms: O_9  and  C_23
REMARK    9  A    between atoms: O_11  and  C_32
REMARK   10  A    between atoms: C_15  and  C_17
REMARK   11  A    between atoms: C_25  and  C_27
REMARK                            x       y       z     vdW  Elec       q    Type
REMARK                         _______ _______ _______ _____ _____    ______ ____
ROOT
ATOM      7  O   UNL     1      36.434  27.707  29.942  0.00  0.00    +0.000 OA
ATOM     10  O   UNL     1      34.251  27.277  33.355  0.00  0.00    +0.000 OA
ATOM     18  C   UNL     1      33.363  26.394  28.485  0.00  0.00    +0.000 A 
ATOM     19  C   UNL     1      34.659  26.893  28.615  0.00  0.00    +0.000 A 
ATOM     20  C   UNL     1      32.562  26.224  29.616  0.00  0.00    +0.000 A 
ATOM     21  C   UNL     1      35.153  27.221  29.877  0.00  0.00    +0.000 A 
ATOM     22  C   UNL     1      34.351  27.051  31.005  0.00  0.00    +0.000 A 
ATOM     23  C   UNL     1      33.053  26.551  30.880  0.00  0.00    +0.000 A 
ATOM     24  C   UNL     1      34.898  27.404  32.324  0.00  0.00    +0.000 A 
ATOM     25  C   UNL     1      36.949  28.049  31.183  0.00  0.00    +0.000 A 
ATOM     26  C   UNL     1      36.279  27.924  32.340  0.00  0.00    +0.000 A 
ENDROOT
BRANCH  25  27
ATOM     27  C   UNL     1      38.336  28.555  31.139  0.00  0.00    +0.000 A 
ATOM     28  C   UNL     1      38.582  29.929  31.113  0.00  0.00    +0.000 A 
ATOM     29  C   UNL     1      39.409  27.659  31.120  0.00  0.00    +0.000 A 
ATOM     30  C   UNL     1      39.892  30.406  31.070  0.00  0.00    +0.000 A 
ATOM     31  C   UNL     1      40.719  28.136  31.077  0.00  0.00    +0.000 A 
ATOM     32  C   UNL     1      40.960  29.509  31.051  0.00  0.00    +0.000 A 
BRANCH  32  11
ATOM     11  O   UNL     1      42.239  29.975  31.010  0.00  0.00    +0.000 OA
ATOM     39  H   UNL     1      42.240  30.857  30.601  0.00  0.00    +0.000 HD
ENDBRANCH  32  11
ENDBRANCH  25  27
BRANCH  20   8
ATOM      8  O   UNL     1      31.295  25.735  29.480  0.00  0.00    +0.000 OA
ATOM     37  H   UNL     1      31.344  24.885  29.007  0.00  0.00    +0.000 HD
ENDBRANCH  20   8
BRANCH  23   9
ATOM      9  O   UNL     1      32.240  26.372  31.959  0.00  0.00    +0.000 OA
ATOM     38  H   UNL     1      31.310  26.334  31.686  0.00  0.00    +0.000 HD
ENDBRANCH  23   9
BRANCH  18   2
ATOM      2  O   UNL     1      32.889  26.077  27.245  0.00  0.00    +0.000 OA
BRANCH   2  16
ATOM      1  O   UNL     1      33.490  23.923  27.914  0.00  0.00    +0.000 OA
ATOM     12  C   UNL     1      34.567  23.328  25.318  0.00  0.00    +0.000 C 
ATOM     13  C   UNL     1      34.832  22.445  26.537  0.00  0.00    +0.000 C 
ATOM     14  C   UNL     1      34.179  24.747  25.735  0.00  0.00    +0.000 C 
ATOM     15  C   UNL     1      33.687  22.556  27.547  0.00  0.00    +0.000 C 
ATOM     16  C   UNL     1      33.092  24.733  26.810  0.00  0.00    +0.000 C 
BRANCH  12   3
ATOM      3  O   UNL     1      35.762  23.371  24.536  0.00  0.00    +0.000 OA
ATOM     33  H   UNL     1      35.961  22.461  24.259  0.00  0.00    +0.000 HD
ENDBRANCH  12   3
BRANCH  13   4
ATOM      4  O   UNL     1      34.961  21.089  26.119  0.00  0.00    +0.000 OA
ATOM     34  H   UNL     1      35.604  21.060  25.390  0.00  0.00    +0.000 HD
ENDBRANCH  13   4
BRANCH  14   5
ATOM      5  O   UNL     1      33.678  25.453  24.601  0.00  0.00    +0.000 OA
ATOM     35  H   UNL     1      34.171  26.287  24.522  0.00  0.00    +0.000 HD
ENDBRANCH  14   5
BRANCH  15  17
ATOM     17  C   UNL     1      33.981  21.777  28.825  0.00  0.00    +0.000 C 
BRANCH  17   6
ATOM      6  O   UNL     1      33.683  20.411  28.600  0.00  0.00    +0.000 OA
ATOM     36  H   UNL     1      32.721  20.337  28.479  0.00  0.00    +0.000 HD
ENDBRANCH  17   6
ENDBRANCH  15  17
ENDBRANCH   2  16
ENDBRANCH  18   2
TORSDOF 11
ENDMDL
MODEL 9
REMARK VINA RESULT:      -7.0     13.112     16.915
REMARK  Name = 5320623
REMARK  11 active torsions:
REMARK  status: ('A' for Active; 'I' for Inactive)
REMARK    1  A    between atoms: O_2  and  C_16
REMARK    2  A    between atoms: O_2  and  C_18
REMARK    3  A    between atoms: O_3  and  C_12
REMARK    4  A    between atoms: O_4  and  C_13
REMARK    5  A    between atoms: O_5  and  C_14
REMARK    6  A    between atoms: O_6  and  C_17
REMARK    7  A    between atoms: O_8  and  C_20
REMARK    8  A    between atoms: O_9  and  C_23
REMARK    9  A    between atoms: O_11  and  C_32
REMARK   10  A    between atoms: C_15  and  C_17
REMARK   11  A    between atoms: C_25  and  C_27
REMARK                            x       y       z     vdW  Elec       q    Type
REMARK                         _______ _______ _______ _____ _____    ______ ____
ROOT
ATOM      7  O   UNL     1      28.424  28.341  14.417  0.00  0.00    +0.000 OA
ATOM     10  O   UNL     1      30.712  25.153  15.512  0.00  0.00    +0.000 OA
ATOM     18  C   UNL     1      30.729  30.047  16.666  0.00  0.00    +0.000 A 
ATOM     19  C   UNL     1      29.685  29.807  15.773  0.00  0.00    +0.000 A 
ATOM     20  C   UNL     1      31.552  28.998  17.080  0.00  0.00    +0.000 A 
ATOM     21  C   UNL     1      29.465  28.515  15.294  0.00  0.00    +0.000 A 
ATOM     22  C   UNL     1      30.288  27.469  15.708  0.00  0.00    +0.000 A 
ATOM     23  C   UNL     1      31.333  27.705  16.603  0.00  0.00    +0.000 A 
ATOM     24  C   UNL     1      30.032  26.117  15.189  0.00  0.00    +0.000 A 
ATOM     25  C   UNL     1      28.187  27.069  13.918  0.00  0.00    +0.000 A 
ATOM     26  C   UNL     1      28.903  25.983  14.247  0.00  0.00    +0.000 A 
ENDROOT
BRANCH  25  27
ATOM     27  C   UNL     1      27.040  26.994  12.990  0.00  0.00    +0.000 A 
ATOM     28  C   UNL     1      25.796  27.502  13.368  0.00  0.00    +0.000 A 
ATOM     29  C   UNL     1      27.196  26.410  11.730  0.00  0.00    +0.000 A 
ATOM     30  C   UNL     1      24.714  27.430  12.491  0.00  0.00    +0.000 A 
ATOM     31  C   UNL     1      26.114  26.338  10.853  0.00  0.00    +0.000 A 
ATOM     32  C   UNL     1      24.873  26.847  11.234  0.00  0.00    +0.000 A 
BRANCH  32  11
ATOM     11  O   UNL     1      23.816  26.776  10.378  0.00  0.00    +0.000 OA
ATOM     39  H   UNL     1      22.993  26.886  10.884  0.00  0.00    +0.000 HD
ENDBRANCH  32  11
ENDBRANCH  25  27
BRANCH  20   8
ATOM      8  O   UNL     1      32.570  29.242  17.956  0.00  0.00    +0.000 OA
ATOM     37  H   UNL     1      32.252  29.870  18.628  0.00  0.00    +0.000 HD
ENDBRANCH  20   8
BRANCH  23   9
ATOM      9  O   UNL     1      32.158  26.708  17.030  0.00  0.00    +0.000 OA
ATOM     38  H   UNL     1      31.719  26.160  17.699  0.00  0.00    +0.000 HD
ENDBRANCH  23   9
BRANCH  18   2
ATOM      2  O   UNL     1      30.936  31.314  17.129  0.00  0.00    +0.000 OA
BRANCH   2  16
ATOM      1  O   UNL     1      30.613  30.657  19.345  0.00  0.00    +0.000 OA
ATOM     12  C   UNL     1      28.044  31.940  19.438  0.00  0.00    +0.000 C 
ATOM     13  C   UNL     1      28.509  30.956  20.512  0.00  0.00    +0.000 C 
ATOM     14  C   UNL     1      28.805  31.731  18.128  0.00  0.00    +0.000 C 
ATOM     15  C   UNL     1      30.036  30.949  20.618  0.00  0.00    +0.000 C 
ATOM     16  C   UNL     1      30.313  31.651  18.367  0.00  0.00    +0.000 C 
BRANCH  12   3
ATOM      3  O   UNL     1      26.649  31.727  19.218  0.00  0.00    +0.000 OA
ATOM     33  H   UNL     1      26.203  32.584  19.333  0.00  0.00    +0.000 HD
ENDBRANCH  12   3
BRANCH  13   4
ATOM      4  O   UNL     1      27.951  31.330  21.768  0.00  0.00    +0.000 OA
ATOM     34  H   UNL     1      26.991  31.179  21.727  0.00  0.00    +0.000 HD
ENDBRANCH  13   4
BRANCH  14   5
ATOM      5  O   UNL     1      28.548  32.827  17.252  0.00  0.00    +0.000 OA
ATOM     35  H   UNL     1      29.200  32.799  16.532  0.00  0.00    +0.000 HD
ENDBRANCH  14   5
BRANCH  15  17
ATOM     17  C   UNL     1      30.529  29.891  21.599  0.00  0.00    +0.000 C 
BRANCH  17   6
ATOM      6  O   UNL     1      31.181  28.867  20.870  0.00  0.00    +0.000 OA
ATOM     36  H   UNL     1      32.022  28.676  21.320  0.00  0.00    +0.000 HD
ENDBRANCH  17   6
ENDBRANCH  15  17
ENDBRANCH   2  16
ENDBRANCH  18   2
TORSDOF 11
ENDMDL
