REMARK VINA RESULT:      -8.1      5.452     10.562
REMARK  Name = 5320623
REMARK  11 active torsions:
REMARK  status: ('A' for Active; 'I' for Inactive)
REMARK    1  A    between atoms: O_2  and  C_16
REMARK    2  A    between atoms: O_2  and  C_18
REMARK    3  A    between atoms: O_3  and  C_12
REMARK    4  A    between atoms: O_4  and  C_13
REMARK    5  A    between atoms: O_5  and  C_14
REMARK    6  A    between atoms: O_6  and  C_17
REMARK    7  A    between atoms: O_8  and  C_20
REMARK    8  A    between atoms: O_9  and  C_23
REMARK    9  A    between atoms: O_11  and  C_32
REMARK   10  A    between atoms: C_15  and  C_17
REMARK   11  A    between atoms: C_25  and  C_27
REMARK                            x       y       z     vdW  Elec       q    Type
REMARK                         _______ _______ _______ _____ _____    ______ ____
ROOT
ATOM      7  O   UNL     1     180.361 186.426 171.989  0.00  0.00    +0.000 OA
ATOM     10  O   UNL     1     178.786 183.697 169.405  0.00  0.00    +0.000 OA
ATOM     18  C   UNL     1     182.760 183.728 172.486  0.00  0.00    +0.000 A 
ATOM     19  C   UNL     1     182.105 184.954 172.597  0.00  0.00    +0.000 A 
ATOM     20  C   UNL     1     182.272 182.750 171.618  0.00  0.00    +0.000 A 
ATOM     21  C   UNL     1     180.962 185.202 171.837  0.00  0.00    +0.000 A 
ATOM     22  C   UNL     1     180.476 184.223 170.970  0.00  0.00    +0.000 A 
ATOM     23  C   UNL     1     181.129 182.994 170.857  0.00  0.00    +0.000 A 
ATOM     24  C   UNL     1     179.268 184.510 170.182  0.00  0.00    +0.000 A 
ATOM     25  C   UNL     1     179.227 186.702 171.240  0.00  0.00    +0.000 A 
ATOM     26  C   UNL     1     178.662 185.842 170.379  0.00  0.00    +0.000 A 
ENDROOT
BRANCH  25  27
ATOM     27  C   UNL     1     178.660 188.044 171.485  0.00  0.00    +0.000 A 
ATOM     28  C   UNL     1     178.348 188.448 172.785  0.00  0.00    +0.000 A 
ATOM     29  C   UNL     1     178.429 188.913 170.416  0.00  0.00    +0.000 A 
ATOM     30  C   UNL     1     177.811 189.714 173.015  0.00  0.00    +0.000 A 
ATOM     31  C   UNL     1     177.892 190.180 170.646  0.00  0.00    +0.000 A 
ATOM     32  C   UNL     1     177.583 190.580 171.946  0.00  0.00    +0.000 A 
BRANCH  32  11
ATOM     11  O   UNL     1     177.059 191.816 172.171  0.00  0.00    +0.000 OA
ATOM     39  H   UNL     1     176.438 192.031 171.454  0.00  0.00    +0.000 HD
ENDBRANCH  32  11
ENDBRANCH  25  27
BRANCH  20   8
ATOM      8  O   UNL     1     182.919 181.552 171.517  0.00  0.00    +0.000 OA
ATOM     37  H   UNL     1     182.981 181.316 170.574  0.00  0.00    +0.000 HD
ENDBRANCH  20   8
BRANCH  23   9
ATOM      9  O   UNL     1     180.685 182.014 170.020  0.00  0.00    +0.000 OA
ATOM     38  H   UNL     1     180.648 181.160 170.478  0.00  0.00    +0.000 HD
ENDBRANCH  23   9
BRANCH  18   2
ATOM      2  O   UNL     1     183.878 183.496 173.234  0.00  0.00    +0.000 OA
BRANCH   2  16
ATOM      1  O   UNL     1     185.487 184.977 172.417  0.00  0.00    +0.000 OA
ATOM     12  C   UNL     1     186.571 185.381 175.047  0.00  0.00    +0.000 C 
ATOM     13  C   UNL     1     187.299 185.834 173.781  0.00  0.00    +0.000 C 
ATOM     14  C   UNL     1     185.566 184.270 174.740  0.00  0.00    +0.000 C 
ATOM     15  C   UNL     1     186.303 186.125 172.656  0.00  0.00    +0.000 C 
ATOM     16  C   UNL     1     184.684 184.632 173.544  0.00  0.00    +0.000 C 
BRANCH  12   3
ATOM      3  O   UNL     1     187.548 184.897 175.969  0.00  0.00    +0.000 OA
ATOM     33  H   UNL     1     187.276 184.003 176.239  0.00  0.00    +0.000 HD
ENDBRANCH  12   3
BRANCH  13   4
ATOM      4  O   UNL     1     188.048 187.012 174.063  0.00  0.00    +0.000 OA
ATOM     34  H   UNL     1     188.992 186.793 173.989  0.00  0.00    +0.000 HD
ENDBRANCH  13   4
BRANCH  14   5
ATOM      5  O   UNL     1     184.722 184.069 175.873  0.00  0.00    +0.000 OA
ATOM     35  H   UNL     1     184.629 184.919 176.335  0.00  0.00    +0.000 HD
ENDBRANCH  14   5
BRANCH  15  17
ATOM     17  C   UNL     1     187.010 186.465 171.348  0.00  0.00    +0.000 C 
BRANCH  17   6
ATOM      6  O   UNL     1     187.443 187.811 171.405  0.00  0.00    +0.000 OA
ATOM     36  H   UNL     1     186.814 188.345 170.890  0.00  0.00    +0.000 HD
ENDBRANCH  17   6
ENDBRANCH  15  17
ENDBRANCH   2  16
ENDBRANCH  18   2
TORSDOF 11
