REMARK VINA RESULT:      -6.1     11.174     12.990
REMARK  10 active torsions:
REMARK  status: ('A' for Active; 'I' for Inactive)
REMARK    1  A    between atoms: O_2  and  C_12 
REMARK    2  A    between atoms: O_2  and  C_14 
REMARK    3  A    between atoms: O_3  and  C_8 
REMARK    4  A    between atoms: O_4  and  C_9 
REMARK    5  A    between atoms: O_5  and  C_10 
REMARK    6  A    between atoms: O_6  and  C_13 
REMARK    7  A    between atoms: O_7  and  C_21 
REMARK    8  A    between atoms: C_11  and  C_13 
REMARK    9  A    between atoms: C_14  and  C_15 
REMARK   10  A    between atoms: C_15  and  C_16 
ROOT
HETATM    1  O   UNK     0     191.796 184.503 182.965  0.00  0.00    -0.348 OA
HETATM    2  C   UNK     0     189.536 182.730 182.950  0.00  0.00     0.183 C 
HETATM    3  C   UNK     0     190.017 183.457 181.694  0.00  0.00     0.180 C 
HETATM    4  C   UNK     0     190.002 183.449 184.217  0.00  0.00     0.204 C 
HETATM    5  C   UNK     0     191.515 183.756 181.780  0.00  0.00     0.179 C 
HETATM    6  C   UNK     0     191.494 183.776 184.155  0.00  0.00     0.291 C 
ENDROOT
BRANCH   5   7
HETATM    7  C   UNK     0     191.995 184.583 180.593  0.00  0.00     0.198 C 
BRANCH   7   8
HETATM    8  O   UNK     0     190.867 185.135 179.941  0.00  0.00    -0.398 OA
HETATM    9  H   UNK     0     191.010 185.053 178.983  0.00  0.00     0.209 HD
ENDBRANCH   7   8
ENDBRANCH   5   7
BRANCH   6  10
HETATM   10  O   UNK     0     191.818 184.565 185.298  0.00  0.00    -0.358 OA
BRANCH  10  11
HETATM   11  C   UNK     0     190.932 185.665 185.434  0.00  0.00     0.175 C 
BRANCH  11  12
HETATM   12  C   UNK     0     191.705 186.971 185.294  0.00  0.00     0.065 C 
BRANCH  12  13
HETATM   13  C   UNK     0     191.509 187.612 183.941  0.00  0.00    -0.056 A 
HETATM   14  C   UNK     0     190.354 187.345 183.224  0.00  0.00     0.010 A 
HETATM   15  C   UNK     0     190.172 187.938 181.975  0.00  0.00     0.037 A 
HETATM   16  C   UNK     0     191.150 188.789 181.458  0.00  0.00     0.065 A 
HETATM   17  C   UNK     0     192.307 189.049 182.191  0.00  0.00     0.037 A 
HETATM   18  C   UNK     0     192.488 188.456 183.441  0.00  0.00     0.010 A 
BRANCH  16  19
HETATM   19  O   UNK     0     190.972 189.367 180.239  0.00  0.00    -0.361 OA
HETATM   20  H   UNK     0     190.451 190.181 180.349  0.00  0.00     0.217 HD
ENDBRANCH  16  19
ENDBRANCH  12  13
ENDBRANCH  11  12
ENDBRANCH  10  11
ENDBRANCH   6  10
BRANCH   3  21
HETATM   21  O   UNK     0     189.765 182.641 180.553  0.00  0.00    -0.390 OA
HETATM   22  H   UNK     0     190.304 182.978 179.817  0.00  0.00     0.210 HD
ENDBRANCH   3  21
BRANCH   4  23
HETATM   23  O   UNK     0     189.776 182.608 185.349  0.00  0.00    -0.388 OA
HETATM   24  H   UNK     0     188.830 182.651 185.573  0.00  0.00     0.210 HD
ENDBRANCH   4  23
BRANCH   2  25
HETATM   25  O   UNK     0     188.108 182.696 182.921  0.00  0.00    -0.390 OA
HETATM   26  H   UNK     0     187.792 183.606 183.052  0.00  0.00     0.210 HD
ENDBRANCH   2  25
TORSDOF 10
