REMARK VINA RESULT:      -6.2      3.511      6.783
REMARK  10 active torsions:
REMARK  status: ('A' for Active; 'I' for Inactive)
REMARK    1  A    between atoms: O_2  and  C_12 
REMARK    2  A    between atoms: O_2  and  C_14 
REMARK    3  A    between atoms: O_3  and  C_8 
REMARK    4  A    between atoms: O_4  and  C_9 
REMARK    5  A    between atoms: O_5  and  C_10 
REMARK    6  A    between atoms: O_6  and  C_13 
REMARK    7  A    between atoms: O_7  and  C_21 
REMARK    8  A    between atoms: C_11  and  C_13 
REMARK    9  A    between atoms: C_14  and  C_15 
REMARK   10  A    between atoms: C_15  and  C_16 
ROOT
HETATM    1  O   UNK     0     185.108 185.494 172.723  0.00  0.00    -0.348 OA
HETATM    2  C   UNK     0     186.703 185.394 175.110  0.00  0.00     0.183 C 
HETATM    3  C   UNK     0     187.294 185.734 173.742  0.00  0.00     0.180 C 
HETATM    4  C   UNK     0     185.394 184.615 174.969  0.00  0.00     0.204 C 
HETATM    5  C   UNK     0     186.236 186.364 172.834  0.00  0.00     0.179 C 
HETATM    6  C   UNK     0     184.451 185.289 173.972  0.00  0.00     0.291 C 
ENDROOT
BRANCH   5   7
HETATM    7  C   UNK     0     186.771 186.604 171.426  0.00  0.00     0.198 C 
BRANCH   7   8
HETATM    8  O   UNK     0     187.441 187.850 171.404  0.00  0.00    -0.398 OA
HETATM    9  H   UNK     0     188.089 187.849 172.129  0.00  0.00     0.209 HD
ENDBRANCH   7   8
ENDBRANCH   5   7
BRANCH   6  10
HETATM   10  O   UNK     0     183.323 184.435 173.788  0.00  0.00    -0.358 OA
BRANCH  10  11
HETATM   11  C   UNK     0     183.555 183.489 172.755  0.00  0.00     0.175 C 
BRANCH  11  12
HETATM   12  C   UNK     0     183.493 182.077 173.326  0.00  0.00     0.065 C 
BRANCH  12  13
HETATM   13  C   UNK     0     182.258 181.331 172.881  0.00  0.00    -0.056 A 
HETATM   14  C   UNK     0     181.042 181.992 172.845  0.00  0.00     0.010 A 
HETATM   15  C   UNK     0     179.901 181.304 172.433  0.00  0.00     0.037 A 
HETATM   16  C   UNK     0     179.993 179.961 172.064  0.00  0.00     0.065 A 
HETATM   17  C   UNK     0     181.224 179.309 172.105  0.00  0.00     0.037 A 
HETATM   18  C   UNK     0     182.365 179.998 172.516  0.00  0.00     0.010 A 
BRANCH  16  19
HETATM   19  O   UNK     0     178.879 179.289 171.662  0.00  0.00    -0.361 OA
HETATM   20  H   UNK     0     178.225 179.304 172.382  0.00  0.00     0.217 HD
ENDBRANCH  16  19
ENDBRANCH  12  13
ENDBRANCH  11  12
ENDBRANCH  10  11
ENDBRANCH   6  10
BRANCH   3  21
HETATM   21  O   UNK     0     188.375 186.647 173.910  0.00  0.00    -0.390 OA
HETATM   22  H   UNK     0     188.490 186.805 174.863  0.00  0.00     0.210 HD
ENDBRANCH   3  21
BRANCH   4  23
HETATM   23  O   UNK     0     184.738 184.557 176.236  0.00  0.00    -0.388 OA
HETATM   24  H   UNK     0     183.787 184.705 176.090  0.00  0.00     0.210 HD
ENDBRANCH   4  23
BRANCH   2  25
HETATM   25  O   UNK     0     187.654 184.599 175.818  0.00  0.00    -0.390 OA
HETATM   26  H   UNK     0     188.481 184.608 175.305  0.00  0.00     0.210 HD
ENDBRANCH   2  25
TORSDOF 10
