REMARK VINA RESULT:      -6.2      3.914      5.797
REMARK  10 active torsions:
REMARK  status: ('A' for Active; 'I' for Inactive)
REMARK    1  A    between atoms: O_2  and  C_12 
REMARK    2  A    between atoms: O_2  and  C_14 
REMARK    3  A    between atoms: O_3  and  C_8 
REMARK    4  A    between atoms: O_4  and  C_9 
REMARK    5  A    between atoms: O_5  and  C_10 
REMARK    6  A    between atoms: O_6  and  C_13 
REMARK    7  A    between atoms: O_7  and  C_21 
REMARK    8  A    between atoms: C_11  and  C_13 
REMARK    9  A    between atoms: C_14  and  C_15 
REMARK   10  A    between atoms: C_15  and  C_16 
ROOT
HETATM    1  O   UNK     0     187.054 184.158 172.271  0.00  0.00    -0.348 OA
HETATM    2  C   UNK     0     187.972 186.875 172.109  0.00  0.00     0.183 C 
HETATM    3  C   UNK     0     188.256 185.846 171.014  0.00  0.00     0.180 C 
HETATM    4  C   UNK     0     187.671 186.193 173.444  0.00  0.00     0.204 C 
HETATM    5  C   UNK     0     187.169 184.770 170.985  0.00  0.00     0.179 C 
HETATM    6  C   UNK     0     186.639 185.078 173.279  0.00  0.00     0.291 C 
ENDROOT
BRANCH   5   7
HETATM    7  C   UNK     0     187.491 183.668 169.981  0.00  0.00     0.198 C 
BRANCH   7   8
HETATM    8  O   UNK     0     188.896 183.600 169.821  0.00  0.00    -0.398 OA
HETATM    9  H   UNK     0     189.302 183.970 170.622  0.00  0.00     0.209 HD
ENDBRANCH   7   8
ENDBRANCH   5   7
BRANCH   6  10
HETATM   10  O   UNK     0     186.521 184.401 174.529  0.00  0.00    -0.358 OA
BRANCH  10  11
HETATM   11  C   UNK     0     185.603 183.321 174.447  0.00  0.00     0.175 C 
BRANCH  11  12
HETATM   12  C   UNK     0     184.347 183.649 175.245  0.00  0.00     0.065 C 
BRANCH  12  13
HETATM   13  C   UNK     0     183.123 183.759 174.369  0.00  0.00    -0.056 A 
HETATM   14  C   UNK     0     183.140 184.618 173.283  0.00  0.00     0.010 A 
HETATM   15  C   UNK     0     182.009 184.719 172.473  0.00  0.00     0.037 A 
HETATM   16  C   UNK     0     180.874 183.960 172.763  0.00  0.00     0.065 A 
HETATM   17  C   UNK     0     180.871 183.100 173.860  0.00  0.00     0.037 A 
HETATM   18  C   UNK     0     182.003 182.999 174.669  0.00  0.00     0.010 A 
BRANCH  16  19
HETATM   19  O   UNK     0     179.770 184.060 171.973  0.00  0.00    -0.361 OA
HETATM   20  H   UNK     0     179.695 183.254 171.433  0.00  0.00     0.217 HD
ENDBRANCH  16  19
ENDBRANCH  12  13
ENDBRANCH  11  12
ENDBRANCH  10  11
ENDBRANCH   6  10
BRANCH   3  21
HETATM   21  O   UNK     0     188.301 186.504 169.750  0.00  0.00    -0.390 OA
HETATM   22  H   UNK     0     187.944 185.895 169.081  0.00  0.00     0.210 HD
ENDBRANCH   3  21
BRANCH   4  23
HETATM   23  O   UNK     0     187.148 187.155 174.360  0.00  0.00    -0.388 OA
HETATM   24  H   UNK     0     186.784 187.896 173.844  0.00  0.00     0.210 HD
ENDBRANCH   4  23
BRANCH   2  25
HETATM   25  O   UNK     0     189.127 187.703 172.247  0.00  0.00    -0.390 OA
HETATM   26  H   UNK     0     188.923 188.560 171.834  0.00  0.00     0.210 HD
ENDBRANCH   2  25
TORSDOF 10
