REMARK VINA RESULT:      -6.3      0.000      0.000
REMARK  10 active torsions:
REMARK  status: ('A' for Active; 'I' for Inactive)
REMARK    1  A    between atoms: O_2  and  C_12 
REMARK    2  A    between atoms: O_2  and  C_14 
REMARK    3  A    between atoms: O_3  and  C_8 
REMARK    4  A    between atoms: O_4  and  C_9 
REMARK    5  A    between atoms: O_5  and  C_10 
REMARK    6  A    between atoms: O_6  and  C_13 
REMARK    7  A    between atoms: O_7  and  C_21 
REMARK    8  A    between atoms: C_11  and  C_13 
REMARK    9  A    between atoms: C_14  and  C_15 
REMARK   10  A    between atoms: C_15  and  C_16 
ROOT
HETATM    1  O   UNK     0     184.772 185.108 173.383  0.00  0.00    -0.348 OA
HETATM    2  C   UNK     0     187.116 184.344 174.856  0.00  0.00     0.183 C 
HETATM    3  C   UNK     0     185.755 183.683 175.078  0.00  0.00     0.180 C 
HETATM    4  C   UNK     0     186.961 185.730 174.228  0.00  0.00     0.204 C 
HETATM    5  C   UNK     0     184.904 183.751 173.809  0.00  0.00     0.179 C 
HETATM    6  C   UNK     0     186.021 185.693 173.024  0.00  0.00     0.291 C 
ENDROOT
BRANCH   5   7
HETATM    7  C   UNK     0     183.500 183.203 174.040  0.00  0.00     0.198 C 
BRANCH   7   8
HETATM    8  O   UNK     0     183.241 183.196 175.432  0.00  0.00    -0.398 OA
HETATM    9  H   UNK     0     183.925 182.649 175.855  0.00  0.00     0.209 HD
ENDBRANCH   7   8
ENDBRANCH   5   7
BRANCH   6  10
HETATM   10  O   UNK     0     185.817 187.035 172.586  0.00  0.00    -0.358 OA
BRANCH  10  11
HETATM   11  C   UNK     0     185.103 187.075 171.359  0.00  0.00     0.175 C 
BRANCH  11  12
HETATM   12  C   UNK     0     185.486 188.329 170.581  0.00  0.00     0.065 C 
BRANCH  12  13
HETATM   13  C   UNK     0     184.294 188.983 169.926  0.00  0.00    -0.056 A 
HETATM   14  C   UNK     0     184.273 190.360 169.774  0.00  0.00     0.010 A 
HETATM   15  C   UNK     0     183.171 190.965 169.168  0.00  0.00     0.037 A 
HETATM   16  C   UNK     0     182.104 190.183 168.723  0.00  0.00     0.065 A 
HETATM   17  C   UNK     0     182.139 188.799 168.883  0.00  0.00     0.037 A 
HETATM   18  C   UNK     0     183.241 188.195 169.488  0.00  0.00     0.010 A 
BRANCH  16  19
HETATM   19  O   UNK     0     181.029 190.774 168.132  0.00  0.00    -0.361 OA
HETATM   20  H   UNK     0     180.835 190.312 167.299  0.00  0.00     0.217 HD
ENDBRANCH  16  19
ENDBRANCH  12  13
ENDBRANCH  11  12
ENDBRANCH  10  11
ENDBRANCH   6  10
BRANCH   3  21
HETATM   21  O   UNK     0     185.949 182.319 175.443  0.00  0.00    -0.390 OA
HETATM   22  H   UNK     0     186.159 182.288 176.392  0.00  0.00     0.210 HD
ENDBRANCH   3  21
BRANCH   4  23
HETATM   23  O   UNK     0     188.237 186.194 173.786  0.00  0.00    -0.388 OA
HETATM   24  H   UNK     0     188.888 185.993 174.481  0.00  0.00     0.210 HD
ENDBRANCH   4  23
BRANCH   2  25
HETATM   25  O   UNK     0     187.761 184.465 176.124  0.00  0.00    -0.390 OA
HETATM   26  H   UNK     0     187.073 184.397 176.808  0.00  0.00     0.210 HD
ENDBRANCH   2  25
TORSDOF 10
