REMARK VINA RESULT:      -6.2      3.266      7.492
REMARK  10 active torsions:
REMARK  status: ('A' for Active; 'I' for Inactive)
REMARK    1  A    between atoms: O_2  and  C_12 
REMARK    2  A    between atoms: O_2  and  C_14 
REMARK    3  A    between atoms: O_3  and  C_8 
REMARK    4  A    between atoms: O_4  and  C_9 
REMARK    5  A    between atoms: O_5  and  C_10 
REMARK    6  A    between atoms: O_6  and  C_13 
REMARK    7  A    between atoms: O_7  and  C_21 
REMARK    8  A    between atoms: C_11  and  C_13 
REMARK    9  A    between atoms: C_14  and  C_15 
REMARK   10  A    between atoms: C_15  and  C_16 
ROOT
HETATM    1  O   UNK     0     184.665 184.817 173.512  0.00  0.00    -0.348 OA
HETATM    2  C   UNK     0     187.096 183.945 174.770  0.00  0.00     0.183 C 
HETATM    3  C   UNK     0     187.059 185.100 173.769  0.00  0.00     0.180 C 
HETATM    4  C   UNK     0     185.891 183.020 174.592  0.00  0.00     0.204 C 
HETATM    5  C   UNK     0     185.688 185.780 173.774  0.00  0.00     0.179 C 
HETATM    6  C   UNK     0     184.586 183.814 174.523  0.00  0.00     0.291 C 
ENDROOT
BRANCH   5   7
HETATM    7  C   UNK     0     185.588 186.859 172.702  0.00  0.00     0.198 C 
BRANCH   7   8
HETATM    8  O   UNK     0     184.433 186.614 171.920  0.00  0.00    -0.398 OA
HETATM    9  H   UNK     0     184.616 186.928 171.019  0.00  0.00     0.209 HD
ENDBRANCH   7   8
ENDBRANCH   5   7
BRANCH   6  10
HETATM   10  O   UNK     0     183.534 182.901 174.215  0.00  0.00    -0.358 OA
BRANCH  10  11
HETATM   11  C   UNK     0     183.438 182.677 172.816  0.00  0.00     0.175 C 
BRANCH  11  12
HETATM   12  C   UNK     0     182.120 181.980 172.495  0.00  0.00     0.065 C 
BRANCH  12  13
HETATM   13  C   UNK     0     182.288 180.491 172.313  0.00  0.00    -0.056 A 
HETATM   14  C   UNK     0     183.529 179.985 171.964  0.00  0.00     0.010 A 
HETATM   15  C   UNK     0     183.683 178.609 171.797  0.00  0.00     0.037 A 
HETATM   16  C   UNK     0     182.593 177.757 171.981  0.00  0.00     0.065 A 
HETATM   17  C   UNK     0     181.350 178.281 172.332  0.00  0.00     0.037 A 
HETATM   18  C   UNK     0     181.196 179.658 172.500  0.00  0.00     0.010 A 
BRANCH  16  19
HETATM   19  O   UNK     0     182.745 176.414 171.817  0.00  0.00    -0.361 OA
HETATM   20  H   UNK     0     183.587 176.141 172.219  0.00  0.00     0.217 HD
ENDBRANCH  16  19
ENDBRANCH  12  13
ENDBRANCH  11  12
ENDBRANCH  10  11
ENDBRANCH   6  10
BRANCH   3  21
HETATM   21  O   UNK     0     188.059 186.054 174.114  0.00  0.00    -0.390 OA
HETATM   22  H   UNK     0     187.670 186.682 174.747  0.00  0.00     0.210 HD
ENDBRANCH   3  21
BRANCH   4  23
HETATM   23  O   UNK     0     185.812 182.126 175.703  0.00  0.00    -0.388 OA
HETATM   24  H   UNK     0     186.648 181.631 175.751  0.00  0.00     0.210 HD
ENDBRANCH   4  23
BRANCH   2  25
HETATM   25  O   UNK     0     188.298 183.207 174.548  0.00  0.00    -0.390 OA
HETATM   26  H   UNK     0     188.127 182.286 174.810  0.00  0.00     0.210 HD
ENDBRANCH   2  25
TORSDOF 10
