MODEL 1
REMARK VINA RESULT:      -7.3      0.000      0.000
REMARK  10 active torsions:
REMARK  status: ('A' for Active; 'I' for Inactive)
REMARK    1  A    between atoms: O_2  and  C_12 
REMARK    2  A    between atoms: O_2  and  C_14 
REMARK    3  A    between atoms: O_3  and  C_8 
REMARK    4  A    between atoms: O_4  and  C_9 
REMARK    5  A    between atoms: O_5  and  C_10 
REMARK    6  A    between atoms: O_6  and  C_13 
REMARK    7  A    between atoms: O_7  and  C_21 
REMARK    8  A    between atoms: C_11  and  C_13 
REMARK    9  A    between atoms: C_14  and  C_15 
REMARK   10  A    between atoms: C_15  and  C_16 
ROOT
HETATM    1  O   UNK     0     153.091 156.264 151.534  0.00  0.00    -0.348 OA
HETATM    2  C   UNK     0     154.725 154.029 152.299  0.00  0.00     0.183 C 
HETATM    3  C   UNK     0     155.291 155.440 152.131  0.00  0.00     0.180 C 
HETATM    4  C   UNK     0     153.423 153.858 151.516  0.00  0.00     0.204 C 
HETATM    5  C   UNK     0     154.211 156.492 152.391  0.00  0.00     0.179 C 
HETATM    6  C   UNK     0     152.457 155.011 151.785  0.00  0.00     0.291 C 
ENDROOT
BRANCH   5   7
HETATM    7  C   UNK     0     154.719 157.903 152.115  0.00  0.00     0.198 C 
BRANCH   7   8
HETATM    8  O   UNK     0     155.411 158.366 153.260  0.00  0.00    -0.398 OA
HETATM    9  H   UNK     0     155.785 157.590 153.711  0.00  0.00     0.209 HD
ENDBRANCH   7   8
ENDBRANCH   5   7
BRANCH   6  10
HETATM   10  O   UNK     0     151.336 154.856 150.916  0.00  0.00    -0.358 OA
BRANCH  10  11
HETATM   11  C   UNK     0     150.256 155.689 151.313  0.00  0.00     0.175 C 
BRANCH  11  12
HETATM   12  C   UNK     0     148.951 154.904 151.251  0.00  0.00     0.065 C 
BRANCH  12  13
HETATM   13  C   UNK     0     147.841 155.686 150.592  0.00  0.00    -0.056 A 
HETATM   14  C   UNK     0     147.958 157.061 150.472  0.00  0.00     0.010 A 
HETATM   15  C   UNK     0     146.932 157.784 149.862  0.00  0.00     0.037 A 
HETATM   16  C   UNK     0     145.803 157.120 149.380  0.00  0.00     0.065 A 
HETATM   17  C   UNK     0     145.700 155.736 149.508  0.00  0.00     0.037 A 
HETATM   18  C   UNK     0     146.726 155.014 150.118  0.00  0.00     0.010 A 
BRANCH  16  19
HETATM   19  O   UNK     0     144.802 157.826 148.785  0.00  0.00    -0.361 OA
HETATM   20  H   UNK     0     145.194 158.468 148.169  0.00  0.00     0.217 HD
ENDBRANCH  16  19
ENDBRANCH  12  13
ENDBRANCH  11  12
ENDBRANCH  10  11
ENDBRANCH   6  10
BRANCH   3  21
HETATM   21  O   UNK     0     156.364 155.629 153.050  0.00  0.00    -0.390 OA
HETATM   22  H   UNK     0     156.990 154.894 152.937  0.00  0.00     0.210 HD
ENDBRANCH   3  21
BRANCH   4  23
HETATM   23  O   UNK     0     152.789 152.642 151.911  0.00  0.00    -0.388 OA
HETATM   24  H   UNK     0     152.717 152.071 151.126  0.00  0.00     0.210 HD
ENDBRANCH   4  23
BRANCH   2  25
HETATM   25  O   UNK     0     155.697 153.103 151.814  0.00  0.00    -0.390 OA
HETATM   26  H   UNK     0     155.782 153.244 150.855  0.00  0.00     0.210 HD
ENDBRANCH   2  25
TORSDOF 10
ENDMDL
MODEL 2
REMARK VINA RESULT:      -7.3      0.145      1.063
REMARK  10 active torsions:
REMARK  status: ('A' for Active; 'I' for Inactive)
REMARK    1  A    between atoms: O_2  and  C_12 
REMARK    2  A    between atoms: O_2  and  C_14 
REMARK    3  A    between atoms: O_3  and  C_8 
REMARK    4  A    between atoms: O_4  and  C_9 
REMARK    5  A    between atoms: O_5  and  C_10 
REMARK    6  A    between atoms: O_6  and  C_13 
REMARK    7  A    between atoms: O_7  and  C_21 
REMARK    8  A    between atoms: C_11  and  C_13 
REMARK    9  A    between atoms: C_14  and  C_15 
REMARK   10  A    between atoms: C_15  and  C_16 
ROOT
HETATM    1  O   UNK     0     153.084 156.312 151.454  0.00  0.00    -0.348 OA
HETATM    2  C   UNK     0     154.696 154.069 152.241  0.00  0.00     0.183 C 
HETATM    3  C   UNK     0     155.267 155.480 152.098  0.00  0.00     0.180 C 
HETATM    4  C   UNK     0     153.413 153.906 151.425  0.00  0.00     0.204 C 
HETATM    5  C   UNK     0     154.183 156.532 152.340  0.00  0.00     0.179 C 
HETATM    6  C   UNK     0     152.442 155.059 151.680  0.00  0.00     0.291 C 
ENDROOT
BRANCH   5   7
HETATM    7  C   UNK     0     154.700 157.945 152.087  0.00  0.00     0.198 C 
BRANCH   7   8
HETATM    8  O   UNK     0     155.424 158.371 153.226  0.00  0.00    -0.398 OA
HETATM    9  H   UNK     0     155.205 157.768 153.957  0.00  0.00     0.209 HD
ENDBRANCH   7   8
ENDBRANCH   5   7
BRANCH   6  10
HETATM   10  O   UNK     0     151.342 154.912 150.783  0.00  0.00    -0.358 OA
BRANCH  10  11
HETATM   11  C   UNK     0     150.270 155.774 151.136  0.00  0.00     0.175 C 
BRANCH  11  12
HETATM   12  C   UNK     0     148.980 154.970 151.255  0.00  0.00     0.065 C 
BRANCH  12  13
HETATM   13  C   UNK     0     147.812 155.657 150.590  0.00  0.00    -0.056 A 
HETATM   14  C   UNK     0     146.753 154.897 150.123  0.00  0.00     0.010 A 
HETATM   15  C   UNK     0     145.674 155.532 149.509  0.00  0.00     0.037 A 
HETATM   16  C   UNK     0     145.670 156.920 149.368  0.00  0.00     0.065 A 
HETATM   17  C   UNK     0     146.743 157.673 149.843  0.00  0.00     0.037 A 
HETATM   18  C   UNK     0     147.822 157.037 150.458  0.00  0.00     0.010 A 
BRANCH  16  19
HETATM   19  O   UNK     0     144.616 157.539 148.768  0.00  0.00    -0.361 OA
HETATM   20  H   UNK     0     144.525 157.200 147.862  0.00  0.00     0.217 HD
ENDBRANCH  16  19
ENDBRANCH  12  13
ENDBRANCH  11  12
ENDBRANCH  10  11
ENDBRANCH   6  10
BRANCH   3  21
HETATM   21  O   UNK     0     156.318 155.661 153.043  0.00  0.00    -0.390 OA
HETATM   22  H   UNK     0     156.690 154.787 153.251  0.00  0.00     0.210 HD
ENDBRANCH   3  21
BRANCH   4  23
HETATM   23  O   UNK     0     152.768 152.688 151.795  0.00  0.00    -0.388 OA
HETATM   24  H   UNK     0     153.287 151.949 151.431  0.00  0.00     0.210 HD
ENDBRANCH   4  23
BRANCH   2  25
HETATM   25  O   UNK     0     155.678 153.145 151.772  0.00  0.00    -0.390 OA
HETATM   26  H   UNK     0     155.788 152.463 152.456  0.00  0.00     0.210 HD
ENDBRANCH   2  25
TORSDOF 10
ENDMDL
MODEL 3
REMARK VINA RESULT:      -7.1      1.596      1.971
REMARK  10 active torsions:
REMARK  status: ('A' for Active; 'I' for Inactive)
REMARK    1  A    between atoms: O_2  and  C_12 
REMARK    2  A    between atoms: O_2  and  C_14 
REMARK    3  A    between atoms: O_3  and  C_8 
REMARK    4  A    between atoms: O_4  and  C_9 
REMARK    5  A    between atoms: O_5  and  C_10 
REMARK    6  A    between atoms: O_6  and  C_13 
REMARK    7  A    between atoms: O_7  and  C_21 
REMARK    8  A    between atoms: C_11  and  C_13 
REMARK    9  A    between atoms: C_14  and  C_15 
REMARK   10  A    between atoms: C_15  and  C_16 
ROOT
HETATM    1  O   UNK     0     152.664 154.317 152.338  0.00  0.00    -0.348 OA
HETATM    2  C   UNK     0     155.278 154.401 151.151  0.00  0.00     0.183 C 
HETATM    3  C   UNK     0     154.981 155.000 152.526  0.00  0.00     0.180 C 
HETATM    4  C   UNK     0     154.004 154.283 150.313  0.00  0.00     0.204 C 
HETATM    5  C   UNK     0     153.808 154.277 153.192  0.00  0.00     0.179 C 
HETATM    6  C   UNK     0     152.874 153.627 151.107  0.00  0.00     0.291 C 
ENDROOT
BRANCH   5   7
HETATM    7  C   UNK     0     153.417 154.931 154.513  0.00  0.00     0.198 C 
BRANCH   7   8
HETATM    8  O   UNK     0     154.364 154.560 155.497  0.00  0.00    -0.398 OA
HETATM    9  H   UNK     0     154.047 154.898 156.352  0.00  0.00     0.209 HD
ENDBRANCH   7   8
ENDBRANCH   5   7
BRANCH   6  10
HETATM   10  O   UNK     0     151.690 153.683 150.314  0.00  0.00    -0.358 OA
BRANCH  10  11
HETATM   11  C   UNK     0     150.911 154.828 150.629  0.00  0.00     0.175 C 
BRANCH  11  12
HETATM   12  C   UNK     0     149.462 154.417 150.860  0.00  0.00     0.065 C 
BRANCH  12  13
HETATM   13  C   UNK     0     148.486 155.478 150.410  0.00  0.00    -0.056 A 
HETATM   14  C   UNK     0     148.901 156.798 150.343  0.00  0.00     0.010 A 
HETATM   15  C   UNK     0     148.000 157.778 149.927  0.00  0.00     0.037 A 
HETATM   16  C   UNK     0     146.694 157.424 149.584  0.00  0.00     0.065 A 
HETATM   17  C   UNK     0     146.291 156.091 149.657  0.00  0.00     0.037 A 
HETATM   18  C   UNK     0     147.193 155.112 150.072  0.00  0.00     0.010 A 
BRANCH  16  19
HETATM   19  O   UNK     0     145.815 158.381 149.178  0.00  0.00    -0.361 OA
HETATM   20  H   UNK     0     145.969 159.190 149.696  0.00  0.00     0.217 HD
ENDBRANCH  16  19
ENDBRANCH  12  13
ENDBRANCH  11  12
ENDBRANCH  10  11
ENDBRANCH   6  10
BRANCH   3  21
HETATM   21  O   UNK     0     156.137 154.879 153.351  0.00  0.00    -0.390 OA
HETATM   22  H   UNK     0     156.078 154.036 153.831  0.00  0.00     0.210 HD
ENDBRANCH   3  21
BRANCH   4  23
HETATM   23  O   UNK     0     154.267 153.479 149.163  0.00  0.00    -0.388 OA
HETATM   24  H   UNK     0     153.753 152.657 149.245  0.00  0.00     0.210 HD
ENDBRANCH   4  23
BRANCH   2  25
HETATM   25  O   UNK     0     156.206 155.259 150.487  0.00  0.00    -0.390 OA
HETATM   26  H   UNK     0     156.759 155.674 151.170  0.00  0.00     0.210 HD
ENDBRANCH   2  25
TORSDOF 10
ENDMDL
MODEL 4
REMARK VINA RESULT:      -7.0      1.678      3.421
REMARK  10 active torsions:
REMARK  status: ('A' for Active; 'I' for Inactive)
REMARK    1  A    between atoms: O_2  and  C_12 
REMARK    2  A    between atoms: O_2  and  C_14 
REMARK    3  A    between atoms: O_3  and  C_8 
REMARK    4  A    between atoms: O_4  and  C_9 
REMARK    5  A    between atoms: O_5  and  C_10 
REMARK    6  A    between atoms: O_6  and  C_13 
REMARK    7  A    between atoms: O_7  and  C_21 
REMARK    8  A    between atoms: C_11  and  C_13 
REMARK    9  A    between atoms: C_14  and  C_15 
REMARK   10  A    between atoms: C_15  and  C_16 
ROOT
HETATM    1  O   UNK     0     151.898 155.007 151.093  0.00  0.00    -0.348 OA
HETATM    2  C   UNK     0     153.721 154.581 153.271  0.00  0.00     0.183 C 
HETATM    3  C   UNK     0     153.010 153.430 152.559  0.00  0.00     0.180 C 
HETATM    4  C   UNK     0     152.967 155.898 153.082  0.00  0.00     0.204 C 
HETATM    5  C   UNK     0     152.674 153.808 151.115  0.00  0.00     0.179 C 
HETATM    6  C   UNK     0     152.607 156.128 151.615  0.00  0.00     0.291 C 
ENDROOT
BRANCH   5   7
HETATM    7  C   UNK     0     151.861 152.721 150.421  0.00  0.00     0.198 C 
BRANCH   7   8
HETATM    8  O   UNK     0     150.864 152.263 151.315  0.00  0.00    -0.398 OA
HETATM    9  H   UNK     0     150.172 151.830 150.787  0.00  0.00     0.209 HD
ENDBRANCH   7   8
ENDBRANCH   5   7
BRANCH   6  10
HETATM   10  O   UNK     0     151.787 157.294 151.542  0.00  0.00    -0.358 OA
BRANCH  10  11
HETATM   11  C   UNK     0     150.543 157.011 150.920  0.00  0.00     0.175 C 
BRANCH  11  12
HETATM   12  C   UNK     0     149.816 158.314 150.605  0.00  0.00     0.065 C 
BRANCH  12  13
HETATM   13  C   UNK     0     148.386 158.085 150.181  0.00  0.00    -0.056 A 
HETATM   14  C   UNK     0     147.966 156.802 149.872  0.00  0.00     0.010 A 
HETATM   15  C   UNK     0     146.644 156.590 149.480  0.00  0.00     0.037 A 
HETATM   16  C   UNK     0     145.759 157.667 149.402  0.00  0.00     0.065 A 
HETATM   17  C   UNK     0     146.197 158.953 149.716  0.00  0.00     0.037 A 
HETATM   18  C   UNK     0     147.519 159.164 150.108  0.00  0.00     0.010 A 
BRANCH  16  19
HETATM   19  O   UNK     0     144.469 157.460 149.020  0.00  0.00    -0.361 OA
HETATM   20  H   UNK     0     143.890 158.049 149.534  0.00  0.00     0.217 HD
ENDBRANCH  16  19
ENDBRANCH  12  13
ENDBRANCH  11  12
ENDBRANCH  10  11
ENDBRANCH   6  10
BRANCH   3  21
HETATM   21  O   UNK     0     153.854 152.282 152.562  0.00  0.00    -0.390 OA
HETATM   22  H   UNK     0     154.678 152.513 152.100  0.00  0.00     0.210 HD
ENDBRANCH   3  21
BRANCH   4  23
HETATM   23  O   UNK     0     153.790 156.981 153.517  0.00  0.00    -0.388 OA
HETATM   24  H   UNK     0     153.219 157.757 153.654  0.00  0.00     0.210 HD
ENDBRANCH   4  23
BRANCH   2  25
HETATM   25  O   UNK     0     153.789 154.267 154.662  0.00  0.00    -0.390 OA
HETATM   26  H   UNK     0     153.979 153.316 154.737  0.00  0.00     0.210 HD
ENDBRANCH   2  25
TORSDOF 10
ENDMDL
MODEL 5
REMARK VINA RESULT:      -6.9      4.084      5.532
REMARK  10 active torsions:
REMARK  status: ('A' for Active; 'I' for Inactive)
REMARK    1  A    between atoms: O_2  and  C_12 
REMARK    2  A    between atoms: O_2  and  C_14 
REMARK    3  A    between atoms: O_3  and  C_8 
REMARK    4  A    between atoms: O_4  and  C_9 
REMARK    5  A    between atoms: O_5  and  C_10 
REMARK    6  A    between atoms: O_6  and  C_13 
REMARK    7  A    between atoms: O_7  and  C_21 
REMARK    8  A    between atoms: C_11  and  C_13 
REMARK    9  A    between atoms: C_14  and  C_15 
REMARK   10  A    between atoms: C_15  and  C_16 
ROOT
HETATM    1  O   UNK     0     152.876 155.980 151.328  0.00  0.00    -0.348 OA
HETATM    2  C   UNK     0     155.211 154.976 152.664  0.00  0.00     0.183 C 
HETATM    3  C   UNK     0     155.128 156.401 152.117  0.00  0.00     0.180 C 
HETATM    4  C   UNK     0     154.212 154.055 151.962  0.00  0.00     0.204 C 
HETATM    5  C   UNK     0     153.678 156.887 152.086  0.00  0.00     0.179 C 
HETATM    6  C   UNK     0     152.819 154.681 151.913  0.00  0.00     0.291 C 
ENDROOT
BRANCH   5   7
HETATM    7  C   UNK     0     153.557 158.261 151.435  0.00  0.00     0.198 C 
BRANCH   7   8
HETATM    8  O   UNK     0     153.843 159.249 152.408  0.00  0.00    -0.398 OA
HETATM    9  H   UNK     0     153.596 160.111 152.034  0.00  0.00     0.209 HD
ENDBRANCH   7   8
ENDBRANCH   5   7
BRANCH   6  10
HETATM   10  O   UNK     0     151.985 153.834 151.123  0.00  0.00    -0.358 OA
BRANCH  10  11
HETATM   11  C   UNK     0     152.410 153.809 149.769  0.00  0.00     0.175 C 
BRANCH  11  12
HETATM   12  C   UNK     0     152.272 152.397 149.211  0.00  0.00     0.065 C 
BRANCH  12  13
HETATM   13  C   UNK     0     152.802 152.282 147.803  0.00  0.00    -0.056 A 
HETATM   14  C   UNK     0     152.801 153.398 146.983  0.00  0.00     0.010 A 
HETATM   15  C   UNK     0     153.291 153.291 145.681  0.00  0.00     0.037 A 
HETATM   16  C   UNK     0     153.776 152.068 145.217  0.00  0.00     0.065 A 
HETATM   17  C   UNK     0     153.771 150.953 146.054  0.00  0.00     0.037 A 
HETATM   18  C   UNK     0     153.281 151.060 147.355  0.00  0.00     0.010 A 
BRANCH  16  19
HETATM   19  O   UNK     0     154.254 151.964 143.947  0.00  0.00    -0.361 OA
HETATM   20  H   UNK     0     155.208 152.154 143.953  0.00  0.00     0.217 HD
ENDBRANCH  16  19
ENDBRANCH  12  13
ENDBRANCH  11  12
ENDBRANCH  10  11
ENDBRANCH   6  10
BRANCH   3  21
HETATM   21  O   UNK     0     155.899 157.269 152.945  0.00  0.00    -0.390 OA
HETATM   22  H   UNK     0     156.748 157.433 152.501  0.00  0.00     0.210 HD
ENDBRANCH   3  21
BRANCH   4  23
HETATM   23  O   UNK     0     154.123 152.821 152.676  0.00  0.00    -0.388 OA
HETATM   24  H   UNK     0     153.231 152.758 153.059  0.00  0.00     0.210 HD
ENDBRANCH   4  23
BRANCH   2  25
HETATM   25  O   UNK     0     156.538 154.494 152.444  0.00  0.00    -0.390 OA
HETATM   26  H   UNK     0     156.475 153.542 152.258  0.00  0.00     0.210 HD
ENDBRANCH   2  25
TORSDOF 10
ENDMDL
MODEL 6
REMARK VINA RESULT:      -6.8      2.519      3.227
REMARK  10 active torsions:
REMARK  status: ('A' for Active; 'I' for Inactive)
REMARK    1  A    between atoms: O_2  and  C_12 
REMARK    2  A    between atoms: O_2  and  C_14 
REMARK    3  A    between atoms: O_3  and  C_8 
REMARK    4  A    between atoms: O_4  and  C_9 
REMARK    5  A    between atoms: O_5  and  C_10 
REMARK    6  A    between atoms: O_6  and  C_13 
REMARK    7  A    between atoms: O_7  and  C_21 
REMARK    8  A    between atoms: C_11  and  C_13 
REMARK    9  A    between atoms: C_14  and  C_15 
REMARK   10  A    between atoms: C_15  and  C_16 
ROOT
HETATM    1  O   UNK     0     153.190 156.691 151.853  0.00  0.00    -0.348 OA
HETATM    2  C   UNK     0     154.620 154.268 152.430  0.00  0.00     0.183 C 
HETATM    3  C   UNK     0     155.329 155.595 152.160  0.00  0.00     0.180 C 
HETATM    4  C   UNK     0     153.211 154.263 151.835  0.00  0.00     0.204 C 
HETATM    5  C   UNK     0     154.437 156.776 152.545  0.00  0.00     0.179 C 
HETATM    6  C   UNK     0     152.443 155.530 152.212  0.00  0.00     0.291 C 
ENDROOT
BRANCH   5   7
HETATM    7  C   UNK     0     155.076 158.111 152.176  0.00  0.00     0.198 C 
BRANCH   7   8
HETATM    8  O   UNK     0     155.620 158.690 153.347  0.00  0.00    -0.398 OA
HETATM    9  H   UNK     0     155.780 157.973 153.983  0.00  0.00     0.209 HD
ENDBRANCH   7   8
ENDBRANCH   5   7
BRANCH   6  10
HETATM   10  O   UNK     0     151.203 155.518 151.507  0.00  0.00    -0.358 OA
BRANCH  10  11
HETATM   11  C   UNK     0     151.230 156.404 150.399  0.00  0.00     0.175 C 
BRANCH  11  12
HETATM   12  C   UNK     0     149.872 157.080 150.245  0.00  0.00     0.065 C 
BRANCH  12  13
HETATM   13  C   UNK     0     149.877 158.500 150.757  0.00  0.00    -0.056 A 
HETATM   14  C   UNK     0     151.026 159.010 151.335  0.00  0.00     0.010 A 
HETATM   15  C   UNK     0     151.030 160.323 151.808  0.00  0.00     0.037 A 
HETATM   16  C   UNK     0     149.882 161.107 151.695  0.00  0.00     0.065 A 
HETATM   17  C   UNK     0     148.732 160.580 151.109  0.00  0.00     0.037 A 
HETATM   18  C   UNK     0     148.729 159.268 150.637  0.00  0.00     0.010 A 
BRANCH  16  19
HETATM   19  O   UNK     0     149.886 162.388 152.155  0.00  0.00    -0.361 OA
HETATM   20  H   UNK     0     150.736 162.562 152.597  0.00  0.00     0.217 HD
ENDBRANCH  16  19
ENDBRANCH  12  13
ENDBRANCH  11  12
ENDBRANCH  10  11
ENDBRANCH   6  10
BRANCH   3  21
HETATM   21  O   UNK     0     156.534 155.648 152.919  0.00  0.00    -0.390 OA
HETATM   22  H   UNK     0     156.628 154.804 153.393  0.00  0.00     0.210 HD
ENDBRANCH   3  21
BRANCH   4  23
HETATM   23  O   UNK     0     152.489 153.137 152.335  0.00  0.00    -0.388 OA
HETATM   24  H   UNK     0     152.338 153.275 153.287  0.00  0.00     0.210 HD
ENDBRANCH   4  23
BRANCH   2  25
HETATM   25  O   UNK     0     155.391 153.225 151.833  0.00  0.00    -0.390 OA
HETATM   26  H   UNK     0     155.569 152.563 152.523  0.00  0.00     0.210 HD
ENDBRANCH   2  25
TORSDOF 10
ENDMDL
MODEL 7
REMARK VINA RESULT:      -6.8      1.443      2.939
REMARK  10 active torsions:
REMARK  status: ('A' for Active; 'I' for Inactive)
REMARK    1  A    between atoms: O_2  and  C_12 
REMARK    2  A    between atoms: O_2  and  C_14 
REMARK    3  A    between atoms: O_3  and  C_8 
REMARK    4  A    between atoms: O_4  and  C_9 
REMARK    5  A    between atoms: O_5  and  C_10 
REMARK    6  A    between atoms: O_6  and  C_13 
REMARK    7  A    between atoms: O_7  and  C_21 
REMARK    8  A    between atoms: C_11  and  C_13 
REMARK    9  A    between atoms: C_14  and  C_15 
REMARK   10  A    between atoms: C_15  and  C_16 
ROOT
HETATM    1  O   UNK     0     152.498 156.085 151.964  0.00  0.00    -0.348 OA
HETATM    2  C   UNK     0     154.705 157.900 152.253  0.00  0.00     0.183 C 
HETATM    3  C   UNK     0     154.729 156.481 152.822  0.00  0.00     0.180 C 
HETATM    4  C   UNK     0     153.271 158.386 152.040  0.00  0.00     0.204 C 
HETATM    5  C   UNK     0     153.823 155.554 152.009  0.00  0.00     0.179 C 
HETATM    6  C   UNK     0     152.435 157.344 151.297  0.00  0.00     0.291 C 
ENDROOT
BRANCH   5   7
HETATM    7  C   UNK     0     153.739 154.162 152.627  0.00  0.00     0.198 C 
BRANCH   7   8
HETATM    8  O   UNK     0     153.837 154.285 154.033  0.00  0.00    -0.398 OA
HETATM    9  H   UNK     0     154.717 153.966 154.296  0.00  0.00     0.209 HD
ENDBRANCH   7   8
ENDBRANCH   5   7
BRANCH   6  10
HETATM   10  O   UNK     0     151.086 157.806 151.265  0.00  0.00    -0.358 OA
BRANCH  10  11
HETATM   11  C   UNK     0     150.357 157.199 150.208  0.00  0.00     0.175 C 
BRANCH  11  12
HETATM   12  C   UNK     0     149.338 156.220 150.780  0.00  0.00     0.065 C 
BRANCH  12  13
HETATM   13  C   UNK     0     147.946 156.466 150.252  0.00  0.00    -0.056 A 
HETATM   14  C   UNK     0     147.542 157.762 149.979  0.00  0.00     0.010 A 
HETATM   15  C   UNK     0     146.256 157.989 149.490  0.00  0.00     0.037 A 
HETATM   16  C   UNK     0     145.390 156.915 149.281  0.00  0.00     0.065 A 
HETATM   17  C   UNK     0     145.810 155.615 149.560  0.00  0.00     0.037 A 
HETATM   18  C   UNK     0     147.097 155.389 150.049  0.00  0.00     0.010 A 
BRANCH  16  19
HETATM   19  O   UNK     0     144.134 157.137 148.804  0.00  0.00    -0.361 OA
HETATM   20  H   UNK     0     143.514 156.543 149.261  0.00  0.00     0.217 HD
ENDBRANCH  16  19
ENDBRANCH  12  13
ENDBRANCH  11  12
ENDBRANCH  10  11
ENDBRANCH   6  10
BRANCH   3  21
HETATM   21  O   UNK     0     156.064 155.983 152.788  0.00  0.00    -0.390 OA
HETATM   22  H   UNK     0     156.626 156.593 153.295  0.00  0.00     0.210 HD
ENDBRANCH   3  21
BRANCH   4  23
HETATM   23  O   UNK     0     153.287 159.583 151.263  0.00  0.00    -0.388 OA
HETATM   24  H   UNK     0     152.889 159.386 150.397  0.00  0.00     0.210 HD
ENDBRANCH   4  23
BRANCH   2  25
HETATM   25  O   UNK     0     155.366 158.760 153.181  0.00  0.00    -0.390 OA
HETATM   26  H   UNK     0     154.682 159.161 153.744  0.00  0.00     0.210 HD
ENDBRANCH   2  25
TORSDOF 10
ENDMDL
MODEL 8
REMARK VINA RESULT:      -6.8      3.073      3.857
REMARK  10 active torsions:
REMARK  status: ('A' for Active; 'I' for Inactive)
REMARK    1  A    between atoms: O_2  and  C_12 
REMARK    2  A    between atoms: O_2  and  C_14 
REMARK    3  A    between atoms: O_3  and  C_8 
REMARK    4  A    between atoms: O_4  and  C_9 
REMARK    5  A    between atoms: O_5  and  C_10 
REMARK    6  A    between atoms: O_6  and  C_13 
REMARK    7  A    between atoms: O_7  and  C_21 
REMARK    8  A    between atoms: C_11  and  C_13 
REMARK    9  A    between atoms: C_14  and  C_15 
REMARK   10  A    between atoms: C_15  and  C_16 
ROOT
HETATM    1  O   UNK     0     152.827 154.496 152.208  0.00  0.00    -0.348 OA
HETATM    2  C   UNK     0     155.509 154.390 151.184  0.00  0.00     0.183 C 
HETATM    3  C   UNK     0     155.173 155.002 152.544  0.00  0.00     0.180 C 
HETATM    4  C   UNK     0     154.283 154.371 150.269  0.00  0.00     0.204 C 
HETATM    5  C   UNK     0     153.911 154.366 153.130  0.00  0.00     0.179 C 
HETATM    6  C   UNK     0     153.062 153.798 150.986  0.00  0.00     0.291 C 
ENDROOT
BRANCH   5   7
HETATM    7  C   UNK     0     153.489 155.041 154.431  0.00  0.00     0.198 C 
BRANCH   7   8
HETATM    8  O   UNK     0     154.332 154.582 155.471  0.00  0.00    -0.398 OA
HETATM    9  H   UNK     0     155.159 155.092 155.427  0.00  0.00     0.209 HD
ENDBRANCH   7   8
ENDBRANCH   5   7
BRANCH   6  10
HETATM   10  O   UNK     0     151.936 153.947 150.123  0.00  0.00    -0.358 OA
BRANCH  10  11
HETATM   11  C   UNK     0     151.831 155.277 149.635  0.00  0.00     0.175 C 
BRANCH  11  12
HETATM   12  C   UNK     0     150.547 155.915 150.152  0.00  0.00     0.065 C 
BRANCH  12  13
HETATM   13  C   UNK     0     150.791 157.264 150.784  0.00  0.00    -0.056 A 
HETATM   14  C   UNK     0     151.960 157.480 151.494  0.00  0.00     0.010 A 
HETATM   15  C   UNK     0     152.186 158.727 152.078  0.00  0.00     0.037 A 
HETATM   16  C   UNK     0     151.237 159.741 151.943  0.00  0.00     0.065 A 
HETATM   17  C   UNK     0     150.065 159.510 151.224  0.00  0.00     0.037 A 
HETATM   18  C   UNK     0     149.841 158.263 150.641  0.00  0.00     0.010 A 
BRANCH  16  19
HETATM   19  O   UNK     0     151.458 160.958 152.513  0.00  0.00    -0.361 OA
HETATM   20  H   UNK     0     151.689 160.830 153.449  0.00  0.00     0.217 HD
ENDBRANCH  16  19
ENDBRANCH  12  13
ENDBRANCH  11  12
ENDBRANCH  10  11
ENDBRANCH   6  10
BRANCH   3  21
HETATM   21  O   UNK     0     156.264 154.791 153.437  0.00  0.00    -0.390 OA
HETATM   22  H   UNK     0     156.048 155.220 154.283  0.00  0.00     0.210 HD
ENDBRANCH   3  21
BRANCH   4  23
HETATM   23  O   UNK     0     154.556 153.556 149.129  0.00  0.00    -0.388 OA
HETATM   24  H   UNK     0     154.068 153.924 148.372  0.00  0.00     0.210 HD
ENDBRANCH   4  23
BRANCH   2  25
HETATM   25  O   UNK     0     156.537 155.179 150.586  0.00  0.00    -0.390 OA
HETATM   26  H   UNK     0     156.169 155.573 149.776  0.00  0.00     0.210 HD
ENDBRANCH   2  25
TORSDOF 10
ENDMDL
MODEL 9
REMARK VINA RESULT:      -6.8      8.456      9.627
REMARK  10 active torsions:
REMARK  status: ('A' for Active; 'I' for Inactive)
REMARK    1  A    between atoms: O_2  and  C_12 
REMARK    2  A    between atoms: O_2  and  C_14 
REMARK    3  A    between atoms: O_3  and  C_8 
REMARK    4  A    between atoms: O_4  and  C_9 
REMARK    5  A    between atoms: O_5  and  C_10 
REMARK    6  A    between atoms: O_6  and  C_13 
REMARK    7  A    between atoms: O_7  and  C_21 
REMARK    8  A    between atoms: C_11  and  C_13 
REMARK    9  A    between atoms: C_14  and  C_15 
REMARK   10  A    between atoms: C_15  and  C_16 
ROOT
HETATM    1  O   UNK     0     153.308 149.079 145.916  0.00  0.00    -0.348 OA
HETATM    2  C   UNK     0     154.330 150.499 143.639  0.00  0.00     0.183 C 
HETATM    3  C   UNK     0     153.688 151.212 144.830  0.00  0.00     0.180 C 
HETATM    4  C   UNK     0     153.875 149.042 143.556  0.00  0.00     0.204 C 
HETATM    5  C   UNK     0     153.850 150.386 146.108  0.00  0.00     0.179 C 
HETATM    6  C   UNK     0     153.998 148.342 144.909  0.00  0.00     0.291 C 
ENDROOT
BRANCH   5   7
HETATM    7  C   UNK     0     153.117 151.019 147.286  0.00  0.00     0.198 C 
BRANCH   7   8
HETATM    8  O   UNK     0     153.968 151.978 147.885  0.00  0.00    -0.398 OA
HETATM    9  H   UNK     0     153.423 152.529 148.472  0.00  0.00     0.209 HD
ENDBRANCH   7   8
ENDBRANCH   5   7
BRANCH   6  10
HETATM   10  O   UNK     0     153.425 147.042 144.785  0.00  0.00    -0.358 OA
BRANCH  10  11
HETATM   11  C   UNK     0     152.271 146.906 145.601  0.00  0.00     0.175 C 
BRANCH  11  12
HETATM   12  C   UNK     0     151.091 146.446 144.753  0.00  0.00     0.065 C 
BRANCH  12  13
HETATM   13  C   UNK     0     149.959 147.446 144.753  0.00  0.00    -0.056 A 
HETATM   14  C   UNK     0     148.661 147.002 144.564  0.00  0.00     0.010 A 
HETATM   15  C   UNK     0     147.616 147.926 144.564  0.00  0.00     0.037 A 
HETATM   16  C   UNK     0     147.884 149.282 144.754  0.00  0.00     0.065 A 
HETATM   17  C   UNK     0     149.196 149.714 144.943  0.00  0.00     0.037 A 
HETATM   18  C   UNK     0     150.241 148.789 144.943  0.00  0.00     0.010 A 
BRANCH  16  19
HETATM   19  O   UNK     0     146.864 150.183 144.754  0.00  0.00    -0.361 OA
HETATM   20  H   UNK     0     146.110 149.806 144.269  0.00  0.00     0.217 HD
ENDBRANCH  16  19
ENDBRANCH  12  13
ENDBRANCH  11  12
ENDBRANCH  10  11
ENDBRANCH   6  10
BRANCH   3  21
HETATM   21  O   UNK     0     154.308 152.483 145.008  0.00  0.00    -0.390 OA
HETATM   22  H   UNK     0     153.873 153.116 144.413  0.00  0.00     0.210 HD
ENDBRANCH   3  21
BRANCH   4  23
HETATM   23  O   UNK     0     154.692 148.344 142.616  0.00  0.00    -0.388 OA
HETATM   24  H   UNK     0     154.822 147.437 142.944  0.00  0.00     0.210 HD
ENDBRANCH   4  23
BRANCH   2  25
HETATM   25  O   UNK     0     153.941 151.188 142.450  0.00  0.00    -0.390 OA
HETATM   26  H   UNK     0     154.010 150.558 141.713  0.00  0.00     0.210 HD
ENDBRANCH   2  25
TORSDOF 10
ENDMDL
MODEL 10
REMARK VINA RESULT:      -6.7      2.086      2.786
REMARK  10 active torsions:
REMARK  status: ('A' for Active; 'I' for Inactive)
REMARK    1  A    between atoms: O_2  and  C_12 
REMARK    2  A    between atoms: O_2  and  C_14 
REMARK    3  A    between atoms: O_3  and  C_8 
REMARK    4  A    between atoms: O_4  and  C_9 
REMARK    5  A    between atoms: O_5  and  C_10 
REMARK    6  A    between atoms: O_6  and  C_13 
REMARK    7  A    between atoms: O_7  and  C_21 
REMARK    8  A    between atoms: C_11  and  C_13 
REMARK    9  A    between atoms: C_14  and  C_15 
REMARK   10  A    between atoms: C_15  and  C_16 
ROOT
HETATM    1  O   UNK     0     151.606 154.240 151.782  0.00  0.00    -0.348 OA
HETATM    2  C   UNK     0     153.153 152.555 150.045  0.00  0.00     0.183 C 
HETATM    3  C   UNK     0     153.792 153.417 151.134  0.00  0.00     0.180 C 
HETATM    4  C   UNK     0     151.779 153.095 149.648  0.00  0.00     0.204 C 
HETATM    5  C   UNK     0     152.810 153.657 152.283  0.00  0.00     0.179 C 
HETATM    6  C   UNK     0     150.916 153.380 150.877  0.00  0.00     0.291 C 
ENDROOT
BRANCH   5   7
HETATM    7  C   UNK     0     153.383 154.610 153.326  0.00  0.00     0.198 C 
BRANCH   7   8
HETATM    8  O   UNK     0     153.528 153.909 154.547  0.00  0.00    -0.398 OA
HETATM    9  H   UNK     0     154.342 154.225 154.973  0.00  0.00     0.209 HD
ENDBRANCH   7   8
ENDBRANCH   5   7
BRANCH   6  10
HETATM   10  O   UNK     0     149.716 154.010 150.434  0.00  0.00    -0.358 OA
BRANCH  10  11
HETATM   11  C   UNK     0     149.198 154.888 151.423  0.00  0.00     0.175 C 
BRANCH  11  12
HETATM   12  C   UNK     0     147.675 154.829 151.419  0.00  0.00     0.065 C 
BRANCH  12  13
HETATM   13  C   UNK     0     147.078 155.498 150.205  0.00  0.00    -0.056 A 
HETATM   14  C   UNK     0     146.421 154.730 149.259  0.00  0.00     0.010 A 
HETATM   15  C   UNK     0     145.869 155.349 148.138  0.00  0.00     0.037 A 
HETATM   16  C   UNK     0     145.983 156.730 147.977  0.00  0.00     0.065 A 
HETATM   17  C   UNK     0     146.648 157.492 148.938  0.00  0.00     0.037 A 
HETATM   18  C   UNK     0     147.199 156.872 150.059  0.00  0.00     0.010 A 
BRANCH  16  19
HETATM   19  O   UNK     0     145.445 157.334 146.882  0.00  0.00    -0.361 OA
HETATM   20  H   UNK     0     145.734 156.858 146.085  0.00  0.00     0.217 HD
ENDBRANCH  16  19
ENDBRANCH  12  13
ENDBRANCH  11  12
ENDBRANCH  10  11
ENDBRANCH   6  10
BRANCH   3  21
HETATM   21  O   UNK     0     154.952 152.759 151.636  0.00  0.00    -0.390 OA
HETATM   22  H   UNK     0     154.756 152.446 152.535  0.00  0.00     0.210 HD
ENDBRANCH   3  21
BRANCH   4  23
HETATM   23  O   UNK     0     151.104 152.127 148.843  0.00  0.00    -0.388 OA
HETATM   24  H   UNK     0     150.670 152.595 148.109  0.00  0.00     0.210 HD
ENDBRANCH   4  23
BRANCH   2  25
HETATM   25  O   UNK     0     154.017 152.569 148.907  0.00  0.00    -0.390 OA
HETATM   26  H   UNK     0     154.931 152.597 149.236  0.00  0.00     0.210 HD
ENDBRANCH   2  25
TORSDOF 10
ENDMDL
