MODEL 1
REMARK VINA RESULT:      -7.8      0.000      0.000
REMARK  Name = 9823887
REMARK                            x       y       z     vdW  Elec       q    Type
REMARK                         _______ _______ _______ _____ _____    ______ ____
ROOT
ATOM      1  O   LIG    1       17.904  68.289  10.046  0.00  0.00    -0.341 OA
ATOM      2  C   LIG    1       18.973  68.446  10.976  0.00  0.00    +0.282 C 
ATOM      3  C   LIG    1       18.600  69.467  12.052  0.00  0.00    +0.201 C 
ATOM      4  C   LIG    1       17.277  69.107  12.726  0.00  0.00    +0.179 C 
ATOM      5  C   LIG    1       16.197  68.790  11.692  0.00  0.00    +0.177 C 
ATOM     22  C   LIG    1       16.714  67.788  10.657  0.00  0.00    +0.178 C 
ENDROOT
BRANCH   5   6
ATOM      6  O   LIG    1       15.059  68.241  12.352  0.00  0.00    -0.386 OA
ATOM      7  H   LIG    1       14.922  68.739  13.176  0.00  0.00    +0.210 HD
ENDBRANCH   5   6
BRANCH   4   8
ATOM      8  O   LIG    1       16.826  70.214  13.509  0.00  0.00    -0.386 OA
ATOM      9  H   LIG    1       15.858  70.251  13.430  0.00  0.00    +0.210 HD
ENDBRANCH   4   8
BRANCH   3  10
ATOM     10  O   LIG    1       19.641  69.486  13.029  0.00  0.00    -0.384 OA
ATOM     11  H   LIG    1       19.632  70.357  13.461  0.00  0.00    +0.210 HD
ENDBRANCH   3  10
BRANCH   2  12
ATOM     12  O   LIG    1       20.135  68.923  10.300  0.00  0.00    -0.345 OA
BRANCH  12  13
ATOM     13  C   LIG    1       21.101  67.895  10.145  0.00  0.00    +0.190 C 
BRANCH  13  14
ATOM     14  C   LIG    1       22.251  68.174  11.058  0.00  0.00    +0.001 C 
ATOM     15  C   LIG    1       23.208  67.275  11.334  0.00  0.00    +0.006 C 
BRANCH  15  16
ATOM     16  C   LIG    1       24.365  67.509  12.214  0.00  0.00    -0.025 A 
ATOM     17  C   LIG    1       24.679  66.573  13.187  0.00  0.00    +0.008 A 
ATOM     18  C   LIG    1       25.775  66.795  14.020  0.00  0.00    +0.001 A 
ATOM     19  C   LIG    1       26.542  67.951  13.871  0.00  0.00    +0.000 A 
ATOM     20  C   LIG    1       26.214  68.884  12.888  0.00  0.00    +0.001 A 
ATOM     21  C   LIG    1       25.118  68.662  12.054  0.00  0.00    +0.008 A 
ENDBRANCH  15  16
ENDBRANCH  13  14
ENDBRANCH  12  13
ENDBRANCH   2  12
BRANCH  22  23
ATOM     23  C   LIG    1       15.694  67.544   9.548  0.00  0.00    +0.197 C 
BRANCH  23  24
ATOM     24  O   LIG    1       14.846  68.674   9.459  0.00  0.00    -0.346 OA
BRANCH  24  25
ATOM     25  C   LIG    1       14.855  69.239   8.153  0.00  0.00    +0.281 C 
ATOM     26  C   LIG    1       13.695  68.663   7.326  0.00  0.00    +0.201 C 
ATOM     27  C   LIG    1       12.341  69.242   7.751  0.00  0.00    +0.178 C 
ATOM     28  C   LIG    1       12.422  70.768   7.826  0.00  0.00    +0.171 C 
ATOM     29  C   LIG    1       13.596  71.202   8.693  0.00  0.00    +0.197 C 
ATOM     36  O   LIG    1       14.818  70.670   8.187  0.00  0.00    -0.346 OA
BRANCH  28  30
ATOM     30  O   LIG    1       11.205  71.290   8.341  0.00  0.00    -0.387 OA
ATOM     31  H   LIG    1       10.484  70.976   7.768  0.00  0.00    +0.210 HD
ENDBRANCH  28  30
BRANCH  27  32
ATOM     32  O   LIG    1       11.981  68.726   9.031  0.00  0.00    -0.386 OA
ATOM     33  H   LIG    1       11.338  69.341   9.424  0.00  0.00    +0.210 HD
ENDBRANCH  27  32
BRANCH  26  34
ATOM     34  O   LIG    1       13.933  68.975   5.956  0.00  0.00    -0.384 OA
ATOM     35  H   LIG    1       13.472  68.320   5.406  0.00  0.00    +0.210 HD
ENDBRANCH  26  34
ENDBRANCH  24  25
ENDBRANCH  23  24
ENDBRANCH  22  23
TORSDOF 13
ENDMDL
MODEL 2
REMARK VINA RESULT:      -7.8     28.349     30.898
REMARK  Name = 9823887
REMARK                            x       y       z     vdW  Elec       q    Type
REMARK                         _______ _______ _______ _____ _____    ______ ____
ROOT
ATOM      1  O   LIG    1        7.372  43.374  19.971  0.00  0.00    -0.341 OA
ATOM      2  C   LIG    1        6.291  43.850  19.173  0.00  0.00    +0.282 C 
ATOM      3  C   LIG    1        6.211  45.376  19.235  0.00  0.00    +0.201 C 
ATOM      4  C   LIG    1        7.547  46.019  18.865  0.00  0.00    +0.179 C 
ATOM      5  C   LIG    1        8.702  45.371  19.627  0.00  0.00    +0.177 C 
ATOM     22  C   LIG    1        8.640  43.846  19.513  0.00  0.00    +0.178 C 
ENDROOT
BRANCH   5   6
ATOM      6  O   LIG    1        9.939  45.834  19.091  0.00  0.00    -0.386 OA
ATOM      7  H   LIG    1       10.325  46.461  19.726  0.00  0.00    +0.210 HD
ENDBRANCH   5   6
BRANCH   4   8
ATOM      8  O   LIG    1        7.517  47.406  19.205  0.00  0.00    -0.386 OA
ATOM      9  H   LIG    1        6.585  47.656  19.326  0.00  0.00    +0.210 HD
ENDBRANCH   4   8
BRANCH   3  10
ATOM     10  O   LIG    1        5.206  45.809  18.317  0.00  0.00    -0.384 OA
ATOM     11  H   LIG    1        4.759  45.020  17.967  0.00  0.00    +0.210 HD
ENDBRANCH   3  10
BRANCH   2  12
ATOM     12  O   LIG    1        5.060  43.324  19.665  0.00  0.00    -0.345 OA
BRANCH  12  13
ATOM     13  C   LIG    1        4.729  43.879  20.928  0.00  0.00    +0.190 C 
BRANCH  13  14
ATOM     14  C   LIG    1        4.203  42.792  21.809  0.00  0.00    +0.001 C 
ATOM     15  C   LIG    1        3.514  43.025  22.936  0.00  0.00    +0.006 C 
BRANCH  15  16
ATOM     16  C   LIG    1        2.964  41.987  23.826  0.00  0.00    -0.025 A 
ATOM     17  C   LIG    1        3.273  42.018  25.177  0.00  0.00    +0.008 A 
ATOM     18  C   LIG    1        2.752  41.036  26.019  0.00  0.00    +0.001 A 
ATOM     19  C   LIG    1        1.931  40.035  25.500  0.00  0.00    +0.000 A 
ATOM     20  C   LIG    1        1.630  40.016  24.138  0.00  0.00    +0.001 A 
ATOM     21  C   LIG    1        2.150  40.999  23.296  0.00  0.00    +0.008 A 
ENDBRANCH  15  16
ENDBRANCH  13  14
ENDBRANCH  12  13
ENDBRANCH   2  12
BRANCH  22  23
ATOM     23  C   LIG    1        9.715  43.172  20.361  0.00  0.00    +0.197 C 
BRANCH  23  24
ATOM     24  O   LIG    1       10.072  44.047  21.415  0.00  0.00    -0.346 OA
BRANCH  24  25
ATOM     25  C   LIG    1       10.007  43.402  22.682  0.00  0.00    +0.281 C 
ATOM     26  C   LIG    1       10.667  44.284  23.753  0.00  0.00    +0.201 C 
ATOM     27  C   LIG    1        9.793  45.484  24.131  0.00  0.00    +0.178 C 
ATOM     28  C   LIG    1        8.365  45.024  24.426  0.00  0.00    +0.171 C 
ATOM     29  C   LIG    1        7.824  44.183  23.277  0.00  0.00    +0.197 C 
ATOM     36  O   LIG    1        8.664  43.056  23.040  0.00  0.00    -0.346 OA
BRANCH  28  30
ATOM     30  O   LIG    1        7.531  46.152  24.650  0.00  0.00    -0.387 OA
ATOM     31  H   LIG    1        8.093  46.945  24.612  0.00  0.00    +0.210 HD
ENDBRANCH  28  30
BRANCH  27  32
ATOM     32  O   LIG    1        9.774  46.418  23.052  0.00  0.00    -0.386 OA
ATOM     33  H   LIG    1       10.083  45.953  22.256  0.00  0.00    +0.210 HD
ENDBRANCH  27  32
BRANCH  26  34
ATOM     34  O   LIG    1       10.891  43.480  24.909  0.00  0.00    -0.384 OA
ATOM     35  H   LIG    1       10.973  42.554  24.629  0.00  0.00    +0.210 HD
ENDBRANCH  26  34
ENDBRANCH  24  25
ENDBRANCH  23  24
ENDBRANCH  22  23
TORSDOF 13
ENDMDL
MODEL 3
REMARK VINA RESULT:      -7.7     28.517     31.103
REMARK  Name = 9823887
REMARK                            x       y       z     vdW  Elec       q    Type
REMARK                         _______ _______ _______ _____ _____    ______ ____
ROOT
ATOM      1  O   LIG    1        6.386  43.448  20.821  0.00  0.00    -0.341 OA
ATOM      2  C   LIG    1        5.463  43.651  19.753  0.00  0.00    +0.282 C 
ATOM      3  C   LIG    1        5.831  44.905  18.959  0.00  0.00    +0.201 C 
ATOM      4  C   LIG    1        7.283  44.858  18.486  0.00  0.00    +0.179 C 
ATOM      5  C   LIG    1        8.226  44.481  19.628  0.00  0.00    +0.177 C 
ATOM     22  C   LIG    1        7.721  43.235  20.360  0.00  0.00    +0.178 C 
ENDROOT
BRANCH   5   6
ATOM      6  O   LIG    1        9.525  44.224  19.102  0.00  0.00    -0.386 OA
ATOM      7  H   LIG    1        9.534  44.508  18.171  0.00  0.00    +0.210 HD
ENDBRANCH   5   6
BRANCH   4   8
ATOM      8  O   LIG    1        7.668  46.147  18.003  0.00  0.00    -0.386 OA
ATOM      9  H   LIG    1        7.188  46.301  17.171  0.00  0.00    +0.210 HD
ENDBRANCH   4   8
BRANCH   3  10
ATOM     10  O   LIG    1        4.965  44.986  17.826  0.00  0.00    -0.384 OA
ATOM     11  H   LIG    1        4.107  44.604  18.075  0.00  0.00    +0.210 HD
ENDBRANCH   3  10
BRANCH   2  12
ATOM     12  O   LIG    1        4.149  43.831  20.278  0.00  0.00    -0.345 OA
BRANCH  12  13
ATOM     13  C   LIG    1        4.149  44.734  21.372  0.00  0.00    +0.190 C 
BRANCH  13  14
ATOM     14  C   LIG    1        3.856  43.974  22.625  0.00  0.00    +0.001 C 
ATOM     15  C   LIG    1        3.242  42.781  22.636  0.00  0.00    +0.006 C 
BRANCH  15  16
ATOM     16  C   LIG    1        2.946  41.989  23.843  0.00  0.00    -0.025 A 
ATOM     17  C   LIG    1        2.128  40.875  23.741  0.00  0.00    +0.008 A 
ATOM     18  C   LIG    1        1.848  40.126  24.883  0.00  0.00    +0.001 A 
ATOM     19  C   LIG    1        2.389  40.501  26.113  0.00  0.00    +0.000 A 
ATOM     20  C   LIG    1        3.210  41.625  26.201  0.00  0.00    +0.001 A 
ATOM     21  C   LIG    1        3.490  42.374  25.058  0.00  0.00    +0.008 A 
ENDBRANCH  15  16
ENDBRANCH  13  14
ENDBRANCH  12  13
ENDBRANCH   2  12
BRANCH  22  23
ATOM     23  C   LIG    1        8.581  42.906  21.576  0.00  0.00    +0.197 C 
BRANCH  23  24
ATOM     24  O   LIG    1        9.250  44.085  21.987  0.00  0.00    -0.346 OA
BRANCH  24  25
ATOM     25  C   LIG    1        8.713  44.602  23.200  0.00  0.00    +0.281 C 
ATOM     26  C   LIG    1        9.238  43.787  24.392  0.00  0.00    +0.201 C 
ATOM     27  C   LIG    1       10.703  44.105  24.708  0.00  0.00    +0.178 C 
ATOM     28  C   LIG    1       10.909  45.619  24.785  0.00  0.00    +0.171 C 
ATOM     29  C   LIG    1       10.369  46.298  23.533  0.00  0.00    +0.197 C 
ATOM     36  O   LIG    1        8.986  45.999  23.356  0.00  0.00    -0.346 OA
BRANCH  28  30
ATOM     30  O   LIG    1       12.289  45.910  24.951  0.00  0.00    -0.387 OA
ATOM     31  H   LIG    1       12.790  45.286  24.397  0.00  0.00    +0.210 HD
ENDBRANCH  28  30
BRANCH  27  32
ATOM     32  O   LIG    1       11.540  43.567  23.685  0.00  0.00    -0.386 OA
ATOM     33  H   LIG    1       11.081  42.798  23.306  0.00  0.00    +0.210 HD
ENDBRANCH  27  32
BRANCH  26  34
ATOM     34  O   LIG    1        8.432  44.098  25.527  0.00  0.00    -0.384 OA
ATOM     35  H   LIG    1        8.913  44.735  26.080  0.00  0.00    +0.210 HD
ENDBRANCH  26  34
ENDBRANCH  24  25
ENDBRANCH  23  24
ENDBRANCH  22  23
TORSDOF 13
ENDMDL
MODEL 4
REMARK VINA RESULT:      -7.7     28.344     30.941
REMARK  Name = 9823887
REMARK                            x       y       z     vdW  Elec       q    Type
REMARK                         _______ _______ _______ _____ _____    ______ ____
ROOT
ATOM      1  O   LIG    1        6.590  44.591  21.481  0.00  0.00    -0.341 OA
ATOM      2  C   LIG    1        5.863  44.548  20.255  0.00  0.00    +0.282 C 
ATOM      3  C   LIG    1        5.876  45.918  19.577  0.00  0.00    +0.201 C 
ATOM      4  C   LIG    1        7.302  46.439  19.401  0.00  0.00    +0.179 C 
ATOM      5  C   LIG    1        8.100  46.319  20.699  0.00  0.00    +0.177 C 
ATOM     22  C   LIG    1        7.969  44.913  21.290  0.00  0.00    +0.178 C 
ENDROOT
BRANCH   5   6
ATOM      6  O   LIG    1        9.473  46.594  20.437  0.00  0.00    -0.386 OA
ATOM      7  H   LIG    1        9.523  47.118  19.618  0.00  0.00    +0.210 HD
ENDBRANCH   5   6
BRANCH   4   8
ATOM      8  O   LIG    1        7.263  47.818  19.032  0.00  0.00    -0.386 OA
ATOM      9  H   LIG    1        6.421  47.973  18.572  0.00  0.00    +0.210 HD
ENDBRANCH   4   8
BRANCH   3  10
ATOM     10  O   LIG    1        5.257  45.790  18.298  0.00  0.00    -0.384 OA
ATOM     11  H   LIG    1        4.326  46.053  18.386  0.00  0.00    +0.210 HD
ENDBRANCH   3  10
BRANCH   2  12
ATOM     12  O   LIG    1        4.505  44.197  20.513  0.00  0.00    -0.345 OA
BRANCH  12  13
ATOM     13  C   LIG    1        3.945  45.009  21.533  0.00  0.00    +0.190 C 
BRANCH  13  14
ATOM     14  C   LIG    1        3.484  44.129  22.650  0.00  0.00    +0.001 C 
ATOM     15  C   LIG    1        3.323  42.803  22.525  0.00  0.00    +0.006 C 
BRANCH  15  16
ATOM     16  C   LIG    1        2.886  41.895  23.600  0.00  0.00    -0.025 A 
ATOM     17  C   LIG    1        2.065  40.822  23.291  0.00  0.00    +0.008 A 
ATOM     18  C   LIG    1        1.651  39.964  24.309  0.00  0.00    +0.001 A 
ATOM     19  C   LIG    1        2.061  40.189  25.622  0.00  0.00    +0.000 A 
ATOM     20  C   LIG    1        2.887  41.273  25.919  0.00  0.00    +0.001 A 
ATOM     21  C   LIG    1        3.301  42.132  24.901  0.00  0.00    +0.008 A 
ENDBRANCH  15  16
ENDBRANCH  13  14
ENDBRANCH  12  13
ENDBRANCH   2  12
BRANCH  22  23
ATOM     23  C   LIG    1        8.660  44.802  22.645  0.00  0.00    +0.197 C 
BRANCH  23  24
ATOM     24  O   LIG    1        9.540  43.693  22.613  0.00  0.00    -0.346 OA
BRANCH  24  25
ATOM     25  C   LIG    1       10.903  44.098  22.699  0.00  0.00    +0.281 C 
ATOM     26  C   LIG    1       11.765  42.927  23.196  0.00  0.00    +0.201 C 
ATOM     27  C   LIG    1       11.973  41.863  22.113  0.00  0.00    +0.178 C 
ATOM     28  C   LIG    1       12.421  42.522  20.808  0.00  0.00    +0.171 C 
ATOM     29  C   LIG    1       11.468  43.644  20.417  0.00  0.00    +0.197 C 
ATOM     36  O   LIG    1       11.387  44.618  21.456  0.00  0.00    -0.346 OA
BRANCH  28  30
ATOM     30  O   LIG    1       12.490  41.548  19.775  0.00  0.00    -0.387 OA
ATOM     31  H   LIG    1       12.155  41.960  18.960  0.00  0.00    +0.210 HD
ENDBRANCH  28  30
BRANCH  27  32
ATOM     32  O   LIG    1       10.751  41.162  21.892  0.00  0.00    -0.386 OA
ATOM     33  H   LIG    1       10.083  41.815  21.622  0.00  0.00    +0.210 HD
ENDBRANCH  27  32
BRANCH  26  34
ATOM     34  O   LIG    1       13.030  43.450  23.594  0.00  0.00    -0.384 OA
ATOM     35  H   LIG    1       13.718  43.050  23.036  0.00  0.00    +0.210 HD
ENDBRANCH  26  34
ENDBRANCH  24  25
ENDBRANCH  23  24
ENDBRANCH  22  23
TORSDOF 13
ENDMDL
MODEL 5
REMARK VINA RESULT:      -7.7     28.357     30.941
REMARK  Name = 9823887
REMARK                            x       y       z     vdW  Elec       q    Type
REMARK                         _______ _______ _______ _____ _____    ______ ____
ROOT
ATOM      1  O   LIG    1        7.124  44.199  21.297  0.00  0.00    -0.341 OA
ATOM      2  C   LIG    1        6.155  44.345  20.262  0.00  0.00    +0.282 C 
ATOM      3  C   LIG    1        6.107  45.793  19.774  0.00  0.00    +0.201 C 
ATOM      4  C   LIG    1        7.493  46.287  19.361  0.00  0.00    +0.179 C 
ATOM      5  C   LIG    1        8.536  45.969  20.430  0.00  0.00    +0.177 C 
ATOM     22  C   LIG    1        8.449  44.500  20.854  0.00  0.00    +0.178 C 
ENDROOT
BRANCH   5   6
ATOM      6  O   LIG    1        9.838  46.234  19.914  0.00  0.00    -0.386 OA
ATOM      7  H   LIG    1       10.346  46.694  20.604  0.00  0.00    +0.210 HD
ENDBRANCH   5   6
BRANCH   4   8
ATOM      8  O   LIG    1        7.459  47.705  19.185  0.00  0.00    -0.386 OA
ATOM      9  H   LIG    1        7.053  48.087  19.981  0.00  0.00    +0.210 HD
ENDBRANCH   4   8
BRANCH   3  10
ATOM     10  O   LIG    1        5.226  45.858  18.652  0.00  0.00    -0.384 OA
ATOM     11  H   LIG    1        5.493  45.170  18.020  0.00  0.00    +0.210 HD
ENDBRANCH   3  10
BRANCH   2  12
ATOM     12  O   LIG    1        4.862  44.005  20.761  0.00  0.00    -0.345 OA
BRANCH  12  13
ATOM     13  C   LIG    1        4.581  44.685  21.973  0.00  0.00    +0.190 C 
BRANCH  13  14
ATOM     14  C   LIG    1        4.214  43.679  23.016  0.00  0.00    +0.001 C 
ATOM     15  C   LIG    1        3.154  42.862  22.911  0.00  0.00    +0.006 C 
BRANCH  15  16
ATOM     16  C   LIG    1        2.763  41.847  23.905  0.00  0.00    -0.025 A 
ATOM     17  C   LIG    1        3.187  41.983  25.217  0.00  0.00    +0.008 A 
ATOM     18  C   LIG    1        2.816  41.022  26.157  0.00  0.00    +0.001 A 
ATOM     19  C   LIG    1        2.027  39.938  25.773  0.00  0.00    +0.000 A 
ATOM     20  C   LIG    1        1.608  39.814  24.449  0.00  0.00    +0.001 A 
ATOM     21  C   LIG    1        1.979  40.776  23.509  0.00  0.00    +0.008 A 
ENDBRANCH  15  16
ENDBRANCH  13  14
ENDBRANCH  12  13
ENDBRANCH   2  12
BRANCH  22  23
ATOM     23  C   LIG    1        9.401  44.186  22.004  0.00  0.00    +0.197 C 
BRANCH  23  24
ATOM     24  O   LIG    1       10.708  44.038  21.479  0.00  0.00    -0.346 OA
BRANCH  24  25
ATOM     25  C   LIG    1       11.383  42.922  22.048  0.00  0.00    +0.281 C 
ATOM     26  C   LIG    1       11.611  41.846  20.975  0.00  0.00    +0.201 C 
ATOM     27  C   LIG    1       12.725  42.235  19.997  0.00  0.00    +0.178 C 
ATOM     28  C   LIG    1       13.966  42.691  20.767  0.00  0.00    +0.171 C 
ATOM     29  C   LIG    1       13.603  43.773  21.776  0.00  0.00    +0.197 C 
ATOM     36  O   LIG    1       12.609  43.301  22.683  0.00  0.00    -0.346 OA
BRANCH  28  30
ATOM     30  O   LIG    1       14.948  43.170  19.858  0.00  0.00    -0.387 OA
ATOM     31  H   LIG    1       14.550  43.173  18.970  0.00  0.00    +0.210 HD
ENDBRANCH  28  30
BRANCH  27  32
ATOM     32  O   LIG    1       12.274  43.296  19.157  0.00  0.00    -0.386 OA
ATOM     33  H   LIG    1       12.393  43.011  18.235  0.00  0.00    +0.210 HD
ENDBRANCH  27  32
BRANCH  26  34
ATOM     34  O   LIG    1       11.964  40.633  21.635  0.00  0.00    -0.384 OA
ATOM     35  H   LIG    1       12.903  40.450  21.462  0.00  0.00    +0.210 HD
ENDBRANCH  26  34
ENDBRANCH  24  25
ENDBRANCH  23  24
ENDBRANCH  22  23
TORSDOF 13
ENDMDL
MODEL 6
REMARK VINA RESULT:      -7.7     26.963     28.455
REMARK  Name = 9823887
REMARK                            x       y       z     vdW  Elec       q    Type
REMARK                         _______ _______ _______ _____ _____    ______ ____
ROOT
ATOM      1  O   LIG    1       10.032  43.473  21.464  0.00  0.00    -0.341 OA
ATOM      2  C   LIG    1       11.238  43.229  20.744  0.00  0.00    +0.282 C 
ATOM      3  C   LIG    1       11.093  43.677  19.289  0.00  0.00    +0.201 C 
ATOM      4  C   LIG    1       10.633  45.131  19.198  0.00  0.00    +0.179 C 
ATOM      5  C   LIG    1        9.434  45.391  20.108  0.00  0.00    +0.177 C 
ATOM     22  C   LIG    1        9.698  44.860  21.520  0.00  0.00    +0.178 C 
ENDROOT
BRANCH   5   6
ATOM      6  O   LIG    1        9.184  46.793  20.171  0.00  0.00    -0.386 OA
ATOM      7  H   LIG    1        8.221  46.928  20.119  0.00  0.00    +0.210 HD
ENDBRANCH   5   6
BRANCH   4   8
ATOM      8  O   LIG    1       10.241  45.423  17.856  0.00  0.00    -0.386 OA
ATOM      9  H   LIG    1       10.969  45.149  17.273  0.00  0.00    +0.210 HD
ENDBRANCH   4   8
BRANCH   3  10
ATOM     10  O   LIG    1       12.362  43.539  18.651  0.00  0.00    -0.384 OA
ATOM     11  H   LIG    1       12.665  44.425  18.389  0.00  0.00    +0.210 HD
ENDBRANCH   3  10
BRANCH   2  12
ATOM     12  O   LIG    1       11.527  41.832  20.748  0.00  0.00    -0.345 OA
BRANCH  12  13
ATOM     13  C   LIG    1       12.219  41.451  21.927  0.00  0.00    +0.190 C 
BRANCH  13  14
ATOM     14  C   LIG    1       13.675  41.326  21.612  0.00  0.00    +0.001 C 
ATOM     15  C   LIG    1       14.549  40.690  22.407  0.00  0.00    +0.006 C 
BRANCH  15  16
ATOM     16  C   LIG    1       15.987  40.530  22.131  0.00  0.00    -0.025 A 
ATOM     17  C   LIG    1       16.587  41.327  21.170  0.00  0.00    +0.008 A 
ATOM     18  C   LIG    1       17.949  41.175  20.910  0.00  0.00    +0.001 A 
ATOM     19  C   LIG    1       18.692  40.227  21.613  0.00  0.00    +0.000 A 
ATOM     20  C   LIG    1       18.075  39.431  22.577  0.00  0.00    +0.001 A 
ATOM     21  C   LIG    1       16.713  39.584  22.838  0.00  0.00    +0.008 A 
ENDBRANCH  15  16
ENDBRANCH  13  14
ENDBRANCH  12  13
ENDBRANCH   2  12
BRANCH  22  23
ATOM     23  C   LIG    1        8.471  45.004  22.416  0.00  0.00    +0.197 C 
BRANCH  23  24
ATOM     24  O   LIG    1        7.476  45.719  21.707  0.00  0.00    -0.346 OA
BRANCH  24  25
ATOM     25  C   LIG    1        6.207  45.079  21.786  0.00  0.00    +0.281 C 
ATOM     26  C   LIG    1        5.115  46.012  21.240  0.00  0.00    +0.201 C 
ATOM     27  C   LIG    1        5.156  46.114  19.712  0.00  0.00    +0.178 C 
ATOM     28  C   LIG    1        5.219  44.717  19.092  0.00  0.00    +0.171 C 
ATOM     29  C   LIG    1        6.357  43.909  19.703  0.00  0.00    +0.197 C 
ATOM     36  O   LIG    1        6.202  43.813  21.117  0.00  0.00    -0.346 OA
BRANCH  28  30
ATOM     30  O   LIG    1        5.385  44.821  17.685  0.00  0.00    -0.387 OA
ATOM     31  H   LIG    1        5.203  45.743  17.434  0.00  0.00    +0.210 HD
ENDBRANCH  28  30
BRANCH  27  32
ATOM     32  O   LIG    1        6.306  46.859  19.313  0.00  0.00    -0.386 OA
ATOM     33  H   LIG    1        6.645  46.458  18.495  0.00  0.00    +0.210 HD
ENDBRANCH  27  32
BRANCH  26  34
ATOM     34  O   LIG    1        3.850  45.494  21.645  0.00  0.00    -0.384 OA
ATOM     35  H   LIG    1        3.332  46.218  22.035  0.00  0.00    +0.210 HD
ENDBRANCH  26  34
ENDBRANCH  24  25
ENDBRANCH  23  24
ENDBRANCH  22  23
TORSDOF 13
ENDMDL
MODEL 7
REMARK VINA RESULT:      -7.6     28.236     30.883
REMARK  Name = 9823887
REMARK                            x       y       z     vdW  Elec       q    Type
REMARK                         _______ _______ _______ _____ _____    ______ ____
ROOT
ATOM      1  O   LIG    1        7.143  43.950  21.012  0.00  0.00    -0.341 OA
ATOM      2  C   LIG    1        6.833  43.745  19.636  0.00  0.00    +0.282 C 
ATOM      3  C   LIG    1        6.599  45.084  18.935  0.00  0.00    +0.201 C 
ATOM      4  C   LIG    1        7.778  46.033  19.141  0.00  0.00    +0.179 C 
ATOM      5  C   LIG    1        8.183  46.103  20.613  0.00  0.00    +0.177 C 
ATOM     22  C   LIG    1        8.346  44.698  21.198  0.00  0.00    +0.178 C 
ENDROOT
BRANCH   5   6
ATOM      6  O   LIG    1        9.416  46.809  20.731  0.00  0.00    -0.386 OA
ATOM      7  H   LIG    1       10.036  46.439  20.079  0.00  0.00    +0.210 HD
ENDBRANCH   5   6
BRANCH   4   8
ATOM      8  O   LIG    1        7.408  47.348  18.722  0.00  0.00    -0.386 OA
ATOM      9  H   LIG    1        7.267  47.319  17.761  0.00  0.00    +0.210 HD
ENDBRANCH   4   8
BRANCH   3  10
ATOM     10  O   LIG    1        6.429  44.834  17.540  0.00  0.00    -0.384 OA
ATOM     11  H   LIG    1        5.831  44.074  17.440  0.00  0.00    +0.210 HD
ENDBRANCH   3  10
BRANCH   2  12
ATOM     12  O   LIG    1        5.640  42.972  19.520  0.00  0.00    -0.345 OA
BRANCH  12  13
ATOM     13  C   LIG    1        4.538  43.630  20.125  0.00  0.00    +0.190 C 
BRANCH  13  14
ATOM     14  C   LIG    1        3.892  42.695  21.096  0.00  0.00    +0.001 C 
ATOM     15  C   LIG    1        3.849  42.920  22.418  0.00  0.00    +0.006 C 
BRANCH  15  16
ATOM     16  C   LIG    1        3.212  42.036  23.410  0.00  0.00    -0.025 A 
ATOM     17  C   LIG    1        2.339  41.050  22.979  0.00  0.00    +0.008 A 
ATOM     18  C   LIG    1        1.737  40.214  23.919  0.00  0.00    +0.001 A 
ATOM     19  C   LIG    1        2.015  40.374  25.276  0.00  0.00    +0.000 A 
ATOM     20  C   LIG    1        2.896  41.370  25.695  0.00  0.00    +0.001 A 
ATOM     21  C   LIG    1        3.499  42.207  24.755  0.00  0.00    +0.008 A 
ENDBRANCH  15  16
ENDBRANCH  13  14
ENDBRANCH  12  13
ENDBRANCH   2  12
BRANCH  22  23
ATOM     23  C   LIG    1        8.636  44.739  22.696  0.00  0.00    +0.197 C 
BRANCH  23  24
ATOM     24  O   LIG    1        9.962  45.198  22.885  0.00  0.00    -0.346 OA
BRANCH  24  25
ATOM     25  C   LIG    1       10.905  44.134  22.808  0.00  0.00    +0.281 C 
ATOM     26  C   LIG    1       12.328  44.681  22.998  0.00  0.00    +0.201 C 
ATOM     27  C   LIG    1       12.613  45.053  24.457  0.00  0.00    +0.178 C 
ATOM     28  C   LIG    1       12.204  43.905  25.383  0.00  0.00    +0.171 C 
ATOM     29  C   LIG    1       10.768  43.478  25.106  0.00  0.00    +0.197 C 
ATOM     36  O   LIG    1       10.613  43.089  23.744  0.00  0.00    -0.346 OA
BRANCH  28  30
ATOM     30  O   LIG    1       12.351  44.303  26.738  0.00  0.00    -0.387 OA
ATOM     31  H   LIG    1       11.460  44.382  27.120  0.00  0.00    +0.210 HD
ENDBRANCH  28  30
BRANCH  27  32
ATOM     32  O   LIG    1       11.875  46.224  24.804  0.00  0.00    -0.386 OA
ATOM     33  H   LIG    1       12.012  46.877  24.097  0.00  0.00    +0.210 HD
ENDBRANCH  27  32
BRANCH  26  34
ATOM     34  O   LIG    1       13.247  43.675  22.580  0.00  0.00    -0.384 OA
ATOM     35  H   LIG    1       14.147  43.970  22.797  0.00  0.00    +0.210 HD
ENDBRANCH  26  34
ENDBRANCH  24  25
ENDBRANCH  23  24
ENDBRANCH  22  23
TORSDOF 13
ENDMDL
MODEL 8
REMARK VINA RESULT:      -7.6      1.178      2.137
REMARK  Name = 9823887
REMARK                            x       y       z     vdW  Elec       q    Type
REMARK                         _______ _______ _______ _____ _____    ______ ____
ROOT
ATOM      1  O   LIG    1       18.700  68.436  10.620  0.00  0.00    -0.341 OA
ATOM      2  C   LIG    1       19.740  69.014  11.407  0.00  0.00    +0.282 C 
ATOM      3  C   LIG    1       19.181  70.122  12.301  0.00  0.00    +0.201 C 
ATOM      4  C   LIG    1       18.010  69.621  13.144  0.00  0.00    +0.179 C 
ATOM      5  C   LIG    1       16.994  68.867  12.287  0.00  0.00    +0.177 C 
ATOM     22  C   LIG    1       17.689  67.817  11.417  0.00  0.00    +0.178 C 
ENDROOT
BRANCH   5   6
ATOM      6  O   LIG    1       16.046  68.223  13.135  0.00  0.00    -0.386 OA
ATOM      7  H   LIG    1       15.497  68.912  13.548  0.00  0.00    +0.210 HD
ENDBRANCH   5   6
BRANCH   4   8
ATOM      8  O   LIG    1       17.343  70.734  13.742  0.00  0.00    -0.386 OA
ATOM      9  H   LIG    1       16.443  70.764  13.377  0.00  0.00    +0.210 HD
ENDBRANCH   4   8
BRANCH   3  10
ATOM     10  O   LIG    1       20.227  70.572  13.162  0.00  0.00    -0.384 OA
ATOM     11  H   LIG    1       20.075  71.512  13.356  0.00  0.00    +0.210 HD
ENDBRANCH   3  10
BRANCH   2  12
ATOM     12  O   LIG    1       20.726  69.591  10.554  0.00  0.00    -0.345 OA
BRANCH  12  13
ATOM     13  C   LIG    1       21.726  68.646  10.207  0.00  0.00    +0.190 C 
BRANCH  13  14
ATOM     14  C   LIG    1       22.688  68.522  11.344  0.00  0.00    +0.001 C 
ATOM     15  C   LIG    1       23.734  67.682  11.336  0.00  0.00    +0.006 C 
BRANCH  15  16
ATOM     16  C   LIG    1       24.715  67.536  12.426  0.00  0.00    -0.025 A 
ATOM     17  C   LIG    1       25.697  68.501  12.589  0.00  0.00    +0.008 A 
ATOM     18  C   LIG    1       26.624  68.363  13.621  0.00  0.00    +0.001 A 
ATOM     19  C   LIG    1       26.560  67.262  14.475  0.00  0.00    +0.000 A 
ATOM     20  C   LIG    1       25.567  66.299  14.298  0.00  0.00    +0.001 A 
ATOM     21  C   LIG    1       24.639  66.437  13.266  0.00  0.00    +0.008 A 
ENDBRANCH  15  16
ENDBRANCH  13  14
ENDBRANCH  12  13
ENDBRANCH   2  12
BRANCH  22  23
ATOM     23  C   LIG    1       16.711  67.131  10.468  0.00  0.00    +0.197 C 
BRANCH  23  24
ATOM     24  O   LIG    1       16.216  68.095   9.556  0.00  0.00    -0.346 OA
BRANCH  24  25
ATOM     25  C   LIG    1       14.800  68.025   9.429  0.00  0.00    +0.281 C 
ATOM     26  C   LIG    1       14.188  69.421   9.616  0.00  0.00    +0.201 C 
ATOM     27  C   LIG    1       14.421  70.320   8.397  0.00  0.00    +0.178 C 
ATOM     28  C   LIG    1       14.033  69.581   7.116  0.00  0.00    +0.171 C 
ATOM     29  C   LIG    1       14.727  68.227   7.046  0.00  0.00    +0.197 C 
ATOM     36  O   LIG    1       14.401  67.436   8.186  0.00  0.00    -0.346 OA
BRANCH  28  30
ATOM     30  O   LIG    1       14.370  70.370   5.983  0.00  0.00    -0.387 OA
ATOM     31  H   LIG    1       13.935  71.234   6.087  0.00  0.00    +0.210 HD
ENDBRANCH  28  30
BRANCH  27  32
ATOM     32  O   LIG    1       15.798  70.687   8.331  0.00  0.00    -0.386 OA
ATOM     33  H   LIG    1       16.098  70.534   7.418  0.00  0.00    +0.210 HD
ENDBRANCH  27  32
BRANCH  26  34
ATOM     34  O   LIG    1       12.787  69.264   9.825  0.00  0.00    -0.384 OA
ATOM     35  H   LIG    1       12.533  69.779  10.609  0.00  0.00    +0.210 HD
ENDBRANCH  26  34
ENDBRANCH  24  25
ENDBRANCH  23  24
ENDBRANCH  22  23
TORSDOF 13
ENDMDL
MODEL 9
REMARK VINA RESULT:      -7.5     27.903     29.430
REMARK  Name = 9823887
REMARK                            x       y       z     vdW  Elec       q    Type
REMARK                         _______ _______ _______ _____ _____    ______ ____
ROOT
ATOM      1  O   LIG    1        7.911  43.916  19.414  0.00  0.00    -0.341 OA
ATOM      2  C   LIG    1        8.817  44.672  20.215  0.00  0.00    +0.282 C 
ATOM      3  C   LIG    1        8.830  46.135  19.771  0.00  0.00    +0.201 C 
ATOM      4  C   LIG    1        7.421  46.725  19.754  0.00  0.00    +0.179 C 
ATOM      5  C   LIG    1        6.444  45.805  19.022  0.00  0.00    +0.177 C 
ATOM     22  C   LIG    1        6.562  44.368  19.536  0.00  0.00    +0.178 C 
ENDROOT
BRANCH   5   6
ATOM      6  O   LIG    1        5.113  46.271  19.226  0.00  0.00    -0.386 OA
ATOM      7  H   LIG    1        5.153  47.229  19.397  0.00  0.00    +0.210 HD
ENDBRANCH   5   6
BRANCH   4   8
ATOM      8  O   LIG    1        7.438  47.981  19.073  0.00  0.00    -0.386 OA
ATOM      9  H   LIG    1        8.071  48.555  19.538  0.00  0.00    +0.210 HD
ENDBRANCH   4   8
BRANCH   3  10
ATOM     10  O   LIG    1        9.642  46.872  20.685  0.00  0.00    -0.384 OA
ATOM     11  H   LIG    1       10.533  46.947  20.303  0.00  0.00    +0.210 HD
ENDBRANCH   3  10
BRANCH   2  12
ATOM     12  O   LIG    1       10.138  44.155  20.068  0.00  0.00    -0.345 OA
BRANCH  12  13
ATOM     13  C   LIG    1       10.294  42.929  20.766  0.00  0.00    +0.190 C 
BRANCH  13  14
ATOM     14  C   LIG    1       11.745  42.572  20.793  0.00  0.00    +0.001 C 
ATOM     15  C   LIG    1       12.278  41.722  21.684  0.00  0.00    +0.006 C 
BRANCH  15  16
ATOM     16  C   LIG    1       13.696  41.329  21.739  0.00  0.00    -0.025 A 
ATOM     17  C   LIG    1       14.094  40.342  22.627  0.00  0.00    +0.008 A 
ATOM     18  C   LIG    1       15.437  39.970  22.679  0.00  0.00    +0.001 A 
ATOM     19  C   LIG    1       16.365  40.590  21.844  0.00  0.00    +0.000 A 
ATOM     20  C   LIG    1       15.951  41.582  20.955  0.00  0.00    +0.001 A 
ATOM     21  C   LIG    1       14.608  41.954  20.903  0.00  0.00    +0.008 A 
ENDBRANCH  15  16
ENDBRANCH  13  14
ENDBRANCH  12  13
ENDBRANCH   2  12
BRANCH  22  23
ATOM     23  C   LIG    1        5.681  43.409  18.741  0.00  0.00    +0.197 C 
BRANCH  23  24
ATOM     24  O   LIG    1        5.028  42.540  19.648  0.00  0.00    -0.346 OA
BRANCH  24  25
ATOM     25  C   LIG    1        4.920  43.115  20.946  0.00  0.00    +0.281 C 
ATOM     26  C   LIG    1        3.591  43.877  21.071  0.00  0.00    +0.201 C 
ATOM     27  C   LIG    1        2.395  42.930  21.208  0.00  0.00    +0.178 C 
ATOM     28  C   LIG    1        2.673  41.880  22.285  0.00  0.00    +0.171 C 
ATOM     29  C   LIG    1        4.004  41.186  22.027  0.00  0.00    +0.197 C 
ATOM     36  O   LIG    1        5.066  42.136  21.981  0.00  0.00    -0.346 OA
BRANCH  28  30
ATOM     30  O   LIG    1        1.617  40.931  22.319  0.00  0.00    -0.387 OA
ATOM     31  H   LIG    1        1.949  40.108  21.919  0.00  0.00    +0.210 HD
ENDBRANCH  28  30
BRANCH  27  32
ATOM     32  O   LIG    1        2.160  42.275  19.962  0.00  0.00    -0.386 OA
ATOM     33  H   LIG    1        1.348  42.651  19.582  0.00  0.00    +0.210 HD
ENDBRANCH  27  32
BRANCH  26  34
ATOM     34  O   LIG    1        3.668  44.709  22.226  0.00  0.00    -0.384 OA
ATOM     35  H   LIG    1        3.233  45.554  22.026  0.00  0.00    +0.210 HD
ENDBRANCH  26  34
ENDBRANCH  24  25
ENDBRANCH  23  24
ENDBRANCH  22  23
TORSDOF 13
ENDMDL
