REMARK VINA RESULT:      -4.7     15.509     16.614
REMARK  4 active torsions:
REMARK  status: ('A' for Active; 'I' for Inactive)
REMARK    1  A    between atoms: O_1  and  C_10 
REMARK    2  A    between atoms: O_1  and  C_11 
REMARK    3  A    between atoms: N_3  and  C_7 
REMARK    4  A    between atoms: C_4  and  C_10 
ROOT
HETATM    1  O   UNK     0     189.706 174.234 159.478  0.00  0.00    -0.318 OA
ENDROOT
BRANCH   1   2
HETATM    2  C   UNK     0     188.694 174.280 158.558  0.00  0.00     0.293 C 
HETATM    3  O   UNK     0     188.211 175.330 158.113  0.00  0.00    -0.259 OA
BRANCH   2   4
HETATM    4  C   UNK     0     188.259 172.947 158.174  0.00  0.00     0.039 A 
HETATM    5  C   UNK     0     188.974 171.829 158.607  0.00  0.00     0.020 A 
HETATM    6  C   UNK     0     188.557 170.550 158.237  0.00  0.00     0.030 A 
HETATM    7  C   UNK     0     187.426 170.388 157.437  0.00  0.00     0.025 A 
HETATM    8  C   UNK     0     186.712 171.505 157.005  0.00  0.00     0.030 A 
HETATM    9  C   UNK     0     187.129 172.785 157.373  0.00  0.00     0.020 A 
BRANCH   7  10
HETATM   10  N   UNK     0     187.005 169.095 157.064  0.00  0.00    -0.399 N 
HETATM   11  H   UNK     0     187.437 168.282 157.482  0.00  0.00     0.156 HD
HETATM   12  H   UNK     0     186.272 168.980 156.376  0.00  0.00     0.156 HD
ENDBRANCH   7  10
ENDBRANCH   2   4
ENDBRANCH   1   2
BRANCH   1  13
HETATM   13  C   UNK     0     189.680 175.218 160.518  0.00  0.00     0.174 C 
HETATM   14  C   UNK     0     188.581 174.870 161.499  0.00  0.00     0.034 C 
ENDBRANCH   1  13
TORSDOF 4
