REMARK VINA RESULT:      -5.0     18.514     19.884
REMARK  4 active torsions:
REMARK  status: ('A' for Active; 'I' for Inactive)
REMARK    1  A    between atoms: O_1  and  C_10 
REMARK    2  A    between atoms: O_1  and  C_11 
REMARK    3  A    between atoms: N_3  and  C_7 
REMARK    4  A    between atoms: C_4  and  C_10 
ROOT
HETATM    1  O   UNK     0     180.641 167.858 162.956  0.00  0.00    -0.318 OA
ENDROOT
BRANCH   1   2
HETATM    2  C   UNK     0     180.849 166.759 162.166  0.00  0.00     0.293 C 
HETATM    3  O   UNK     0     179.956 166.189 161.526  0.00  0.00    -0.259 OA
BRANCH   2   4
HETATM    4  C   UNK     0     182.244 166.350 162.177  0.00  0.00     0.039 A 
HETATM    5  C   UNK     0     182.901 166.081 160.976  0.00  0.00     0.020 A 
HETATM    6  C   UNK     0     184.239 165.687 160.986  0.00  0.00     0.030 A 
HETATM    7  C   UNK     0     184.921 165.563 162.197  0.00  0.00     0.025 A 
HETATM    8  C   UNK     0     184.264 165.832 163.397  0.00  0.00     0.030 A 
HETATM    9  C   UNK     0     182.925 166.225 163.388  0.00  0.00     0.020 A 
BRANCH   7  10
HETATM   10  N   UNK     0     186.273 165.165 162.207  0.00  0.00    -0.399 N 
HETATM   11  H   UNK     0     186.549 164.296 161.769  0.00  0.00     0.156 HD
HETATM   12  H   UNK     0     186.969 165.747 162.654  0.00  0.00     0.156 HD
ENDBRANCH   7  10
ENDBRANCH   2   4
ENDBRANCH   1   2
BRANCH   1  13
HETATM   13  C   UNK     0     179.361 167.968 163.588  0.00  0.00     0.174 C 
HETATM   14  C   UNK     0     179.274 169.302 164.296  0.00  0.00     0.034 C 
ENDBRANCH   1  13
TORSDOF 4
