REMARK VINA RESULT:      -5.3      0.000      0.000
REMARK  4 active torsions:
REMARK  status: ('A' for Active; 'I' for Inactive)
REMARK    1  A    between atoms: O_1  and  C_10 
REMARK    2  A    between atoms: O_1  and  C_11 
REMARK    3  A    between atoms: N_3  and  C_7 
REMARK    4  A    between atoms: C_4  and  C_10 
ROOT
HETATM    1  O   UNK     0     180.692 187.395 162.677  0.00  0.00    -0.318 OA
ENDROOT
BRANCH   1   2
HETATM    2  C   UNK     0     179.534 187.345 163.404  0.00  0.00     0.293 C 
HETATM    3  O   UNK     0     179.147 188.251 164.153  0.00  0.00    -0.259 OA
BRANCH   2   4
HETATM    4  C   UNK     0     178.821 186.096 163.187  0.00  0.00     0.039 A 
HETATM    5  C   UNK     0     177.791 185.722 164.051  0.00  0.00     0.020 A 
HETATM    6  C   UNK     0     177.108 184.523 163.843  0.00  0.00     0.030 A 
HETATM    7  C   UNK     0     177.454 183.699 162.772  0.00  0.00     0.025 A 
HETATM    8  C   UNK     0     178.483 184.074 161.909  0.00  0.00     0.030 A 
HETATM    9  C   UNK     0     179.167 185.272 162.116  0.00  0.00     0.020 A 
BRANCH   7  10
HETATM   10  N   UNK     0     176.763 182.489 162.562  0.00  0.00    -0.399 N 
HETATM   11  H   UNK     0     176.340 182.005 163.343  0.00  0.00     0.156 HD
HETATM   12  H   UNK     0     176.691 182.101 161.630  0.00  0.00     0.156 HD
ENDBRANCH   7  10
ENDBRANCH   2   4
ENDBRANCH   1   2
BRANCH   1  13
HETATM   13  C   UNK     0     181.920 187.369 163.414  0.00  0.00     0.174 C 
HETATM   14  C   UNK     0     182.725 186.161 162.987  0.00  0.00     0.034 C 
ENDBRANCH   1  13
TORSDOF 4
