REMARK VINA RESULT:      -4.6     21.149     22.295
REMARK  4 active torsions:
REMARK  status: ('A' for Active; 'I' for Inactive)
REMARK    1  A    between atoms: O_1  and  C_10 
REMARK    2  A    between atoms: O_1  and  C_11 
REMARK    3  A    between atoms: N_3  and  C_7 
REMARK    4  A    between atoms: C_4  and  C_10 
ROOT
HETATM    1  O   UNK     0     176.320 168.724 176.141  0.00  0.00    -0.318 OA
ENDROOT
BRANCH   1   2
HETATM    2  C   UNK     0     176.334 169.954 176.741  0.00  0.00     0.293 C 
HETATM    3  O   UNK     0     175.835 170.972 176.244  0.00  0.00    -0.259 OA
BRANCH   2   4
HETATM    4  C   UNK     0     177.007 169.912 178.029  0.00  0.00     0.039 A 
HETATM    5  C   UNK     0     176.686 170.847 179.014  0.00  0.00     0.020 A 
HETATM    6  C   UNK     0     177.333 170.807 180.249  0.00  0.00     0.030 A 
HETATM    7  C   UNK     0     178.299 169.833 180.501  0.00  0.00     0.025 A 
HETATM    8  C   UNK     0     178.619 168.898 179.516  0.00  0.00     0.030 A 
HETATM    9  C   UNK     0     177.973 168.938 178.280  0.00  0.00     0.020 A 
BRANCH   7  10
HETATM   10  N   UNK     0     178.952 169.793 181.750  0.00  0.00    -0.399 N 
HETATM   11  H   UNK     0     179.404 168.943 182.058  0.00  0.00     0.156 HD
HETATM   12  H   UNK     0     178.967 170.615 182.340  0.00  0.00     0.156 HD
ENDBRANCH   7  10
ENDBRANCH   2   4
ENDBRANCH   1   2
BRANCH   1  13
HETATM   13  C   UNK     0     176.629 168.683 174.743  0.00  0.00     0.174 C 
HETATM   14  C   UNK     0     178.130 168.608 174.572  0.00  0.00     0.034 C 
ENDBRANCH   1  13
TORSDOF 4
