MODEL 1
REMARK VINA RESULT:      -7.9      0.000      0.000
REMARK  6 active torsions:
REMARK  status: ('A' for Active; 'I' for Inactive)
REMARK    1  A    between atoms: O_2  and  C_12 
REMARK    2  A    between atoms: O_3  and  C_14 
REMARK    3  A    between atoms: O_5  and  C_16 
REMARK    4  A    between atoms: O_6  and  C_20 
REMARK    5  A    between atoms: O_7  and  C_22 
REMARK    6  A    between atoms: C_10  and  C_11 
ROOT
HETATM    1  O   UNK     0     150.087 157.349 150.832  0.00  0.00    -0.306 OA
HETATM    2  O   UNK     0     147.837 153.991 150.316  0.00  0.00    -0.284 OA
HETATM    3  C   UNK     0     147.971 156.343 150.201  0.00  0.00     0.084 A 
HETATM    4  C   UNK     0     148.791 157.452 150.399  0.00  0.00     0.096 A 
HETATM    5  C   UNK     0     150.607 156.086 151.072  0.00  0.00     0.123 A 
HETATM    6  C   UNK     0     149.919 154.938 150.929  0.00  0.00     0.152 A 
HETATM    7  C   UNK     0     148.511 155.001 150.467  0.00  0.00     0.223 A 
HETATM    8  C   UNK     0     146.656 156.509 149.759  0.00  0.00     0.085 A 
HETATM    9  C   UNK     0     148.300 158.735 150.156  0.00  0.00     0.075 A 
HETATM   10  C   UNK     0     146.988 158.904 149.714  0.00  0.00     0.071 A 
HETATM   11  C   UNK     0     146.168 157.793 149.517  0.00  0.00     0.074 A 
ENDROOT
BRANCH   5  12
HETATM   12  C   UNK     0     152.006 156.118 151.532  0.00  0.00     0.004 A 
HETATM   13  C   UNK     0     152.316 155.786 152.850  0.00  0.00     0.053 A 
HETATM   14  C   UNK     0     153.641 155.815 153.285  0.00  0.00     0.099 A 
HETATM   15  C   UNK     0     154.657 156.177 152.400  0.00  0.00     0.098 A 
HETATM   16  C   UNK     0     154.348 156.508 151.081  0.00  0.00     0.040 A 
HETATM   17  C   UNK     0     153.023 156.479 150.646  0.00  0.00     0.017 A 
BRANCH  14  18
HETATM   18  O   UNK     0     153.931 155.491 154.576  0.00  0.00    -0.358 OA
HETATM   19  H   UNK     0     153.155 155.086 154.995  0.00  0.00     0.217 HD
ENDBRANCH  14  18
BRANCH  15  20
HETATM   20  O   UNK     0     155.955 156.208 152.812  0.00  0.00    -0.358 OA
HETATM   21  H   UNK     0     155.996 156.096 153.775  0.00  0.00     0.217 HD
ENDBRANCH  15  20
ENDBRANCH   5  12
BRANCH   6  22
HETATM   22  O   UNK     0     150.455 153.700 151.207  0.00  0.00    -0.355 OA
HETATM   23  H   UNK     0     150.316 153.483 152.143  0.00  0.00     0.218 HD
ENDBRANCH   6  22
BRANCH   8  24
HETATM   24  O   UNK     0     145.813 155.459 149.550  0.00  0.00    -0.360 OA
HETATM   25  H   UNK     0     145.708 154.940 150.362  0.00  0.00     0.217 HD
ENDBRANCH   8  24
BRANCH  10  26
HETATM   26  O   UNK     0     146.508 160.156 149.477  0.00  0.00    -0.361 OA
HETATM   27  H   UNK     0     146.469 160.643 150.318  0.00  0.00     0.217 HD
ENDBRANCH  10  26
TORSDOF 6
ENDMDL
MODEL 2
REMARK VINA RESULT:      -7.7      2.055      6.990
REMARK  6 active torsions:
REMARK  status: ('A' for Active; 'I' for Inactive)
REMARK    1  A    between atoms: O_2  and  C_12 
REMARK    2  A    between atoms: O_3  and  C_14 
REMARK    3  A    between atoms: O_5  and  C_16 
REMARK    4  A    between atoms: O_6  and  C_20 
REMARK    5  A    between atoms: O_7  and  C_22 
REMARK    6  A    between atoms: C_10  and  C_11 
ROOT
HETATM    1  O   UNK     0     151.767 155.742 151.331  0.00  0.00    -0.306 OA
HETATM    2  O   UNK     0     153.375 152.000 151.199  0.00  0.00    -0.284 OA
HETATM    3  C   UNK     0     153.685 154.292 151.663  0.00  0.00     0.084 A 
HETATM    4  C   UNK     0     153.076 155.545 151.685  0.00  0.00     0.096 A 
HETATM    5  C   UNK     0     151.013 154.644 150.947  0.00  0.00     0.123 A 
HETATM    6  C   UNK     0     151.482 153.385 150.875  0.00  0.00     0.152 A 
HETATM    7  C   UNK     0     152.894 153.125 151.243  0.00  0.00     0.223 A 
HETATM    8  C   UNK     0     155.024 154.152 152.033  0.00  0.00     0.085 A 
HETATM    9  C   UNK     0     153.806 156.668 152.077  0.00  0.00     0.075 A 
HETATM   10  C   UNK     0     155.144 156.531 152.448  0.00  0.00     0.071 A 
HETATM   11  C   UNK     0     155.751 155.276 152.425  0.00  0.00     0.074 A 
ENDROOT
BRANCH   5  12
HETATM   12  C   UNK     0     149.626 154.994 150.594  0.00  0.00     0.004 A 
HETATM   13  C   UNK     0     149.351 155.611 149.373  0.00  0.00     0.053 A 
HETATM   14  C   UNK     0     148.037 155.942 149.039  0.00  0.00     0.099 A 
HETATM   15  C   UNK     0     146.999 155.655 149.926  0.00  0.00     0.098 A 
HETATM   16  C   UNK     0     147.274 155.037 151.146  0.00  0.00     0.040 A 
HETATM   17  C   UNK     0     148.587 154.707 151.480  0.00  0.00     0.017 A 
BRANCH  14  18
HETATM   18  O   UNK     0     147.780 156.546 147.846  0.00  0.00    -0.358 OA
HETATM   19  H   UNK     0     147.580 157.485 147.990  0.00  0.00     0.217 HD
ENDBRANCH  14  18
BRANCH  15  20
HETATM   20  O   UNK     0     145.712 155.971 149.610  0.00  0.00    -0.358 OA
HETATM   21  H   UNK     0     145.663 156.897 149.323  0.00  0.00     0.217 HD
ENDBRANCH  15  20
ENDBRANCH   5  12
BRANCH   6  22
HETATM   22  O   UNK     0     150.714 152.319 150.457  0.00  0.00    -0.355 OA
HETATM   23  H   UNK     0     149.841 152.633 150.170  0.00  0.00     0.218 HD
ENDBRANCH   6  22
BRANCH   8  24
HETATM   24  O   UNK     0     155.666 152.950 152.029  0.00  0.00    -0.360 OA
HETATM   25  H   UNK     0     155.927 152.700 152.929  0.00  0.00     0.217 HD
ENDBRANCH   8  24
BRANCH  10  26
HETATM   26  O   UNK     0     155.857 157.627 152.831  0.00  0.00    -0.361 OA
HETATM   27  H   UNK     0     156.209 157.476 153.725  0.00  0.00     0.217 HD
ENDBRANCH  10  26
TORSDOF 6
ENDMDL
MODEL 3
REMARK VINA RESULT:      -7.6      2.461      4.050
REMARK  6 active torsions:
REMARK  status: ('A' for Active; 'I' for Inactive)
REMARK    1  A    between atoms: O_2  and  C_12 
REMARK    2  A    between atoms: O_3  and  C_14 
REMARK    3  A    between atoms: O_5  and  C_16 
REMARK    4  A    between atoms: O_6  and  C_20 
REMARK    5  A    between atoms: O_7  and  C_22 
REMARK    6  A    between atoms: C_10  and  C_11 
ROOT
HETATM    1  O   UNK     0     151.184 157.500 151.025  0.00  0.00    -0.306 OA
HETATM    2  O   UNK     0     152.302 161.216 152.268  0.00  0.00    -0.284 OA
HETATM    3  C   UNK     0     150.640 159.849 151.303  0.00  0.00     0.084 A 
HETATM    4  C   UNK     0     150.319 158.555 150.896  0.00  0.00     0.096 A 
HETATM    5  C   UNK     0     152.427 157.728 151.597  0.00  0.00     0.123 A 
HETATM    6  C   UNK     0     152.861 158.929 152.022  0.00  0.00     0.152 A 
HETATM    7  C   UNK     0     151.962 160.101 151.897  0.00  0.00     0.223 A 
HETATM    8  C   UNK     0     149.718 160.886 151.145  0.00  0.00     0.085 A 
HETATM    9  C   UNK     0     149.073 158.291 150.327  0.00  0.00     0.075 A 
HETATM   10  C   UNK     0     148.150 159.325 150.168  0.00  0.00     0.071 A 
HETATM   11  C   UNK     0     148.473 160.620 150.576  0.00  0.00     0.074 A 
ENDROOT
BRANCH   5  12
HETATM   12  C   UNK     0     153.256 156.513 151.676  0.00  0.00     0.004 A 
HETATM   13  C   UNK     0     153.096 155.627 152.742  0.00  0.00     0.053 A 
HETATM   14  C   UNK     0     153.881 154.476 152.816  0.00  0.00     0.099 A 
HETATM   15  C   UNK     0     154.826 154.211 151.824  0.00  0.00     0.098 A 
HETATM   16  C   UNK     0     154.985 155.096 150.758  0.00  0.00     0.040 A 
HETATM   17  C   UNK     0     154.200 156.247 150.684  0.00  0.00     0.017 A 
BRANCH  14  18
HETATM   18  O   UNK     0     153.718 153.620 153.863  0.00  0.00    -0.358 OA
HETATM   19  H   UNK     0     152.899 153.834 154.338  0.00  0.00     0.217 HD
ENDBRANCH  14  18
BRANCH  15  20
HETATM   20  O   UNK     0     155.596 153.089 151.885  0.00  0.00    -0.358 OA
HETATM   21  H   UNK     0     155.755 152.752 150.989  0.00  0.00     0.217 HD
ENDBRANCH  15  20
ENDBRANCH   5  12
BRANCH   6  22
HETATM   22  O   UNK     0     154.116 159.129 152.556  0.00  0.00    -0.355 OA
HETATM   23  H   UNK     0     154.397 158.337 153.043  0.00  0.00     0.218 HD
ENDBRANCH   6  22
BRANCH   8  24
HETATM   24  O   UNK     0     149.982 162.168 151.525  0.00  0.00    -0.360 OA
HETATM   25  H   UNK     0     150.311 162.191 152.436  0.00  0.00     0.217 HD
ENDBRANCH   8  24
BRANCH  10  26
HETATM   26  O   UNK     0     146.933 159.069 149.613  0.00  0.00    -0.361 OA
HETATM   27  H   UNK     0     146.828 159.619 148.818  0.00  0.00     0.217 HD
ENDBRANCH  10  26
TORSDOF 6
ENDMDL
MODEL 4
REMARK VINA RESULT:      -7.6      4.879      7.217
REMARK  6 active torsions:
REMARK  status: ('A' for Active; 'I' for Inactive)
REMARK    1  A    between atoms: O_2  and  C_12 
REMARK    2  A    between atoms: O_3  and  C_14 
REMARK    3  A    between atoms: O_5  and  C_16 
REMARK    4  A    between atoms: O_6  and  C_20 
REMARK    5  A    between atoms: O_7  and  C_22 
REMARK    6  A    between atoms: C_10  and  C_11 
ROOT
HETATM    1  O   UNK     0     154.661 157.407 148.668  0.00  0.00    -0.306 OA
HETATM    2  O   UNK     0     156.454 160.765 150.121  0.00  0.00    -0.284 OA
HETATM    3  C   UNK     0     155.616 159.599 148.251  0.00  0.00     0.084 A 
HETATM    4  C   UNK     0     155.002 158.425 147.817  0.00  0.00     0.096 A 
HETATM    5  C   UNK     0     154.927 157.557 150.021  0.00  0.00     0.123 A 
HETATM    6  C   UNK     0     155.521 158.635 150.566  0.00  0.00     0.152 A 
HETATM    7  C   UNK     0     155.912 159.759 149.683  0.00  0.00     0.223 A 
HETATM    8  C   UNK     0     155.942 160.603 147.336  0.00  0.00     0.085 A 
HETATM    9  C   UNK     0     154.713 158.248 146.464  0.00  0.00     0.075 A 
HETATM   10  C   UNK     0     155.038 159.249 145.548  0.00  0.00     0.071 A 
HETATM   11  C   UNK     0     155.651 160.424 145.984  0.00  0.00     0.074 A 
ENDROOT
BRANCH   5  12
HETATM   12  C   UNK     0     154.511 156.393 150.822  0.00  0.00     0.004 A 
HETATM   13  C   UNK     0     155.355 155.289 150.939  0.00  0.00     0.053 A 
HETATM   14  C   UNK     0     154.961 154.187 151.698  0.00  0.00     0.099 A 
HETATM   15  C   UNK     0     153.722 154.189 152.340  0.00  0.00     0.098 A 
HETATM   16  C   UNK     0     152.878 155.293 152.223  0.00  0.00     0.040 A 
HETATM   17  C   UNK     0     153.272 156.395 151.465  0.00  0.00     0.017 A 
BRANCH  14  18
HETATM   18  O   UNK     0     155.792 153.113 151.804  0.00  0.00    -0.358 OA
HETATM   19  H   UNK     0     156.229 153.120 152.671  0.00  0.00     0.217 HD
ENDBRANCH  14  18
BRANCH  15  20
HETATM   20  O   UNK     0     153.327 153.119 153.086  0.00  0.00    -0.358 OA
HETATM   21  H   UNK     0     153.273 153.374 154.020  0.00  0.00     0.217 HD
ENDBRANCH  15  20
ENDBRANCH   5  12
BRANCH   6  22
HETATM   22  O   UNK     0     155.800 158.740 151.911  0.00  0.00    -0.355 OA
HETATM   23  H   UNK     0     155.806 159.674 152.175  0.00  0.00     0.218 HD
ENDBRANCH   6  22
BRANCH   8  24
HETATM   24  O   UNK     0     156.542 161.769 147.708  0.00  0.00    -0.360 OA
HETATM   25  H   UNK     0     157.499 161.645 147.797  0.00  0.00     0.217 HD
ENDBRANCH   8  24
BRANCH  10  26
HETATM   26  O   UNK     0     154.755 159.078 144.227  0.00  0.00    -0.361 OA
HETATM   27  H   UNK     0     153.885 158.650 144.144  0.00  0.00     0.217 HD
ENDBRANCH  10  26
TORSDOF 6
ENDMDL
MODEL 5
REMARK VINA RESULT:      -7.5      4.785      7.454
REMARK  6 active torsions:
REMARK  status: ('A' for Active; 'I' for Inactive)
REMARK    1  A    between atoms: O_2  and  C_12 
REMARK    2  A    between atoms: O_3  and  C_14 
REMARK    3  A    between atoms: O_5  and  C_16 
REMARK    4  A    between atoms: O_6  and  C_20 
REMARK    5  A    between atoms: O_7  and  C_22 
REMARK    6  A    between atoms: C_10  and  C_11 
ROOT
HETATM    1  O   UNK     0     154.303 153.505 149.132  0.00  0.00    -0.306 OA
HETATM    2  O   UNK     0     150.659 153.977 150.895  0.00  0.00    -0.284 OA
HETATM    3  C   UNK     0     152.995 154.274 151.026  0.00  0.00     0.084 A 
HETATM    4  C   UNK     0     154.210 154.083 150.371  0.00  0.00     0.096 A 
HETATM    5  C   UNK     0     153.136 153.106 148.498  0.00  0.00     0.123 A 
HETATM    6  C   UNK     0     151.903 153.226 149.025  0.00  0.00     0.152 A 
HETATM    7  C   UNK     0     151.755 153.840 150.366  0.00  0.00     0.223 A 
HETATM    8  C   UNK     0     152.963 154.867 152.291  0.00  0.00     0.085 A 
HETATM    9  C   UNK     0     155.401 154.483 150.978  0.00  0.00     0.075 A 
HETATM   10  C   UNK     0     155.371 155.076 152.240  0.00  0.00     0.071 A 
HETATM   11  C   UNK     0     154.155 155.268 152.895  0.00  0.00     0.074 A 
ENDROOT
BRANCH   5  12
HETATM   12  C   UNK     0     153.376 152.503 147.176  0.00  0.00     0.004 A 
HETATM   13  C   UNK     0     153.587 151.128 147.063  0.00  0.00     0.053 A 
HETATM   14  C   UNK     0     153.815 150.558 145.811  0.00  0.00     0.099 A 
HETATM   15  C   UNK     0     153.830 151.362 144.671  0.00  0.00     0.098 A 
HETATM   16  C   UNK     0     153.618 152.735 144.783  0.00  0.00     0.040 A 
HETATM   17  C   UNK     0     153.391 153.306 146.035  0.00  0.00     0.017 A 
BRANCH  14  18
HETATM   18  O   UNK     0     154.022 149.215 145.713  0.00  0.00    -0.358 OA
HETATM   19  H   UNK     0     153.394 148.743 146.284  0.00  0.00     0.217 HD
ENDBRANCH  14  18
BRANCH  15  20
HETATM   20  O   UNK     0     154.049 150.815 143.442  0.00  0.00    -0.358 OA
HETATM   21  H   UNK     0     154.353 151.502 142.828  0.00  0.00     0.217 HD
ENDBRANCH  15  20
ENDBRANCH   5  12
BRANCH   6  22
HETATM   22  O   UNK     0     150.765 152.789 148.383  0.00  0.00    -0.355 OA
HETATM   23  H   UNK     0     150.366 152.056 148.880  0.00  0.00     0.218 HD
ENDBRANCH   6  22
BRANCH   8  24
HETATM   24  O   UNK     0     151.802 155.077 152.974  0.00  0.00    -0.360 OA
HETATM   25  H   UNK     0     151.064 155.203 152.360  0.00  0.00     0.217 HD
ENDBRANCH   8  24
BRANCH  10  26
HETATM   26  O   UNK     0     156.533 155.468 152.833  0.00  0.00    -0.361 OA
HETATM   27  H   UNK     0     156.372 155.601 153.783  0.00  0.00     0.217 HD
ENDBRANCH  10  26
TORSDOF 6
ENDMDL
MODEL 6
REMARK VINA RESULT:      -7.4      9.328     12.409
REMARK  6 active torsions:
REMARK  status: ('A' for Active; 'I' for Inactive)
REMARK    1  A    between atoms: O_2  and  C_12 
REMARK    2  A    between atoms: O_3  and  C_14 
REMARK    3  A    between atoms: O_5  and  C_16 
REMARK    4  A    between atoms: O_6  and  C_20 
REMARK    5  A    between atoms: O_7  and  C_22 
REMARK    6  A    between atoms: C_10  and  C_11 
ROOT
HETATM    1  O   UNK     0     149.906 148.336 143.841  0.00  0.00    -0.306 OA
HETATM    2  O   UNK     0     148.976 151.310 146.467  0.00  0.00    -0.284 OA
HETATM    3  C   UNK     0     150.617 149.860 145.591  0.00  0.00     0.084 A 
HETATM    4  C   UNK     0     150.870 148.843 144.672  0.00  0.00     0.096 A 
HETATM    5  C   UNK     0     148.628 148.867 143.908  0.00  0.00     0.123 A 
HETATM    6  C   UNK     0     148.251 149.844 144.754  0.00  0.00     0.152 A 
HETATM    7  C   UNK     0     149.259 150.420 145.676  0.00  0.00     0.223 A 
HETATM    8  C   UNK     0     151.640 150.337 146.415  0.00  0.00     0.085 A 
HETATM    9  C   UNK     0     152.149 148.294 144.574  0.00  0.00     0.075 A 
HETATM   10  C   UNK     0     153.173 148.769 145.395  0.00  0.00     0.071 A 
HETATM   11  C   UNK     0     152.918 149.787 146.313  0.00  0.00     0.074 A 
ENDROOT
BRANCH   5  12
HETATM   12  C   UNK     0     147.691 148.235 142.963  0.00  0.00     0.004 A 
HETATM   13  C   UNK     0     147.015 147.070 143.324  0.00  0.00     0.053 A 
HETATM   14  C   UNK     0     146.128 146.471 142.429  0.00  0.00     0.099 A 
HETATM   15  C   UNK     0     145.918 147.038 141.172  0.00  0.00     0.098 A 
HETATM   16  C   UNK     0     146.593 148.204 140.811  0.00  0.00     0.040 A 
HETATM   17  C   UNK     0     147.480 148.803 141.706  0.00  0.00     0.017 A 
BRANCH  14  18
HETATM   18  O   UNK     0     145.476 145.332 142.792  0.00  0.00    -0.358 OA
HETATM   19  H   UNK     0     146.083 144.576 142.744  0.00  0.00     0.217 HD
ENDBRANCH  14  18
BRANCH  15  20
HETATM   20  O   UNK     0     145.052 146.464 140.290  0.00  0.00    -0.358 OA
HETATM   21  H   UNK     0     144.235 146.213 140.749  0.00  0.00     0.217 HD
ENDBRANCH  15  20
ENDBRANCH   5  12
BRANCH   6  22
HETATM   22  O   UNK     0     146.962 150.328 144.819  0.00  0.00    -0.355 OA
HETATM   23  H   UNK     0     146.789 150.907 144.058  0.00  0.00     0.218 HD
ENDBRANCH   6  22
BRANCH   8  24
HETATM   24  O   UNK     0     151.445 151.329 147.328  0.00  0.00    -0.360 OA
HETATM   25  H   UNK     0     152.197 151.940 147.332  0.00  0.00     0.217 HD
ENDBRANCH   8  24
BRANCH  10  26
HETATM   26  O   UNK     0     154.422 148.234 145.300  0.00  0.00    -0.361 OA
HETATM   27  H   UNK     0     154.395 147.314 145.612  0.00  0.00     0.217 HD
ENDBRANCH  10  26
TORSDOF 6
ENDMDL
MODEL 7
REMARK VINA RESULT:      -7.4      1.335      2.955
REMARK  6 active torsions:
REMARK  status: ('A' for Active; 'I' for Inactive)
REMARK    1  A    between atoms: O_2  and  C_12 
REMARK    2  A    between atoms: O_3  and  C_14 
REMARK    3  A    between atoms: O_5  and  C_16 
REMARK    4  A    between atoms: O_6  and  C_20 
REMARK    5  A    between atoms: O_7  and  C_22 
REMARK    6  A    between atoms: C_10  and  C_11 
ROOT
HETATM    1  O   UNK     0     150.677 155.409 150.999  0.00  0.00    -0.306 OA
HETATM    2  O   UNK     0     149.532 159.285 150.479  0.00  0.00    -0.284 OA
HETATM    3  C   UNK     0     148.999 156.998 150.259  0.00  0.00     0.084 A 
HETATM    4  C   UNK     0     149.450 155.695 150.461  0.00  0.00     0.096 A 
HETATM    5  C   UNK     0     151.500 156.462 151.369  0.00  0.00     0.123 A 
HETATM    6  C   UNK     0     151.188 157.762 151.220  0.00  0.00     0.152 A 
HETATM    7  C   UNK     0     149.872 158.120 150.638  0.00  0.00     0.223 A 
HETATM    8  C   UNK     0     147.737 157.230 149.705  0.00  0.00     0.085 A 
HETATM    9  C   UNK     0     148.641 154.614 150.108  0.00  0.00     0.075 A 
HETATM   10  C   UNK     0     147.381 154.843 149.555  0.00  0.00     0.071 A 
HETATM   11  C   UNK     0     146.931 156.147 149.354  0.00  0.00     0.074 A 
ENDROOT
BRANCH   5  12
HETATM   12  C   UNK     0     152.786 156.016 151.933  0.00  0.00     0.004 A 
HETATM   13  C   UNK     0     152.852 155.564 153.251  0.00  0.00     0.053 A 
HETATM   14  C   UNK     0     154.070 155.142 153.783  0.00  0.00     0.099 A 
HETATM   15  C   UNK     0     155.223 155.172 152.998  0.00  0.00     0.098 A 
HETATM   16  C   UNK     0     155.157 155.623 151.680  0.00  0.00     0.040 A 
HETATM   17  C   UNK     0     153.939 156.046 151.147  0.00  0.00     0.017 A 
BRANCH  14  18
HETATM   18  O   UNK     0     154.123 154.705 155.072  0.00  0.00    -0.358 OA
HETATM   19  H   UNK     0     154.650 155.321 155.607  0.00  0.00     0.217 HD
ENDBRANCH  14  18
BRANCH  15  20
HETATM   20  O   UNK     0     156.418 154.760 153.506  0.00  0.00    -0.358 OA
HETATM   21  H   UNK     0     156.575 155.189 154.362  0.00  0.00     0.217 HD
ENDBRANCH  15  20
ENDBRANCH   5  12
BRANCH   6  22
HETATM   22  O   UNK     0     152.042 158.786 151.569  0.00  0.00    -0.355 OA
HETATM   23  H   UNK     0     152.345 158.666 152.483  0.00  0.00     0.218 HD
ENDBRANCH   6  22
BRANCH   8  24
HETATM   24  O   UNK     0     147.250 158.483 149.487  0.00  0.00    -0.360 OA
HETATM   25  H   UNK     0     147.381 159.040 150.269  0.00  0.00     0.217 HD
ENDBRANCH   8  24
BRANCH  10  26
HETATM   26  O   UNK     0     146.591 153.788 149.210  0.00  0.00    -0.361 OA
HETATM   27  H   UNK     0     146.887 153.440 148.351  0.00  0.00     0.217 HD
ENDBRANCH  10  26
TORSDOF 6
ENDMDL
MODEL 8
REMARK VINA RESULT:      -7.3      2.068      6.753
REMARK  6 active torsions:
REMARK  status: ('A' for Active; 'I' for Inactive)
REMARK    1  A    between atoms: O_2  and  C_12 
REMARK    2  A    between atoms: O_3  and  C_14 
REMARK    3  A    between atoms: O_5  and  C_16 
REMARK    4  A    between atoms: O_6  and  C_20 
REMARK    5  A    between atoms: O_7  and  C_22 
REMARK    6  A    between atoms: C_10  and  C_11 
ROOT
HETATM    1  O   UNK     0     149.569 157.414 150.423  0.00  0.00    -0.306 OA
HETATM    2  O   UNK     0     151.815 154.038 150.830  0.00  0.00    -0.284 OA
HETATM    3  C   UNK     0     151.624 156.363 151.174  0.00  0.00     0.084 A 
HETATM    4  C   UNK     0     150.808 157.480 151.005  0.00  0.00     0.096 A 
HETATM    5  C   UNK     0     149.103 156.180 149.997  0.00  0.00     0.123 A 
HETATM    6  C   UNK     0     149.794 155.029 150.095  0.00  0.00     0.152 A 
HETATM    7  C   UNK     0     151.141 155.053 150.713  0.00  0.00     0.223 A 
HETATM    8  C   UNK     0     152.880 156.492 151.773  0.00  0.00     0.085 A 
HETATM    9  C   UNK     0     151.245 158.735 151.432  0.00  0.00     0.075 A 
HETATM   10  C   UNK     0     152.498 158.866 152.031  0.00  0.00     0.071 A 
HETATM   11  C   UNK     0     153.314 157.747 152.201  0.00  0.00     0.074 A 
ENDROOT
BRANCH   5  12
HETATM   12  C   UNK     0     147.761 156.249 149.393  0.00  0.00     0.004 A 
HETATM   13  C   UNK     0     147.568 156.946 148.200  0.00  0.00     0.053 A 
HETATM   14  C   UNK     0     146.298 157.011 147.628  0.00  0.00     0.099 A 
HETATM   15  C   UNK     0     145.220 156.378 148.248  0.00  0.00     0.098 A 
HETATM   16  C   UNK     0     145.413 155.680 149.440  0.00  0.00     0.040 A 
HETATM   17  C   UNK     0     146.684 155.615 150.013  0.00  0.00     0.017 A 
BRANCH  14  18
HETATM   18  O   UNK     0     146.120 157.697 146.465  0.00  0.00    -0.358 OA
HETATM   19  H   UNK     0     146.141 158.652 146.640  0.00  0.00     0.217 HD
ENDBRANCH  14  18
BRANCH  15  20
HETATM   20  O   UNK     0     143.975 156.433 147.698  0.00  0.00    -0.358 OA
HETATM   21  H   UNK     0     143.703 157.358 147.594  0.00  0.00     0.217 HD
ENDBRANCH  15  20
ENDBRANCH   5  12
BRANCH   6  22
HETATM   22  O   UNK     0     149.315 153.822 149.631  0.00  0.00    -0.355 OA
HETATM   23  H   UNK     0     149.538 153.116 150.259  0.00  0.00     0.218 HD
ENDBRANCH   6  22
BRANCH   8  24
HETATM   24  O   UNK     0     153.716 155.432 151.962  0.00  0.00    -0.360 OA
HETATM   25  H   UNK     0     154.597 155.737 152.225  0.00  0.00     0.217 HD
ENDBRANCH   8  24
BRANCH  10  26
HETATM   26  O   UNK     0     152.926 160.090 152.449  0.00  0.00    -0.361 OA
HETATM   27  H   UNK     0     152.150 160.643 152.646  0.00  0.00     0.217 HD
ENDBRANCH  10  26
TORSDOF 6
ENDMDL
MODEL 9
REMARK VINA RESULT:      -7.2      9.588     10.946
REMARK  6 active torsions:
REMARK  status: ('A' for Active; 'I' for Inactive)
REMARK    1  A    between atoms: O_2  and  C_12 
REMARK    2  A    between atoms: O_3  and  C_14 
REMARK    3  A    between atoms: O_5  and  C_16 
REMARK    4  A    between atoms: O_6  and  C_20 
REMARK    5  A    between atoms: O_7  and  C_22 
REMARK    6  A    between atoms: C_10  and  C_11 
ROOT
HETATM    1  O   UNK     0     150.657 148.898 142.688  0.00  0.00    -0.306 OA
HETATM    2  O   UNK     0     146.852 150.006 143.640  0.00  0.00    -0.284 OA
HETATM    3  C   UNK     0     148.277 148.758 142.234  0.00  0.00     0.084 A 
HETATM    4  C   UNK     0     149.600 148.419 141.959  0.00  0.00     0.096 A 
HETATM    5  C   UNK     0     150.396 149.746 143.753  0.00  0.00     0.123 A 
HETATM    6  C   UNK     0     149.167 150.157 144.117  0.00  0.00     0.152 A 
HETATM    7  C   UNK     0     147.993 149.668 143.354  0.00  0.00     0.223 A 
HETATM    8  C   UNK     0     147.239 148.239 141.455  0.00  0.00     0.085 A 
HETATM    9  C   UNK     0     149.894 147.559 140.900  0.00  0.00     0.075 A 
HETATM   10  C   UNK     0     148.860 147.039 140.121  0.00  0.00     0.071 A 
HETATM   11  C   UNK     0     147.536 147.379 140.398  0.00  0.00     0.074 A 
ENDROOT
BRANCH   5  12
HETATM   12  C   UNK     0     151.616 150.187 144.450  0.00  0.00     0.004 A 
HETATM   13  C   UNK     0     152.368 151.246 143.942  0.00  0.00     0.053 A 
HETATM   14  C   UNK     0     153.523 151.663 144.603  0.00  0.00     0.099 A 
HETATM   15  C   UNK     0     153.928 151.019 145.773  0.00  0.00     0.098 A 
HETATM   16  C   UNK     0     153.176 149.961 146.282  0.00  0.00     0.040 A 
HETATM   17  C   UNK     0     152.020 149.544 145.621  0.00  0.00     0.017 A 
BRANCH  14  18
HETATM   18  O   UNK     0     154.250 152.697 144.096  0.00  0.00    -0.358 OA
HETATM   19  H   UNK     0     154.173 153.469 144.679  0.00  0.00     0.217 HD
ENDBRANCH  14  18
BRANCH  15  20
HETATM   20  O   UNK     0     155.053 151.419 146.428  0.00  0.00    -0.358 OA
HETATM   21  H   UNK     0     154.904 152.287 146.836  0.00  0.00     0.217 HD
ENDBRANCH  15  20
ENDBRANCH   5  12
BRANCH   6  22
HETATM   22  O   UNK     0     148.944 151.028 145.161  0.00  0.00    -0.355 OA
HETATM   23  H   UNK     0     148.289 151.696 144.900  0.00  0.00     0.218 HD
ENDBRANCH   6  22
BRANCH   8  24
HETATM   24  O   UNK     0     145.929 148.539 141.681  0.00  0.00    -0.360 OA
HETATM   25  H   UNK     0     145.821 149.488 141.846  0.00  0.00     0.217 HD
ENDBRANCH   8  24
BRANCH  10  26
HETATM   26  O   UNK     0     149.146 146.199 139.087  0.00  0.00    -0.361 OA
HETATM   27  H   UNK     0     149.064 145.280 139.396  0.00  0.00     0.217 HD
ENDBRANCH  10  26
TORSDOF 6
ENDMDL
MODEL 10
REMARK VINA RESULT:      -7.2      1.924      7.303
REMARK  6 active torsions:
REMARK  status: ('A' for Active; 'I' for Inactive)
REMARK    1  A    between atoms: O_2  and  C_12 
REMARK    2  A    between atoms: O_3  and  C_14 
REMARK    3  A    between atoms: O_5  and  C_16 
REMARK    4  A    between atoms: O_6  and  C_20 
REMARK    5  A    between atoms: O_7  and  C_22 
REMARK    6  A    between atoms: C_10  and  C_11 
ROOT
HETATM    1  O   UNK     0     150.702 156.111 151.006  0.00  0.00    -0.306 OA
HETATM    2  O   UNK     0     152.900 159.356 152.122  0.00  0.00    -0.284 OA
HETATM    3  C   UNK     0     152.676 157.008 152.096  0.00  0.00     0.084 A 
HETATM    4  C   UNK     0     151.878 155.941 151.687  0.00  0.00     0.096 A 
HETATM    5  C   UNK     0     150.295 157.400 150.698  0.00  0.00     0.123 A 
HETATM    6  C   UNK     0     150.968 158.514 151.041  0.00  0.00     0.152 A 
HETATM    7  C   UNK     0     152.244 158.379 151.784  0.00  0.00     0.223 A 
HETATM    8  C   UNK     0     153.866 156.774 152.789  0.00  0.00     0.085 A 
HETATM    9  C   UNK     0     152.266 154.631 151.973  0.00  0.00     0.075 A 
HETATM   10  C   UNK     0     153.453 154.394 152.665  0.00  0.00     0.071 A 
HETATM   11  C   UNK     0     154.251 155.464 153.073  0.00  0.00     0.074 A 
ENDROOT
BRANCH   5  12
HETATM   12  C   UNK     0     149.018 157.441 149.965  0.00  0.00     0.004 A 
HETATM   13  C   UNK     0     148.941 158.087 148.732  0.00  0.00     0.053 A 
HETATM   14  C   UNK     0     147.731 158.125 148.038  0.00  0.00     0.099 A 
HETATM   15  C   UNK     0     146.598 157.517 148.579  0.00  0.00     0.098 A 
HETATM   16  C   UNK     0     146.674 156.871 149.812  0.00  0.00     0.040 A 
HETATM   17  C   UNK     0     147.884 156.832 150.506  0.00  0.00     0.017 A 
BRANCH  14  18
HETATM   18  O   UNK     0     147.667 158.760 146.835  0.00  0.00    -0.358 OA
HETATM   19  H   UNK     0     148.565 158.947 146.514  0.00  0.00     0.217 HD
ENDBRANCH  14  18
BRANCH  15  20
HETATM   20  O   UNK     0     145.411 157.546 147.910  0.00  0.00    -0.358 OA
HETATM   21  H   UNK     0     145.457 158.195 147.190  0.00  0.00     0.217 HD
ENDBRANCH  15  20
ENDBRANCH   5  12
BRANCH   6  22
HETATM   22  O   UNK     0     150.519 159.784 150.749  0.00  0.00    -0.355 OA
HETATM   23  H   UNK     0     149.861 160.061 151.407  0.00  0.00     0.218 HD
ENDBRANCH   6  22
BRANCH   8  24
HETATM   24  O   UNK     0     154.681 157.781 153.211  0.00  0.00    -0.360 OA
HETATM   25  H   UNK     0     155.171 157.514 154.003  0.00  0.00     0.217 HD
ENDBRANCH   8  24
BRANCH  10  26
HETATM   26  O   UNK     0     153.833 153.116 152.944  0.00  0.00    -0.361 OA
HETATM   27  H   UNK     0     154.255 153.097 153.820  0.00  0.00     0.217 HD
ENDBRANCH  10  26
TORSDOF 6
ENDMDL
