MODEL 1
REMARK VINA RESULT:    -9.295      0.000      0.000
REMARK INTER + INTRA:         -13.660
REMARK INTER:                 -12.556
REMARK INTRA:                  -1.104
REMARK UNBOUND:                -1.104
REMARK  Name = 14749097
REMARK  9 active torsions:
REMARK  status: ('A' for Active; 'I' for Inactive)
REMARK    1  A    between atoms: O_2  and  C_14
REMARK    2  A    between atoms: O_2  and  C_16
REMARK    3  A    between atoms: O_3  and  C_11
REMARK    4  A    between atoms: O_4  and  C_12
REMARK    5  A    between atoms: O_5  and  C_13
REMARK    6  A    between atoms: O_8  and  C_22
REMARK    7  A    between atoms: O_9  and  C_27
REMARK    8  A    between atoms: O_10  and  C_30
REMARK    9  A    between atoms: C_17  and  C_21
REMARK                            x       y       z     vdW  Elec       q    Type
REMARK                         _______ _______ _______ _____ _____    ______ ____
ROOT
ATOM      1  O   UNL     1      77.873  93.088 107.961  0.00  0.00    +0.000 OA
ATOM      2  O   UNL     1      74.896  91.104 109.914  0.00  0.00    +0.000 OA
ATOM      3  C   UNL     1      77.037  92.113 110.010  0.00  0.00    +0.000 A 
ATOM      4  C   UNL     1      77.982  92.760 109.303  0.00  0.00    +0.000 A 
ATOM      5  C   UNL     1      75.790  91.696 109.324  0.00  0.00    +0.000 A 
ATOM      6  C   UNL     1      75.687  92.037 107.896  0.00  0.00    +0.000 A 
ATOM      7  C   UNL     1      76.738  92.717 107.287  0.00  0.00    +0.000 A 
ATOM      8  C   UNL     1      74.553  91.684 107.159  0.00  0.00    +0.000 A 
ATOM      9  C   UNL     1      76.663  93.053 105.936  0.00  0.00    +0.000 A 
ATOM     10  C   UNL     1      74.480  92.021 105.806  0.00  0.00    +0.000 A 
ATOM     11  C   UNL     1      75.532  92.703 105.196  0.00  0.00    +0.000 A 
ENDROOT
BRANCH   4  12
ATOM     12  C   UNL     1      79.247  93.217 109.906  0.00  0.00    +0.000 A 
ATOM     13  C   UNL     1      80.126  92.292 110.471  0.00  0.00    +0.000 A 
ATOM     14  C   UNL     1      79.566  94.575 109.911  0.00  0.00    +0.000 A 
ATOM     15  C   UNL     1      81.322  92.724 111.041  0.00  0.00    +0.000 A 
ATOM     16  C   UNL     1      80.764  95.007 110.482  0.00  0.00    +0.000 A 
ATOM     17  C   UNL     1      81.642  94.082 111.046  0.00  0.00    +0.000 A 
BRANCH  17  18
ATOM     18  O   UNL     1      82.811  94.503 111.602  0.00  0.00    +0.000 OA
ATOM     19  H   UNL     1      83.068  93.883 112.305  0.00  0.00    +0.000 HD
ENDBRANCH  17  18
ENDBRANCH   4  12
BRANCH   8  20
ATOM     20  O   UNL     1      73.497  91.019 107.706  0.00  0.00    +0.000 OA
ATOM     21  H   UNL     1      73.605  90.943 108.666  0.00  0.00    +0.000 HD
ENDBRANCH   8  20
BRANCH  11  22
ATOM     22  O   UNL     1      75.457  93.028 103.876  0.00  0.00    +0.000 OA
ATOM     23  H   UNL     1      75.560  93.991 103.782  0.00  0.00    +0.000 HD
ENDBRANCH  11  22
BRANCH   3  24
ATOM     24  O   UNL     1      77.162  91.831 111.353  0.00  0.00    +0.000 OA
BRANCH  24  29
ATOM     25  O   UNL     1      77.024  93.890 112.511  0.00  0.00    +0.000 OA
ATOM     26  C   UNL     1      77.038  91.666 114.339  0.00  0.00    +0.000 C 
ATOM     27  C   UNL     1      75.863  91.947 113.400  0.00  0.00    +0.000 C 
ATOM     28  C   UNL     1      77.806  92.956 114.629  0.00  0.00    +0.000 C 
ATOM     29  C   UNL     1      76.342  92.688 112.148  0.00  0.00    +0.000 C 
ATOM     30  C   UNL     1      78.177  93.668 113.332  0.00  0.00    +0.000 C 
BRANCH  26  31
ATOM     31  O   UNL     1      76.574  91.116 115.569  0.00  0.00    +0.000 OA
ATOM     32  H   UNL     1      75.785  90.583 115.369  0.00  0.00    +0.000 HD
ENDBRANCH  26  31
BRANCH  27  33
ATOM     33  O   UNL     1      75.234  90.732 113.009  0.00  0.00    +0.000 OA
ATOM     34  H   UNL     1      75.931  90.107 112.747  0.00  0.00    +0.000 HD
ENDBRANCH  27  33
BRANCH  28  35
ATOM     35  O   UNL     1      76.982  93.830 115.405  0.00  0.00    +0.000 OA
ATOM     36  H   UNL     1      76.523  94.424 114.787  0.00  0.00    +0.000 HD
ENDBRANCH  28  35
ENDBRANCH  24  29
ENDBRANCH   3  24
TORSDOF 9
ENDMDL
MODEL 2
REMARK VINA RESULT:    -9.192      2.761      6.138
REMARK INTER + INTRA:         -13.521
REMARK INTER:                 -12.778
REMARK INTRA:                  -0.743
REMARK UNBOUND:                -1.104
REMARK  Name = 14749097
REMARK  9 active torsions:
REMARK  status: ('A' for Active; 'I' for Inactive)
REMARK    1  A    between atoms: O_2  and  C_14
REMARK    2  A    between atoms: O_2  and  C_16
REMARK    3  A    between atoms: O_3  and  C_11
REMARK    4  A    between atoms: O_4  and  C_12
REMARK    5  A    between atoms: O_5  and  C_13
REMARK    6  A    between atoms: O_8  and  C_22
REMARK    7  A    between atoms: O_9  and  C_27
REMARK    8  A    between atoms: O_10  and  C_30
REMARK    9  A    between atoms: C_17  and  C_21
REMARK                            x       y       z     vdW  Elec       q    Type
REMARK                         _______ _______ _______ _____ _____    ______ ____
ROOT
ATOM      1  O   UNL     1      80.210  91.801 111.816  0.00  0.00    +0.000 OA
ATOM      2  O   UNL     1      77.301  91.028 114.562  0.00  0.00    +0.000 OA
ATOM      3  C   UNL     1      77.974  92.224 112.632  0.00  0.00    +0.000 A 
ATOM      4  C   UNL     1      78.980  92.437 111.764  0.00  0.00    +0.000 A 
ATOM      5  C   UNL     1      78.177  91.261 113.741  0.00  0.00    +0.000 A 
ATOM      6  C   UNL     1      79.490  90.600 113.797  0.00  0.00    +0.000 A 
ATOM      7  C   UNL     1      80.442  90.906 112.828  0.00  0.00    +0.000 A 
ATOM      8  C   UNL     1      79.782  89.678 114.807  0.00  0.00    +0.000 A 
ATOM      9  C   UNL     1      81.693  90.291 112.859  0.00  0.00    +0.000 A 
ATOM     10  C   UNL     1      81.036  89.064 114.835  0.00  0.00    +0.000 A 
ATOM     11  C   UNL     1      81.989  89.369 113.864  0.00  0.00    +0.000 A 
ENDROOT
BRANCH   4  12
ATOM     12  C   UNL     1      78.862  93.371 110.629  0.00  0.00    +0.000 A 
ATOM     13  C   UNL     1      78.798  94.745 110.859  0.00  0.00    +0.000 A 
ATOM     14  C   UNL     1      78.815  92.879 109.324  0.00  0.00    +0.000 A 
ATOM     15  C   UNL     1      78.687  95.628 109.786  0.00  0.00    +0.000 A 
ATOM     16  C   UNL     1      78.704  93.763 108.250  0.00  0.00    +0.000 A 
ATOM     17  C   UNL     1      78.641  95.137 108.481  0.00  0.00    +0.000 A 
BRANCH  17  18
ATOM     18  O   UNL     1      78.533  95.999 107.433  0.00  0.00    +0.000 OA
ATOM     19  H   UNL     1      77.593  96.110 107.211  0.00  0.00    +0.000 HD
ENDBRANCH  17  18
ENDBRANCH   4  12
BRANCH   8  20
ATOM     20  O   UNL     1      78.888  89.343 115.778  0.00  0.00    +0.000 OA
ATOM     21  H   UNL     1      78.779  88.381 115.821  0.00  0.00    +0.000 HD
ENDBRANCH   8  20
BRANCH  11  22
ATOM     22  O   UNL     1      83.210  88.768 113.898  0.00  0.00    +0.000 OA
ATOM     23  H   UNL     1      83.848  89.373 114.316  0.00  0.00    +0.000 HD
ENDBRANCH  11  22
BRANCH   3  24
ATOM     24  O   UNL     1      76.749  92.849 112.533  0.00  0.00    +0.000 OA
BRANCH  24  29
ATOM     25  O   UNL     1      75.598  93.286 110.513  0.00  0.00    +0.000 OA
ATOM     26  C   UNL     1      73.764  92.664 112.644  0.00  0.00    +0.000 C 
ATOM     27  C   UNL     1      74.712  91.621 112.048  0.00  0.00    +0.000 C 
ATOM     28  C   UNL     1      73.472  93.762 111.619  0.00  0.00    +0.000 C 
ATOM     29  C   UNL     1      75.963  92.296 111.477  0.00  0.00    +0.000 C 
ATOM     30  C   UNL     1      74.768  94.326 111.046  0.00  0.00    +0.000 C 
BRANCH  26  31
ATOM     31  O   UNL     1      72.537  92.057 113.035  0.00  0.00    +0.000 OA
ATOM     32  H   UNL     1      72.243  91.495 112.298  0.00  0.00    +0.000 HD
ENDBRANCH  26  31
BRANCH  27  33
ATOM     33  O   UNL     1      75.105  90.679 113.040  0.00  0.00    +0.000 OA
ATOM     34  H   UNL     1      75.667  90.012 112.610  0.00  0.00    +0.000 HD
ENDBRANCH  27  33
BRANCH  28  35
ATOM     35  O   UNL     1      72.704  93.211 110.546  0.00  0.00    +0.000 OA
ATOM     36  H   UNL     1      71.769  93.234 110.814  0.00  0.00    +0.000 HD
ENDBRANCH  28  35
ENDBRANCH  24  29
ENDBRANCH   3  24
TORSDOF 9
ENDMDL
MODEL 3
REMARK VINA RESULT:    -9.159      2.624      7.524
REMARK INTER + INTRA:         -13.476
REMARK INTER:                 -12.214
REMARK INTRA:                  -1.262
REMARK UNBOUND:                -1.104
REMARK  Name = 14749097
REMARK  9 active torsions:
REMARK  status: ('A' for Active; 'I' for Inactive)
REMARK    1  A    between atoms: O_2  and  C_14
REMARK    2  A    between atoms: O_2  and  C_16
REMARK    3  A    between atoms: O_3  and  C_11
REMARK    4  A    between atoms: O_4  and  C_12
REMARK    5  A    between atoms: O_5  and  C_13
REMARK    6  A    between atoms: O_8  and  C_22
REMARK    7  A    between atoms: O_9  and  C_27
REMARK    8  A    between atoms: O_10  and  C_30
REMARK    9  A    between atoms: C_17  and  C_21
REMARK                            x       y       z     vdW  Elec       q    Type
REMARK                         _______ _______ _______ _____ _____    ______ ____
ROOT
ATOM      1  O   UNL     1      76.422  92.427 113.202  0.00  0.00    +0.000 OA
ATOM      2  O   UNL     1      78.394  90.801 110.028  0.00  0.00    +0.000 OA
ATOM      3  C   UNL     1      76.424  91.816 110.862  0.00  0.00    +0.000 A 
ATOM      4  C   UNL     1      75.829  92.333 111.953  0.00  0.00    +0.000 A 
ATOM      5  C   UNL     1      77.803  91.285 110.984  0.00  0.00    +0.000 A 
ATOM      6  C   UNL     1      78.422  91.376 112.315  0.00  0.00    +0.000 A 
ATOM      7  C   UNL     1      77.695  91.944 113.359  0.00  0.00    +0.000 A 
ATOM      8  C   UNL     1      79.717  90.900 112.534  0.00  0.00    +0.000 A 
ATOM      9  C   UNL     1      78.261  92.043 114.630  0.00  0.00    +0.000 A 
ATOM     10  C   UNL     1      80.281  91.000 113.808  0.00  0.00    +0.000 A 
ATOM     11  C   UNL     1      79.554  91.570 114.853  0.00  0.00    +0.000 A 
ENDROOT
BRANCH   4  12
ATOM     12  C   UNL     1      74.464  92.889 111.921  0.00  0.00    +0.000 A 
ATOM     13  C   UNL     1      73.361  92.036 111.974  0.00  0.00    +0.000 A 
ATOM     14  C   UNL     1      74.275  94.269 111.838  0.00  0.00    +0.000 A 
ATOM     15  C   UNL     1      72.070  92.562 111.945  0.00  0.00    +0.000 A 
ATOM     16  C   UNL     1      72.983  94.795 111.808  0.00  0.00    +0.000 A 
ATOM     17  C   UNL     1      71.881  93.942 111.863  0.00  0.00    +0.000 A 
BRANCH  17  18
ATOM     18  O   UNL     1      70.621  94.455 111.834  0.00  0.00    +0.000 OA
ATOM     19  H   UNL     1      70.562  95.185 112.474  0.00  0.00    +0.000 HD
ENDBRANCH  17  18
ENDBRANCH   4  12
BRANCH   8  20
ATOM     20  O   UNL     1      80.470  90.336 111.549  0.00  0.00    +0.000 OA
ATOM     21  H   UNL     1      81.316  90.801 111.460  0.00  0.00    +0.000 HD
ENDBRANCH   8  20
BRANCH  11  22
ATOM     22  O   UNL     1      80.108  91.664 116.093  0.00  0.00    +0.000 OA
ATOM     23  H   UNL     1      80.547  90.822 116.307  0.00  0.00    +0.000 HD
ENDBRANCH  11  22
BRANCH   3  24
ATOM     24  O   UNL     1      75.818  91.768 109.625  0.00  0.00    +0.000 OA
BRANCH  24  29
ATOM     25  O   UNL     1      75.429  93.899 108.673  0.00  0.00    +0.000 OA
ATOM     26  C   UNL     1      75.262  91.823 106.685  0.00  0.00    +0.000 C 
ATOM     27  C   UNL     1      76.580  92.204 107.363  0.00  0.00    +0.000 C 
ATOM     28  C   UNL     1      74.295  93.008 106.701  0.00  0.00    +0.000 C 
ATOM     29  C   UNL     1      76.319  92.784 108.756  0.00  0.00    +0.000 C 
ATOM     30  C   UNL     1      74.152  93.571 108.111  0.00  0.00    +0.000 C 
BRANCH  26  31
ATOM     31  O   UNL     1      75.491  91.429 105.335  0.00  0.00    +0.000 OA
ATOM     32  H   UNL     1      74.756  91.779 104.803  0.00  0.00    +0.000 HD
ENDBRANCH  26  31
BRANCH  27  33
ATOM     33  O   UNL     1      77.427  91.067 107.484  0.00  0.00    +0.000 OA
ATOM     34  H   UNL     1      77.296  90.692 108.371  0.00  0.00    +0.000 HD
ENDBRANCH  27  33
BRANCH  28  35
ATOM     35  O   UNL     1      74.802  94.040 105.850  0.00  0.00    +0.000 OA
ATOM     36  H   UNL     1      74.628  93.773 104.931  0.00  0.00    +0.000 HD
ENDBRANCH  28  35
ENDBRANCH  24  29
ENDBRANCH   3  24
TORSDOF 9
ENDMDL
MODEL 4
REMARK VINA RESULT:    -9.004      2.782      6.365
REMARK INTER + INTRA:         -13.267
REMARK INTER:                 -13.092
REMARK INTRA:                  -0.176
REMARK UNBOUND:                -1.104
REMARK  Name = 14749097
REMARK  9 active torsions:
REMARK  status: ('A' for Active; 'I' for Inactive)
REMARK    1  A    between atoms: O_2  and  C_14
REMARK    2  A    between atoms: O_2  and  C_16
REMARK    3  A    between atoms: O_3  and  C_11
REMARK    4  A    between atoms: O_4  and  C_12
REMARK    5  A    between atoms: O_5  and  C_13
REMARK    6  A    between atoms: O_8  and  C_22
REMARK    7  A    between atoms: O_9  and  C_27
REMARK    8  A    between atoms: O_10  and  C_30
REMARK    9  A    between atoms: C_17  and  C_21
REMARK                            x       y       z     vdW  Elec       q    Type
REMARK                         _______ _______ _______ _____ _____    ______ ____
ROOT
ATOM      1  O   UNL     1      80.164  90.967 111.513  0.00  0.00    +0.000 OA
ATOM      2  O   UNL     1      77.827  91.021 114.850  0.00  0.00    +0.000 OA
ATOM      3  C   UNL     1      78.139  91.709 112.606  0.00  0.00    +0.000 A 
ATOM      4  C   UNL     1      78.962  91.655 111.542  0.00  0.00    +0.000 A 
ATOM      5  C   UNL     1      78.532  91.006 113.851  0.00  0.00    +0.000 A 
ATOM      6  C   UNL     1      79.816  90.289 113.817  0.00  0.00    +0.000 A 
ATOM      7  C   UNL     1      80.568  90.308 112.644  0.00  0.00    +0.000 A 
ATOM      8  C   UNL     1      80.278  89.599 114.940  0.00  0.00    +0.000 A 
ATOM      9  C   UNL     1      81.788  89.633 112.587  0.00  0.00    +0.000 A 
ATOM     10  C   UNL     1      81.499  88.925 114.880  0.00  0.00    +0.000 A 
ATOM     11  C   UNL     1      82.252  88.942 113.706  0.00  0.00    +0.000 A 
ENDROOT
BRANCH   4  12
ATOM     12  C   UNL     1      78.647  92.318 110.263  0.00  0.00    +0.000 A 
ATOM     13  C   UNL     1      79.353  93.456 109.874  0.00  0.00    +0.000 A 
ATOM     14  C   UNL     1      77.642  91.806 109.442  0.00  0.00    +0.000 A 
ATOM     15  C   UNL     1      79.055  94.082 108.664  0.00  0.00    +0.000 A 
ATOM     16  C   UNL     1      77.344  92.432 108.232  0.00  0.00    +0.000 A 
ATOM     17  C   UNL     1      78.051  93.569 107.842  0.00  0.00    +0.000 A 
BRANCH  17  18
ATOM     18  O   UNL     1      77.760  94.181 106.662  0.00  0.00    +0.000 OA
ATOM     19  H   UNL     1      78.507  94.751 106.409  0.00  0.00    +0.000 HD
ENDBRANCH  17  18
ENDBRANCH   4  12
BRANCH   8  20
ATOM     20  O   UNL     1      79.582  89.548 116.110  0.00  0.00    +0.000 OA
ATOM     21  H   UNL     1      80.152  89.240 116.831  0.00  0.00    +0.000 HD
ENDBRANCH   8  20
BRANCH  11  22
ATOM     22  O   UNL     1      83.443  88.284 113.653  0.00  0.00    +0.000 OA
ATOM     23  H   UNL     1      83.324  87.456 113.155  0.00  0.00    +0.000 HD
ENDBRANCH  11  22
BRANCH   3  24
ATOM     24  O   UNL     1      76.933  92.375 112.591  0.00  0.00    +0.000 OA
BRANCH  24  29
ATOM     25  O   UNL     1      75.093  90.889 112.517  0.00  0.00    +0.000 OA
ATOM     26  C   UNL     1      74.257  93.547 113.241  0.00  0.00    +0.000 C 
ATOM     27  C   UNL     1      75.110  92.677 114.166  0.00  0.00    +0.000 C 
ATOM     28  C   UNL     1      73.435  92.669 112.295  0.00  0.00    +0.000 C 
ATOM     29  C   UNL     1      75.942  91.682 113.350  0.00  0.00    +0.000 C 
ATOM     30  C   UNL     1      74.328  91.658 111.582  0.00  0.00    +0.000 C 
BRANCH  26  31
ATOM     31  O   UNL     1      73.372  94.364 114.001  0.00  0.00    +0.000 OA
ATOM     32  H   UNL     1      73.708  94.385 114.913  0.00  0.00    +0.000 HD
ENDBRANCH  26  31
BRANCH  27  33
ATOM     33  O   UNL     1      75.985  93.484 114.945  0.00  0.00    +0.000 OA
ATOM     34  H   UNL     1      76.486  92.896 115.535  0.00  0.00    +0.000 HD
ENDBRANCH  27  33
BRANCH  28  35
ATOM     35  O   UNL     1      72.454  91.953 113.052  0.00  0.00    +0.000 OA
ATOM     36  H   UNL     1      71.821  91.570 112.421  0.00  0.00    +0.000 HD
ENDBRANCH  28  35
ENDBRANCH  24  29
ENDBRANCH   3  24
TORSDOF 9
ENDMDL
MODEL 5
REMARK VINA RESULT:    -8.978     10.028     14.162
REMARK INTER + INTRA:         -13.231
REMARK INTER:                 -11.951
REMARK INTRA:                  -1.280
REMARK UNBOUND:                -1.104
REMARK  Name = 14749097
REMARK  9 active torsions:
REMARK  status: ('A' for Active; 'I' for Inactive)
REMARK    1  A    between atoms: O_2  and  C_14
REMARK    2  A    between atoms: O_2  and  C_16
REMARK    3  A    between atoms: O_3  and  C_11
REMARK    4  A    between atoms: O_4  and  C_12
REMARK    5  A    between atoms: O_5  and  C_13
REMARK    6  A    between atoms: O_8  and  C_22
REMARK    7  A    between atoms: O_9  and  C_27
REMARK    8  A    between atoms: O_10  and  C_30
REMARK    9  A    between atoms: C_17  and  C_21
REMARK                            x       y       z     vdW  Elec       q    Type
REMARK                         _______ _______ _______ _____ _____    ______ ____
ROOT
ATOM      1  O   UNL     1      86.152  86.751 114.824  0.00  0.00    +0.000 OA
ATOM      2  O   UNL     1      88.693  83.802 113.618  0.00  0.00    +0.000 OA
ATOM      3  C   UNL     1      87.529  85.793 113.082  0.00  0.00    +0.000 A 
ATOM      4  C   UNL     1      86.681  86.731 113.543  0.00  0.00    +0.000 A 
ATOM      5  C   UNL     1      87.927  84.684 113.982  0.00  0.00    +0.000 A 
ATOM      6  C   UNL     1      87.352  84.705 115.336  0.00  0.00    +0.000 A 
ATOM      7  C   UNL     1      86.491  85.741 115.687  0.00  0.00    +0.000 A 
ATOM      8  C   UNL     1      87.661  83.701 116.258  0.00  0.00    +0.000 A 
ATOM      9  C   UNL     1      85.934  85.784 116.965  0.00  0.00    +0.000 A 
ATOM     10  C   UNL     1      87.103  83.746 117.537  0.00  0.00    +0.000 A 
ATOM     11  C   UNL     1      86.242  84.785 117.890  0.00  0.00    +0.000 A 
ENDROOT
BRANCH   4  12
ATOM     12  C   UNL     1      86.239  87.872 112.721  0.00  0.00    +0.000 A 
ATOM     13  C   UNL     1      85.386  87.662 111.637  0.00  0.00    +0.000 A 
ATOM     14  C   UNL     1      86.674  89.161 113.026  0.00  0.00    +0.000 A 
ATOM     15  C   UNL     1      84.968  88.741 110.859  0.00  0.00    +0.000 A 
ATOM     16  C   UNL     1      86.255  90.241 112.248  0.00  0.00    +0.000 A 
ATOM     17  C   UNL     1      85.402  90.031 111.165  0.00  0.00    +0.000 A 
BRANCH  17  18
ATOM     18  O   UNL     1      84.993  91.084 110.406  0.00  0.00    +0.000 OA
ATOM     19  H   UNL     1      85.380  91.002 109.517  0.00  0.00    +0.000 HD
ENDBRANCH  17  18
ENDBRANCH   4  12
BRANCH   8  20
ATOM     20  O   UNL     1      88.498  82.666 115.966  0.00  0.00    +0.000 OA
ATOM     21  H   UNL     1      88.913  82.327 116.773  0.00  0.00    +0.000 HD
ENDBRANCH   8  20
BRANCH  11  22
ATOM     22  O   UNL     1      85.699  84.823 119.138  0.00  0.00    +0.000 OA
ATOM     23  H   UNL     1      85.960  84.020 119.620  0.00  0.00    +0.000 HD
ENDBRANCH  11  22
BRANCH   3  24
ATOM     24  O   UNL     1      88.064  85.821 111.812  0.00  0.00    +0.000 OA
BRANCH  24  29
ATOM     25  O   UNL     1      89.304  87.791 111.389  0.00  0.00    +0.000 OA
ATOM     26  C   UNL     1      89.873  85.761 109.429  0.00  0.00    +0.000 C 
ATOM     27  C   UNL     1      90.301  85.630 110.892  0.00  0.00    +0.000 C 
ATOM     28  C   UNL     1      89.728  87.236 109.048  0.00  0.00    +0.000 C 
ATOM     29  C   UNL     1      89.358  86.423 111.801  0.00  0.00    +0.000 C 
ATOM     30  C   UNL     1      88.836  87.967 110.047  0.00  0.00    +0.000 C 
BRANCH  26  31
ATOM     31  O   UNL     1      90.834  85.153 108.571  0.00  0.00    +0.000 OA
ATOM     32  H   UNL     1      91.071  84.295 108.963  0.00  0.00    +0.000 HD
ENDBRANCH  26  31
BRANCH  27  33
ATOM     33  O   UNL     1      90.295  84.265 111.294  0.00  0.00    +0.000 OA
ATOM     34  H   UNL     1      90.598  83.732 110.540  0.00  0.00    +0.000 HD
ENDBRANCH  27  33
BRANCH  28  35
ATOM     35  O   UNL     1      91.018  87.852 109.057  0.00  0.00    +0.000 OA
ATOM     36  H   UNL     1      91.534  87.462 108.331  0.00  0.00    +0.000 HD
ENDBRANCH  28  35
ENDBRANCH  24  29
ENDBRANCH   3  24
TORSDOF 9
ENDMDL
MODEL 6
REMARK VINA RESULT:    -8.836      2.693      6.254
REMARK INTER + INTRA:         -13.040
REMARK INTER:                 -12.129
REMARK INTRA:                  -0.911
REMARK UNBOUND:                -1.104
REMARK  Name = 14749097
REMARK  9 active torsions:
REMARK  status: ('A' for Active; 'I' for Inactive)
REMARK    1  A    between atoms: O_2  and  C_14
REMARK    2  A    between atoms: O_2  and  C_16
REMARK    3  A    between atoms: O_3  and  C_11
REMARK    4  A    between atoms: O_4  and  C_12
REMARK    5  A    between atoms: O_5  and  C_13
REMARK    6  A    between atoms: O_8  and  C_22
REMARK    7  A    between atoms: O_9  and  C_27
REMARK    8  A    between atoms: O_10  and  C_30
REMARK    9  A    between atoms: C_17  and  C_21
REMARK                            x       y       z     vdW  Elec       q    Type
REMARK                         _______ _______ _______ _____ _____    ______ ____
ROOT
ATOM      1  O   UNL     1      81.660  91.986 110.699  0.00  0.00    +0.000 OA
ATOM      2  O   UNL     1      79.450  90.221 113.633  0.00  0.00    +0.000 OA
ATOM      3  C   UNL     1      79.551  91.794 111.866  0.00  0.00    +0.000 A 
ATOM      4  C   UNL     1      80.339  92.340 110.921  0.00  0.00    +0.000 A 
ATOM      5  C   UNL     1      80.117  90.752 112.755  0.00  0.00    +0.000 A 
ATOM      6  C   UNL     1      81.524  90.390 112.522  0.00  0.00    +0.000 A 
ATOM      7  C   UNL     1      82.225  91.029 111.503  0.00  0.00    +0.000 A 
ATOM      8  C   UNL     1      82.151  89.421 113.310  0.00  0.00    +0.000 A 
ATOM      9  C   UNL     1      83.559  90.702 111.261  0.00  0.00    +0.000 A 
ATOM     10  C   UNL     1      83.487  89.096 113.067  0.00  0.00    +0.000 A 
ATOM     11  C   UNL     1      84.189  89.735 112.045  0.00  0.00    +0.000 A 
ENDROOT
BRANCH   4  12
ATOM     12  C   UNL     1      79.857  93.376 109.990  0.00  0.00    +0.000 A 
ATOM     13  C   UNL     1      80.077  94.725 110.271  0.00  0.00    +0.000 A 
ATOM     14  C   UNL     1      79.181  93.007 108.827  0.00  0.00    +0.000 A 
ATOM     15  C   UNL     1      79.621  95.704 109.390  0.00  0.00    +0.000 A 
ATOM     16  C   UNL     1      78.725  93.988 107.945  0.00  0.00    +0.000 A 
ATOM     17  C   UNL     1      78.945  95.336 108.226  0.00  0.00    +0.000 A 
BRANCH  17  18
ATOM     18  O   UNL     1      78.501  96.293 107.366  0.00  0.00    +0.000 OA
ATOM     19  H   UNL     1      79.179  96.986 107.286  0.00  0.00    +0.000 HD
ENDBRANCH  17  18
ENDBRANCH   4  12
BRANCH   8  20
ATOM     20  O   UNL     1      81.512  88.766 114.319  0.00  0.00    +0.000 OA
ATOM     21  H   UNL     1      81.528  87.809 114.166  0.00  0.00    +0.000 HD
ENDBRANCH   8  20
BRANCH  11  22
ATOM     22  O   UNL     1      85.492  89.414 111.812  0.00  0.00    +0.000 OA
ATOM     23  H   UNL     1      85.542  88.857 111.016  0.00  0.00    +0.000 HD
ENDBRANCH  11  22
BRANCH   3  24
ATOM     24  O   UNL     1      78.229  92.145 112.039  0.00  0.00    +0.000 OA
BRANCH  24  29
ATOM     25  O   UNL     1      76.866  90.895 110.563  0.00  0.00    +0.000 OA
ATOM     26  C   UNL     1      75.280  92.278 112.527  0.00  0.00    +0.000 C 
ATOM     27  C   UNL     1      76.204  91.115 112.893  0.00  0.00    +0.000 C 
ATOM     28  C   UNL     1      74.844  92.170 111.065  0.00  0.00    +0.000 C 
ATOM     29  C   UNL     1      77.364  91.018 111.897  0.00  0.00    +0.000 C 
ATOM     30  C   UNL     1      76.053  92.000 110.151  0.00  0.00    +0.000 C 
BRANCH  26  31
ATOM     31  O   UNL     1      74.122  92.276 113.357  0.00  0.00    +0.000 OA
ATOM     32  H   UNL     1      73.796  91.360 113.397  0.00  0.00    +0.000 HD
ENDBRANCH  26  31
BRANCH  27  33
ATOM     33  O   UNL     1      76.731  91.288 114.204  0.00  0.00    +0.000 OA
ATOM     34  H   UNL     1      77.390  92.002 114.167  0.00  0.00    +0.000 HD
ENDBRANCH  27  33
BRANCH  28  35
ATOM     35  O   UNL     1      73.995  91.030 110.911  0.00  0.00    +0.000 OA
ATOM     36  H   UNL     1      73.941  90.587 111.775  0.00  0.00    +0.000 HD
ENDBRANCH  28  35
ENDBRANCH  24  29
ENDBRANCH   3  24
TORSDOF 9
ENDMDL
MODEL 7
REMARK VINA RESULT:    -8.734      8.932     12.651
REMARK INTER + INTRA:         -12.902
REMARK INTER:                 -11.643
REMARK INTRA:                  -1.259
REMARK UNBOUND:                -1.104
REMARK  Name = 14749097
REMARK  9 active torsions:
REMARK  status: ('A' for Active; 'I' for Inactive)
REMARK    1  A    between atoms: O_2  and  C_14
REMARK    2  A    between atoms: O_2  and  C_16
REMARK    3  A    between atoms: O_3  and  C_11
REMARK    4  A    between atoms: O_4  and  C_12
REMARK    5  A    between atoms: O_5  and  C_13
REMARK    6  A    between atoms: O_8  and  C_22
REMARK    7  A    between atoms: O_9  and  C_27
REMARK    8  A    between atoms: O_10  and  C_30
REMARK    9  A    between atoms: C_17  and  C_21
REMARK                            x       y       z     vdW  Elec       q    Type
REMARK                         _______ _______ _______ _____ _____    ______ ____
ROOT
ATOM      1  O   UNL     1      87.929  85.414 113.974  0.00  0.00    +0.000 OA
ATOM      2  O   UNL     1      85.209  87.568 116.111  0.00  0.00    +0.000 OA
ATOM      3  C   UNL     1      86.523  87.373 114.151  0.00  0.00    +0.000 A 
ATOM      4  C   UNL     1      87.427  86.616 113.501  0.00  0.00    +0.000 A 
ATOM      5  C   UNL     1      86.029  86.921 115.473  0.00  0.00    +0.000 A 
ATOM      6  C   UNL     1      86.576  85.651 115.974  0.00  0.00    +0.000 A 
ATOM      7  C   UNL     1      87.502  84.961 115.195  0.00  0.00    +0.000 A 
ATOM      8  C   UNL     1      86.176  85.141 117.212  0.00  0.00    +0.000 A 
ATOM      9  C   UNL     1      88.033  83.754 115.647  0.00  0.00    +0.000 A 
ATOM     10  C   UNL     1      86.710  83.932 117.663  0.00  0.00    +0.000 A 
ATOM     11  C   UNL     1      87.636  83.240 116.882  0.00  0.00    +0.000 A 
ENDROOT
BRANCH   4  12
ATOM     12  C   UNL     1      87.966  86.986 112.180  0.00  0.00    +0.000 A 
ATOM     13  C   UNL     1      88.774  88.116 112.047  0.00  0.00    +0.000 A 
ATOM     14  C   UNL     1      87.670  86.205 111.063  0.00  0.00    +0.000 A 
ATOM     15  C   UNL     1      89.284  88.465 110.797  0.00  0.00    +0.000 A 
ATOM     16  C   UNL     1      88.181  86.554 109.812  0.00  0.00    +0.000 A 
ATOM     17  C   UNL     1      88.988  87.683 109.680  0.00  0.00    +0.000 A 
BRANCH  17  18
ATOM     18  O   UNL     1      89.487  88.024 108.460  0.00  0.00    +0.000 OA
ATOM     19  H   UNL     1      89.325  88.971 108.306  0.00  0.00    +0.000 HD
ENDBRANCH  17  18
ENDBRANCH   4  12
BRANCH   8  20
ATOM     20  O   UNL     1      85.274  85.774 118.013  0.00  0.00    +0.000 OA
ATOM     21  H   UNL     1      85.637  85.896 118.903  0.00  0.00    +0.000 HD
ENDBRANCH   8  20
BRANCH  11  22
ATOM     22  O   UNL     1      88.154  82.062 117.327  0.00  0.00    +0.000 OA
ATOM     23  H   UNL     1      88.970  82.245 117.825  0.00  0.00    +0.000 HD
ENDBRANCH  11  22
BRANCH   3  24
ATOM     24  O   UNL     1      86.018  88.549 113.637  0.00  0.00    +0.000 OA
BRANCH  24  29
ATOM     25  O   UNL     1      84.960  88.310 111.535  0.00  0.00    +0.000 OA
ATOM     26  C   UNL     1      84.202  90.778 112.808  0.00  0.00    +0.000 C 
ATOM     27  C   UNL     1      83.769  89.413 113.345  0.00  0.00    +0.000 C 
ATOM     28  C   UNL     1      84.478  90.694 111.305  0.00  0.00    +0.000 C 
ATOM     29  C   UNL     1      84.784  88.335 112.953  0.00  0.00    +0.000 C 
ATOM     30  C   UNL     1      85.437  89.548 110.995  0.00  0.00    +0.000 C 
BRANCH  26  31
ATOM     31  O   UNL     1      83.187  91.750 113.038  0.00  0.00    +0.000 OA
ATOM     32  H   UNL     1      83.055  91.810 114.000  0.00  0.00    +0.000 HD
ENDBRANCH  26  31
BRANCH  27  33
ATOM     33  O   UNL     1      83.654  89.447 114.763  0.00  0.00    +0.000 OA
ATOM     34  H   UNL     1      84.018  90.295 115.070  0.00  0.00    +0.000 HD
ENDBRANCH  27  33
BRANCH  28  35
ATOM     35  O   UNL     1      83.249  90.456 110.614  0.00  0.00    +0.000 OA
ATOM     36  H   UNL     1      82.959  91.303 110.234  0.00  0.00    +0.000 HD
ENDBRANCH  28  35
ENDBRANCH  24  29
ENDBRANCH   3  24
TORSDOF 9
ENDMDL
MODEL 8
REMARK VINA RESULT:    -8.681      2.651      6.371
REMARK INTER + INTRA:         -12.830
REMARK INTER:                 -12.167
REMARK INTRA:                  -0.664
REMARK UNBOUND:                -1.104
REMARK  Name = 14749097
REMARK  9 active torsions:
REMARK  status: ('A' for Active; 'I' for Inactive)
REMARK    1  A    between atoms: O_2  and  C_14
REMARK    2  A    between atoms: O_2  and  C_16
REMARK    3  A    between atoms: O_3  and  C_11
REMARK    4  A    between atoms: O_4  and  C_12
REMARK    5  A    between atoms: O_5  and  C_13
REMARK    6  A    between atoms: O_8  and  C_22
REMARK    7  A    between atoms: O_9  and  C_27
REMARK    8  A    between atoms: O_10  and  C_30
REMARK    9  A    between atoms: C_17  and  C_21
REMARK                            x       y       z     vdW  Elec       q    Type
REMARK                         _______ _______ _______ _____ _____    ______ ____
ROOT
ATOM      1  O   UNL     1      78.711  91.490 110.984  0.00  0.00    +0.000 OA
ATOM      2  O   UNL     1      76.257  91.805 114.223  0.00  0.00    +0.000 OA
ATOM      3  C   UNL     1      76.579  92.163 111.904  0.00  0.00    +0.000 A 
ATOM      4  C   UNL     1      77.442  92.036 110.879  0.00  0.00    +0.000 A 
ATOM      5  C   UNL     1      76.998  91.713 113.253  0.00  0.00    +0.000 A 
ATOM      6  C   UNL     1      78.351  91.146 113.360  0.00  0.00    +0.000 A 
ATOM      7  C   UNL     1      79.140  91.064 112.215  0.00  0.00    +0.000 A 
ATOM      8  C   UNL     1      78.841  90.696 114.588  0.00  0.00    +0.000 A 
ATOM      9  C   UNL     1      80.426  90.529 112.290  0.00  0.00    +0.000 A 
ATOM     10  C   UNL     1      80.129  90.160 114.661  0.00  0.00    +0.000 A 
ATOM     11  C   UNL     1      80.919  90.077 113.515  0.00  0.00    +0.000 A 
ENDROOT
BRANCH   4  12
ATOM     12  C   UNL     1      77.106  92.451 109.505  0.00  0.00    +0.000 A 
ATOM     13  C   UNL     1      77.572  93.669 109.010  0.00  0.00    +0.000 A 
ATOM     14  C   UNL     1      76.323  91.624 108.700  0.00  0.00    +0.000 A 
ATOM     15  C   UNL     1      77.255  94.061 107.710  0.00  0.00    +0.000 A 
ATOM     16  C   UNL     1      76.005  92.016 107.399  0.00  0.00    +0.000 A 
ATOM     17  C   UNL     1      76.472  93.234 106.904  0.00  0.00    +0.000 A 
BRANCH  17  18
ATOM     18  O   UNL     1      76.163  93.617 105.635  0.00  0.00    +0.000 OA
ATOM     19  H   UNL     1      76.977  93.638 105.104  0.00  0.00    +0.000 HD
ENDBRANCH  17  18
ENDBRANCH   4  12
BRANCH   8  20
ATOM     20  O   UNL     1      78.111  90.752 115.737  0.00  0.00    +0.000 OA
ATOM     21  H   UNL     1      77.466  91.474 115.694  0.00  0.00    +0.000 HD
ENDBRANCH   8  20
BRANCH  11  22
ATOM     22  O   UNL     1      82.175  89.556 113.592  0.00  0.00    +0.000 OA
ATOM     23  H   UNL     1      82.414  89.182 112.726  0.00  0.00    +0.000 HD
ENDBRANCH  11  22
BRANCH   3  24
ATOM     24  O   UNL     1      75.310  92.681 111.759  0.00  0.00    +0.000 OA
BRANCH  24  29
ATOM     25  O   UNL     1      73.705  90.989 111.354  0.00  0.00    +0.000 OA
ATOM     26  C   UNL     1      72.441  93.472 112.080  0.00  0.00    +0.000 C 
ATOM     27  C   UNL     1      73.269  92.653 113.073  0.00  0.00    +0.000 C 
ATOM     28  C   UNL     1      71.874  92.565 110.987  0.00  0.00    +0.000 C 
ATOM     29  C   UNL     1      74.325  91.824 112.336  0.00  0.00    +0.000 C 
ATOM     30  C   UNL     1      72.979  91.720 110.359  0.00  0.00    +0.000 C 
BRANCH  26  31
ATOM     31  O   UNL     1      71.364  94.123 112.747  0.00  0.00    +0.000 OA
ATOM     32  H   UNL     1      70.539  93.818 112.332  0.00  0.00    +0.000 HD
ENDBRANCH  26  31
BRANCH  27  33
ATOM     33  O   UNL     1      73.920  93.508 114.006  0.00  0.00    +0.000 OA
ATOM     34  H   UNL     1      74.225  92.960 114.749  0.00  0.00    +0.000 HD
ENDBRANCH  27  33
BRANCH  28  35
ATOM     35  O   UNL     1      70.903  91.686 111.562  0.00  0.00    +0.000 OA
ATOM     36  H   UNL     1      70.956  91.784 112.528  0.00  0.00    +0.000 HD
ENDBRANCH  28  35
ENDBRANCH  24  29
ENDBRANCH   3  24
TORSDOF 9
ENDMDL
MODEL 9
REMARK VINA RESULT:    -8.585      1.565      4.870
REMARK INTER + INTRA:         -12.701
REMARK INTER:                 -11.786
REMARK INTRA:                  -0.914
REMARK UNBOUND:                -1.104
REMARK  Name = 14749097
REMARK  9 active torsions:
REMARK  status: ('A' for Active; 'I' for Inactive)
REMARK    1  A    between atoms: O_2  and  C_14
REMARK    2  A    between atoms: O_2  and  C_16
REMARK    3  A    between atoms: O_3  and  C_11
REMARK    4  A    between atoms: O_4  and  C_12
REMARK    5  A    between atoms: O_5  and  C_13
REMARK    6  A    between atoms: O_8  and  C_22
REMARK    7  A    between atoms: O_9  and  C_27
REMARK    8  A    between atoms: O_10  and  C_30
REMARK    9  A    between atoms: C_17  and  C_21
REMARK                            x       y       z     vdW  Elec       q    Type
REMARK                         _______ _______ _______ _____ _____    ______ ____
ROOT
ATOM      1  O   UNL     1      75.495  91.402 109.195  0.00  0.00    +0.000 OA
ATOM      2  O   UNL     1      77.287  94.265 106.916  0.00  0.00    +0.000 OA
ATOM      3  C   UNL     1      77.101  93.201 109.023  0.00  0.00    +0.000 A 
ATOM      4  C   UNL     1      76.465  92.241 109.720  0.00  0.00    +0.000 A 
ATOM      5  C   UNL     1      76.745  93.407 107.599  0.00  0.00    +0.000 A 
ATOM      6  C   UNL     1      75.705  92.521 107.052  0.00  0.00    +0.000 A 
ATOM      7  C   UNL     1      75.132  91.562 107.883  0.00  0.00    +0.000 A 
ATOM      8  C   UNL     1      75.295  92.638 105.721  0.00  0.00    +0.000 A 
ATOM      9  C   UNL     1      74.146  90.708 107.387  0.00  0.00    +0.000 A 
ATOM     10  C   UNL     1      74.308  91.783 105.228  0.00  0.00    +0.000 A 
ATOM     11  C   UNL     1      73.735  90.821 106.059  0.00  0.00    +0.000 A 
ENDROOT
BRANCH   4  12
ATOM     12  C   UNL     1      76.762  91.963 111.136  0.00  0.00    +0.000 A 
ATOM     13  C   UNL     1      75.999  92.562 112.140  0.00  0.00    +0.000 A 
ATOM     14  C   UNL     1      77.805  91.101 111.474  0.00  0.00    +0.000 A 
ATOM     15  C   UNL     1      76.280  92.298 113.480  0.00  0.00    +0.000 A 
ATOM     16  C   UNL     1      78.085  90.837 112.815  0.00  0.00    +0.000 A 
ATOM     17  C   UNL     1      77.323  91.435 113.818  0.00  0.00    +0.000 A 
BRANCH  17  18
ATOM     18  O   UNL     1      77.596  91.178 115.126  0.00  0.00    +0.000 OA
ATOM     19  H   UNL     1      77.624  90.215 115.260  0.00  0.00    +0.000 HD
ENDBRANCH  17  18
ENDBRANCH   4  12
BRANCH   8  20
ATOM     20  O   UNL     1      75.823  93.559 104.867  0.00  0.00    +0.000 OA
ATOM     21  H   UNL     1      76.619  93.959 105.249  0.00  0.00    +0.000 HD
ENDBRANCH   8  20
BRANCH  11  22
ATOM     22  O   UNL     1      72.771  89.991 105.573  0.00  0.00    +0.000 OA
ATOM     23  H   UNL     1      72.085  89.872 106.252  0.00  0.00    +0.000 HD
ENDBRANCH  11  22
BRANCH   3  24
ATOM     24  O   UNL     1      78.086  93.998 109.566  0.00  0.00    +0.000 OA
BRANCH  24  29
ATOM     25  O   UNL     1      80.191  92.927 109.422  0.00  0.00    +0.000 OA
ATOM     26  C   UNL     1      80.481  95.703 110.130  0.00  0.00    +0.000 C 
ATOM     27  C   UNL     1      79.995  95.256 108.749  0.00  0.00    +0.000 C 
ATOM     28  C   UNL     1      81.340  94.610 110.769  0.00  0.00    +0.000 C 
ATOM     29  C   UNL     1      79.310  93.889 108.838  0.00  0.00    +0.000 C 
ATOM     30  C   UNL     1      80.614  93.269 110.747  0.00  0.00    +0.000 C 
BRANCH  26  31
ATOM     31  O   UNL     1      81.250  96.897 110.025  0.00  0.00    +0.000 OA
ATOM     32  H   UNL     1      80.674  97.637 110.283  0.00  0.00    +0.000 HD
ENDBRANCH  26  31
BRANCH  27  33
ATOM     33  O   UNL     1      79.077  96.201 108.212  0.00  0.00    +0.000 OA
ATOM     34  H   UNL     1      79.578  96.999 107.973  0.00  0.00    +0.000 HD
ENDBRANCH  27  33
BRANCH  28  35
ATOM     35  O   UNL     1      82.558  94.479 110.031  0.00  0.00    +0.000 OA
ATOM     36  H   UNL     1      82.647  95.269 109.471  0.00  0.00    +0.000 HD
ENDBRANCH  28  35
ENDBRANCH  24  29
ENDBRANCH   3  24
TORSDOF 9
ENDMDL
MODEL 10
REMARK VINA RESULT:    -8.557      3.380      6.006
REMARK INTER + INTRA:         -12.663
REMARK INTER:                 -11.359
REMARK INTRA:                  -1.304
REMARK UNBOUND:                -1.104
REMARK  Name = 14749097
REMARK  9 active torsions:
REMARK  status: ('A' for Active; 'I' for Inactive)
REMARK    1  A    between atoms: O_2  and  C_14
REMARK    2  A    between atoms: O_2  and  C_16
REMARK    3  A    between atoms: O_3  and  C_11
REMARK    4  A    between atoms: O_4  and  C_12
REMARK    5  A    between atoms: O_5  and  C_13
REMARK    6  A    between atoms: O_8  and  C_22
REMARK    7  A    between atoms: O_9  and  C_27
REMARK    8  A    between atoms: O_10  and  C_30
REMARK    9  A    between atoms: C_17  and  C_21
REMARK                            x       y       z     vdW  Elec       q    Type
REMARK                         _______ _______ _______ _____ _____    ______ ____
ROOT
ATOM      1  O   UNL     1      76.533  92.119 113.561  0.00  0.00    +0.000 OA
ATOM      2  O   UNL     1      77.731  94.841 110.774  0.00  0.00    +0.000 OA
ATOM      3  C   UNL     1      78.340  93.236 112.405  0.00  0.00    +0.000 A 
ATOM      4  C   UNL     1      77.876  92.359 113.314  0.00  0.00    +0.000 A 
ATOM      5  C   UNL     1      77.368  94.027 111.613  0.00  0.00    +0.000 A 
ATOM      6  C   UNL     1      75.945  93.777 111.888  0.00  0.00    +0.000 A 
ATOM      7  C   UNL     1      75.601  92.832 112.853  0.00  0.00    +0.000 A 
ATOM      8  C   UNL     1      74.951  94.474 111.197  0.00  0.00    +0.000 A 
ATOM      9  C   UNL     1      74.258  92.576 113.130  0.00  0.00    +0.000 A 
ATOM     10  C   UNL     1      73.608  94.216 111.477  0.00  0.00    +0.000 A 
ATOM     11  C   UNL     1      73.262  93.269 112.442  0.00  0.00    +0.000 A 
ENDROOT
BRANCH   4  12
ATOM     12  C   UNL     1      78.769  91.527 114.140  0.00  0.00    +0.000 A 
ATOM     13  C   UNL     1      78.881  90.159 113.888  0.00  0.00    +0.000 A 
ATOM     14  C   UNL     1      79.504  92.107 115.174  0.00  0.00    +0.000 A 
ATOM     15  C   UNL     1      79.727  89.373 114.669  0.00  0.00    +0.000 A 
ATOM     16  C   UNL     1      80.351  91.320 115.956  0.00  0.00    +0.000 A 
ATOM     17  C   UNL     1      80.463  89.953 115.702  0.00  0.00    +0.000 A 
BRANCH  17  18
ATOM     18  O   UNL     1      81.288  89.185 116.464  0.00  0.00    +0.000 OA
ATOM     19  H   UNL     1      81.577  89.700 117.237  0.00  0.00    +0.000 HD
ENDBRANCH  17  18
ENDBRANCH   4  12
BRANCH   8  20
ATOM     20  O   UNL     1      75.233  95.407 110.245  0.00  0.00    +0.000 OA
ATOM     21  H   UNL     1      74.874  95.135 109.387  0.00  0.00    +0.000 HD
ENDBRANCH   8  20
BRANCH  11  22
ATOM     22  O   UNL     1      71.951  93.022 112.712  0.00  0.00    +0.000 OA
ATOM     23  H   UNL     1      71.894  92.319 113.382  0.00  0.00    +0.000 HD
ENDBRANCH  11  22
BRANCH   3  24
ATOM     24  O   UNL     1      79.683  93.427 112.161  0.00  0.00    +0.000 OA
BRANCH  24  29
ATOM     25  O   UNL     1      80.661  91.474 111.249  0.00  0.00    +0.000 OA
ATOM     26  C   UNL     1      82.415  93.741 110.981  0.00  0.00    +0.000 C 
ATOM     27  C   UNL     1      81.103  93.625 110.203  0.00  0.00    +0.000 C 
ATOM     28  C   UNL     1      82.939  92.352 111.350  0.00  0.00    +0.000 C 
ATOM     29  C   UNL     1      80.099  92.759 110.970  0.00  0.00    +0.000 C 
ATOM     30  C   UNL     1      81.854  91.532 112.040  0.00  0.00    +0.000 C 
BRANCH  26  31
ATOM     31  O   UNL     1      83.399  94.415 110.202  0.00  0.00    +0.000 OA
ATOM     32  H   UNL     1      83.238  95.370 110.294  0.00  0.00    +0.000 HD
ENDBRANCH  26  31
BRANCH  27  33
ATOM     33  O   UNL     1      80.535  94.911 109.984  0.00  0.00    +0.000 OA
ATOM     34  H   UNL     1      80.104  94.901 109.113  0.00  0.00    +0.000 HD
ENDBRANCH  27  33
BRANCH  28  35
ATOM     35  O   UNL     1      83.336  91.668 110.159  0.00  0.00    +0.000 OA
ATOM     36  H   UNL     1      83.011  90.753 110.226  0.00  0.00    +0.000 HD
ENDBRANCH  28  35
ENDBRANCH  24  29
ENDBRANCH   3  24
TORSDOF 9
ENDMDL
