REMARK SMILES COc1cc(C(=O)O[C@@H]2Cc3c(O)cc(O)cc3O[C@@H]2c2cc(O)c(O)c(O)c2)cc(O)c1O
REMARK SMILES IDX 8 1 9 4 19 5 20 6 18 7 11 10 17 11 10 12 12 13 15 14 14 15
REMARK SMILES IDX 21 16 29 17 22 18 27 19 23 20 25 21 28 22 24 27 26 32 13 37
REMARK SMILES IDX 16 42 6 47 7 48 5 51 4 52 30 53 3 54 31 55 33 56 2 57 1 58
REMARK SMILES IDX 32 61 34 66
REMARK H PARENT 28 23 24 28 26 33 13 38 16 43 32 62 34 67
REMARK Flexibility Score: inf
ROOT
ATOM      1  O   UNL     1      -0.246   0.495   0.936  1.00  0.00    -0.454 OA
ATOM      2 WAT  UNL     1      -2.369   2.501   0.250  1.00  0.00     0.000 W 
ATOM      3 WAT  UNL     1       1.394  -0.757  -1.242  1.00  0.00     0.000 W 
ENDROOT
BRANCH   1   4
ATOM      4  C   UNL     1      -0.935  -0.588   1.562  1.00  0.00     0.227 C 
ATOM      5  O   UNL     1      -1.175  -1.765  -0.589  1.00  0.00    -0.481 OA
ATOM      6  C   UNL     1      -1.879  -1.262   0.558  1.00  0.00     0.245 C 
ATOM      7  C   UNL     1      -0.051  -2.495  -0.303  1.00  0.00     0.131 A 
ATOM      8 WAT  UNL     1      -0.207   0.660  -2.067  1.00  0.00     0.000 W 
ATOM      9 WAT  UNL     1      -3.063  -3.678  -1.920  1.00  0.00     0.000 W 
ATOM     10  C   UNL     1       0.601  -2.458   0.936  1.00  0.00     0.040 A 
ATOM     11  C   UNL     1       0.457  -3.276  -1.345  1.00  0.00     0.093 A 
ATOM     12  C   UNL     1       0.085  -1.608   2.065  1.00  0.00     0.093 C 
ATOM     13  C   UNL     1       1.744  -3.246   1.128  1.00  0.00     0.126 A 
ATOM     14  C   UNL     1       1.601  -4.048  -1.146  1.00  0.00     0.122 A 
ATOM     15  C   UNL     1       2.242  -4.036   0.091  1.00  0.00     0.092 A 
BRANCH   6  16
ATOM     16  C   UNL     1      -2.984  -0.326   0.106  1.00  0.00     0.004 A 
ATOM     17  C   UNL     1      -4.182  -0.270   0.817  1.00  0.00     0.058 A 
ATOM     18  C   UNL     1      -2.800   0.476  -1.019  1.00  0.00     0.058 A 
ATOM     19  C   UNL     1      -5.198   0.591   0.401  1.00  0.00     0.161 A 
ATOM     20  C   UNL     1      -3.816   1.336  -1.435  1.00  0.00     0.161 A 
ATOM     21  C   UNL     1      -5.015   1.394  -0.725  1.00  0.00     0.200 A 
BRANCH  19  22
ATOM     22  O   UNL     1      -6.364   0.638   1.104  1.00  0.00    -0.504 OA
ATOM     23  H   UNL     1      -6.311   0.016   1.849  1.00  0.00     0.293 HD
ATOM     24 WAT  UNL     1      -8.521  -0.370  -0.720  1.00  0.00     0.000 W 
ATOM     25 WAT  UNL     1      -6.559   3.391   2.280  1.00  0.00     0.000 W 
ATOM     26 WAT  UNL     1      -6.201  -1.264   3.382  1.00  0.00     0.000 W 
ENDBRANCH  19  22
BRANCH  20  27
ATOM     27  O   UNL     1      -3.624   2.115  -2.537  1.00  0.00    -0.504 OA
ATOM     28  H   UNL     1      -2.738   1.941  -2.898  1.00  0.00     0.293 HD
ATOM     29 WAT  UNL     1      -3.642   4.965  -1.602  1.00  0.00     0.000 W 
ATOM     30 WAT  UNL     1      -5.600   1.201  -4.602  1.00  0.00     0.000 W 
ATOM     31 WAT  UNL     1      -0.916   1.585  -3.641  1.00  0.00     0.000 W 
ENDBRANCH  20  27
BRANCH  21  32
ATOM     32  O   UNL     1      -6.008   2.236  -1.130  1.00  0.00    -0.502 OA
ATOM     33  H   UNL     1      -5.703   2.711  -1.923  1.00  0.00     0.293 HD
ATOM     34 WAT  UNL     1      -6.361   4.282   1.036  1.00  0.00     0.000 W 
ATOM     35 WAT  UNL     1      -8.324   0.523  -1.967  1.00  0.00     0.000 W 
ATOM     36 WAT  UNL     1      -5.078   3.686  -3.553  1.00  0.00     0.000 W 
ENDBRANCH  21  32
ENDBRANCH   6  16
BRANCH  13  37
ATOM     37  O   UNL     1       2.394  -3.258   2.328  1.00  0.00    -0.507 OA
ATOM     38  H   UNL     1       3.158  -3.857   2.271  1.00  0.00     0.293 HD
ATOM     39 WAT  UNL     1       0.502  -4.448   4.329  1.00  0.00     0.000 W 
ATOM     40 WAT  UNL     1       3.485  -0.496   2.752  1.00  0.00     0.000 W 
ATOM     41 WAT  UNL     1       4.729  -5.090   2.156  1.00  0.00     0.000 W 
ENDBRANCH  13  37
BRANCH  14  42
ATOM     42  O   UNL     1       2.090  -4.814  -2.159  1.00  0.00    -0.508 OA
ATOM     43  H   UNL     1       1.524  -4.700  -2.942  1.00  0.00     0.293 HD
ATOM     44 WAT  UNL     1       1.819  -7.675  -1.297  1.00  0.00     0.000 W 
ATOM     45 WAT  UNL     1       4.788  -3.709  -2.865  1.00  0.00     0.000 W 
ATOM     46 WAT  UNL     1       0.360  -4.465  -4.552  1.00  0.00     0.000 W 
ENDBRANCH  14  42
ENDBRANCH   1   4
BRANCH   1  47
ATOM     47  C   UNL     1       0.642   1.162   1.718  1.00  0.00     0.338 C 
ATOM     48  O   UNL     1       0.569   1.310   2.929  1.00  0.00    -0.246 OA
ATOM     49 WAT  UNL     1       2.699   2.843   4.383  1.00  0.00     0.000 W 
ATOM     50 WAT  UNL     1      -1.739   0.140   4.447  1.00  0.00     0.000 W 
BRANCH  47  51
ATOM     51  C   UNL     1       1.749   1.711   0.896  1.00  0.00     0.067 A 
ATOM     52  C   UNL     1       2.122   1.042  -0.252  1.00  0.00     0.066 A 
ATOM     53  C   UNL     1       2.372   2.872   1.305  1.00  0.00     0.066 A 
ATOM     54  C   UNL     1       3.163   1.558  -1.025  1.00  0.00     0.165 A 
ATOM     55  C   UNL     1       3.412   3.388   0.532  1.00  0.00     0.162 A 
ATOM     56  C   UNL     1       3.808   2.731  -0.633  1.00  0.00     0.200 A 
BRANCH  54  57
ATOM     57  O   UNL     1       3.538   0.908  -2.162  1.00  0.00    -0.493 OA
ATOM     58  C   UNL     1       2.828  -0.284  -2.492  1.00  0.00     0.278 C 
ATOM     59 WAT  UNL     1       6.361   0.025  -1.663  1.00  0.00     0.000 W 
ATOM     60 WAT  UNL     1       2.937   2.821  -4.393  1.00  0.00     0.000 W 
ENDBRANCH  54  57
BRANCH  55  61
ATOM     61  O   UNL     1       4.034   4.535   0.926  1.00  0.00    -0.504 OA
ATOM     62  H   UNL     1       3.629   4.848   1.753  1.00  0.00     0.293 HD
ATOM     63 WAT  UNL     1       3.453   6.604  -1.167  1.00  0.00     0.000 W 
ATOM     64 WAT  UNL     1       6.873   3.808   1.569  1.00  0.00     0.000 W 
ATOM     65 WAT  UNL     1       2.795   5.492   3.453  1.00  0.00     0.000 W 
ENDBRANCH  55  61
BRANCH  56  66
ATOM     66  O   UNL     1       4.824   3.236  -1.389  1.00  0.00    -0.502 OA
ATOM     67  H   UNL     1       5.148   4.049  -0.963  1.00  0.00     0.293 HD
ATOM     68 WAT  UNL     1       3.641   4.037  -4.027  1.00  0.00     0.000 W 
ATOM     69 WAT  UNL     1       7.064   1.242  -1.292  1.00  0.00     0.000 W 
ATOM     70 WAT  UNL     1       5.815   5.720  -0.089  1.00  0.00     0.000 W 
ENDBRANCH  56  66
ENDBRANCH  47  51
ENDBRANCH   1  47
TORSDOF 12
