9804842
  -OEChem-10132307243D

 54 57  0     1  0  0  0  0  0999 V2000
   -1.1749   -1.7646   -0.5890 O   0  0  0  0  0  0  0  0  0  0  0  0
   -0.2459    0.4951    0.9359 O   0  0  0  0  0  0  0  0  0  0  0  0
    2.3939   -3.2583    2.3276 O   0  0  0  0  0  0  0  0  0  0  0  0
    2.0896   -4.8139   -2.1589 O   0  0  0  0  0  0  0  0  0  0  0  0
   -3.6244    2.1145   -2.5369 O   0  0  0  0  0  0  0  0  0  0  0  0
   -6.3637    0.6383    1.1039 O   0  0  0  0  0  0  0  0  0  0  0  0
    0.5691    1.3097    2.9287 O   0  0  0  0  0  0  0  0  0  0  0  0
   -6.0077    2.2359   -1.1298 O   0  0  0  0  0  0  0  0  0  0  0  0
    3.5382    0.9081   -2.1620 O   0  0  0  0  0  0  0  0  0  0  0  0
    4.0342    4.5345    0.9262 O   0  0  0  0  0  0  0  0  0  0  0  0
    4.8240    3.2360   -1.3885 O   0  0  0  0  0  0  0  0  0  0  0  0
   -0.9349   -0.5877    1.5624 C   0  0  1  0  0  0  0  0  0  0  0  0
   -1.8788   -1.2623    0.5584 C   0  0  1  0  0  0  0  0  0  0  0  0
    0.0846   -1.6078    2.0652 C   0  0  0  0  0  0  0  0  0  0  0  0
    0.6012   -2.4584    0.9363 C   0  0  0  0  0  0  0  0  0  0  0  0
   -2.9839   -0.3261    0.1059 C   0  0  0  0  0  0  0  0  0  0  0  0
   -0.0506   -2.4952   -0.3029 C   0  0  0  0  0  0  0  0  0  0  0  0
    1.7442   -3.2464    1.1281 C   0  0  0  0  0  0  0  0  0  0  0  0
    0.4573   -3.2758   -1.3447 C   0  0  0  0  0  0  0  0  0  0  0  0
   -4.1816   -0.2697    0.8167 C   0  0  0  0  0  0  0  0  0  0  0  0
   -2.7996    0.4757   -1.0194 C   0  0  0  0  0  0  0  0  0  0  0  0
    2.2419   -4.0362    0.0911 C   0  0  0  0  0  0  0  0  0  0  0  0
    1.6010   -4.0475   -1.1458 C   0  0  0  0  0  0  0  0  0  0  0  0
    0.6417    1.1620    1.7185 C   0  0  0  0  0  0  0  0  0  0  0  0
   -3.8157    1.3362   -1.4351 C   0  0  0  0  0  0  0  0  0  0  0  0
   -5.1977    0.5907    0.4011 C   0  0  0  0  0  0  0  0  0  0  0  0
   -5.0148    1.3938   -0.7248 C   0  0  0  0  0  0  0  0  0  0  0  0
    1.7494    1.7108    0.8961 C   0  0  0  0  0  0  0  0  0  0  0  0
    2.1222    1.0425   -0.2523 C   0  0  0  0  0  0  0  0  0  0  0  0
    2.3717    2.8723    1.3053 C   0  0  0  0  0  0  0  0  0  0  0  0
    3.1626    1.5581   -1.0251 C   0  0  0  0  0  0  0  0  0  0  0  0
    3.4121    3.3882    0.5325 C   0  0  0  0  0  0  0  0  0  0  0  0
    3.8077    2.7310   -0.6327 C   0  0  0  0  0  0  0  0  0  0  0  0
    2.8277   -0.2837   -2.4918 C   0  0  0  0  0  0  0  0  0  0  0  0
   -1.5097   -0.1868    2.4077 H   0  0  0  0  0  0  0  0  0  0  0  0
   -2.3604   -2.1300    1.0331 H   0  0  0  0  0  0  0  0  0  0  0  0
   -0.4133   -2.2799    2.7763 H   0  0  0  0  0  0  0  0  0  0  0  0
    0.9241   -1.1437    2.5901 H   0  0  0  0  0  0  0  0  0  0  0  0
   -0.0472   -3.2829   -2.3081 H   0  0  0  0  0  0  0  0  0  0  0  0
   -4.3218   -0.8943    1.6957 H   0  0  0  0  0  0  0  0  0  0  0  0
   -1.8648    0.4450   -1.5736 H   0  0  0  0  0  0  0  0  0  0  0  0
    3.1309   -4.6445    0.2391 H   0  0  0  0  0  0  0  0  0  0  0  0
    3.1579   -3.8575    2.2713 H   0  0  0  0  0  0  0  0  0  0  0  0
    1.6058    0.1280   -0.5127 H   0  0  0  0  0  0  0  0  0  0  0  0
    1.5238   -4.6999   -2.9418 H   0  0  0  0  0  0  0  0  0  0  0  0
    2.0602    3.3850    2.2112 H   0  0  0  0  0  0  0  0  0  0  0  0
   -2.7382    1.9414   -2.8982 H   0  0  0  0  0  0  0  0  0  0  0  0
   -6.3105    0.0159    1.8494 H   0  0  0  0  0  0  0  0  0  0  0  0
   -5.7033    2.7105   -1.9227 H   0  0  0  0  0  0  0  0  0  0  0  0
    3.6288    4.8477    1.7529 H   0  0  0  0  0  0  0  0  0  0  0  0
    5.1482    4.0490   -0.9633 H   0  0  0  0  0  0  0  0  0  0  0  0
    2.9792   -1.0628   -1.7373 H   0  0  0  0  0  0  0  0  0  0  0  0
    3.2520   -0.6631   -3.4273 H   0  0  0  0  0  0  0  0  0  0  0  0
    1.7675   -0.0851   -2.6830 H   0  0  0  0  0  0  0  0  0  0  0  0
  1 13  1  0  0  0  0
  1 17  1  0  0  0  0
  2 12  1  0  0  0  0
  2 24  1  0  0  0  0
  3 18  1  0  0  0  0
  3 43  1  0  0  0  0
  4 23  1  0  0  0  0
  4 45  1  0  0  0  0
  5 25  1  0  0  0  0
  5 47  1  0  0  0  0
  6 26  1  0  0  0  0
  6 48  1  0  0  0  0
  7 24  2  0  0  0  0
  8 27  1  0  0  0  0
  8 49  1  0  0  0  0
  9 31  1  0  0  0  0
  9 34  1  0  0  0  0
 10 32  1  0  0  0  0
 10 50  1  0  0  0  0
 11 33  1  0  0  0  0
 11 51  1  0  0  0  0
 12 13  1  0  0  0  0
 12 14  1  0  0  0  0
 12 35  1  0  0  0  0
 13 16  1  0  0  0  0
 13 36  1  0  0  0  0
 14 15  1  0  0  0  0
 14 37  1  0  0  0  0
 14 38  1  0  0  0  0
 15 17  1  0  0  0  0
 15 18  2  0  0  0  0
 16 20  2  0  0  0  0
 16 21  1  0  0  0  0
 17 19  2  0  0  0  0
 18 22  1  0  0  0  0
 19 23  1  0  0  0  0
 19 39  1  0  0  0  0
 20 26  1  0  0  0  0
 20 40  1  0  0  0  0
 21 25  2  0  0  0  0
 21 41  1  0  0  0  0
 22 23  2  0  0  0  0
 22 42  1  0  0  0  0
 24 28  1  0  0  0  0
 25 27  1  0  0  0  0
 26 27  2  0  0  0  0
 28 29  1  0  0  0  0
 28 30  2  0  0  0  0
 29 31  2  0  0  0  0
 29 44  1  0  0  0  0
 30 32  1  0  0  0  0
 30 46  1  0  0  0  0
 31 33  1  0  0  0  0
 32 33  2  0  0  0  0
 34 52  1  0  0  0  0
 34 53  1  0  0  0  0
 34 54  1  0  0  0  0
M  END
> <PUBCHEM_COMPOUND_CID>
9804842

> <PUBCHEM_CONFORMER_RMSD>
0.8

> <PUBCHEM_CONFORMER_DIVERSEORDER>
1
39
76
80
113
108
71
119
69
110
117
49
22
63
103
114
75
94
106
2
111
86
109
52
17
46
60
26
112
115
15
87
85
35
90
42
98
104
12
37
79
14
116
102
48
64
3
47
97
38
23
45
99
11
33
18
66
95
101
5
73
57
78
83
96
16
53
40
55
24
91
81
28
41
36
19
59
93
44
6
74
72
50
82
65
34
9
29
100
4
70
89
7
56
62
58
118
92
51
61
67
8
77
30
54
20
32
43
31
10
88
105
27
84
25
21
68
13
107

> <PUBCHEM_MMFF94_PARTIAL_CHARGES>
47
1 -0.36
10 -0.53
11 -0.53
12 0.28
13 0.42
14 0.14
15 -0.14
16 -0.14
17 0.08
18 0.08
19 -0.15
2 -0.43
20 -0.15
21 -0.15
22 -0.15
23 0.08
24 0.63
25 0.08
26 0.08
27 0.08
28 0.09
29 -0.15
3 -0.53
30 -0.15
31 0.08
32 0.08
33 0.08
34 0.28
39 0.15
4 -0.53
40 0.15
41 0.15
42 0.15
43 0.45
44 0.15
45 0.45
46 0.15
47 0.45
48 0.45
49 0.45
5 -0.53
50 0.45
51 0.45
6 -0.53
7 -0.57
8 -0.53
9 -0.36

> <PUBCHEM_EFFECTIVE_ROTOR_COUNT>
5.8

> <PUBCHEM_PHARMACOPHORE_FEATURES>
14
1 1 acceptor
1 10 donor
1 11 donor
1 3 donor
1 4 donor
1 5 donor
1 6 donor
1 7 acceptor
1 8 donor
1 9 acceptor
6 1 12 13 14 15 17 rings
6 15 17 18 19 22 23 rings
6 16 20 21 25 26 27 rings
6 28 29 30 31 32 33 rings

> <PUBCHEM_HEAVY_ATOM_COUNT>
34

> <PUBCHEM_ATOM_DEF_STEREO_COUNT>
2

> <PUBCHEM_ATOM_UDEF_STEREO_COUNT>
0

> <PUBCHEM_BOND_DEF_STEREO_COUNT>
0

> <PUBCHEM_BOND_UDEF_STEREO_COUNT>
0

> <PUBCHEM_ISOTOPIC_ATOM_COUNT>
0

> <PUBCHEM_COMPONENT_COUNT>
1

> <PUBCHEM_CACTVS_TAUTO_COUNT>
998

> <PUBCHEM_CONFORMER_ID>
00959C2A00000001

> <PUBCHEM_MMFF94_ENERGY>
110.4714

> <PUBCHEM_FEATURE_SELFOVERLAP>
71.095

> <PUBCHEM_SHAPE_FINGERPRINT>
10165383 225 18339091500731588257
10369192 42 18188780577365415221
10675989 125 18272382970280327656
10721379 63 18337679585550430715
107951 10 17970921174468727706
11477941 20 17407141871811644222
11488393 25 18263368001392051681
11720765 8 18127688219464962996
12160290 23 17545570797716790875
12422481 6 17681793446578482696
12741549 16 17691382145597220131
133893 2 18265066738177302177
151778 21 18410003347570846273
15210252 30 17543344960721563223
15463212 79 17830154063618204400
16988056 13 17832965171290454469
17899979 19 18114748115127146498
1813 80 17840861872507016555
20600515 1 17468463829282065922
21033648 29 18195251241786331344
21304303 282 17693906967923891902
21641784 216 17696203499975459446
21857420 4 17473243393453513525
21927370 108 17691990166585005074
23559900 14 17387407940331749359
24893989 43 15382098730415837092
3298306 158 18408609179658928698
3388396 114 17839211548983349222
3411729 13 18333731299835975361
376196 1 18261672670299583138
4015057 19 16914553305088375928
4394409 98 18411709798903318038
44802255 64 17536631678436850630
46194498 28 18264762169810377943
5081480 168 18046340830372454773
5252454 2 18340480166737580553
5265222 85 17972056961817391716
552612 73 18264790856050026475
6669772 16 18342737464008892060
6823239 73 17387411230034345597
9925002 15 17335361337053618434

> <PUBCHEM_SHAPE_MULTIPOLES>
635.14
9.79
6.02
2.41
14.35
3.92
-0.11
-11.05
-3.11
-9
-0.87
-0.93
0.21
1.35

> <PUBCHEM_SHAPE_SELFOVERLAP>
1409.828

> <PUBCHEM_SHAPE_VOLUME>
337.2

> <PUBCHEM_COORDINATE_TYPE>
2
5
10

$$$$
