Xanthurenic-acid-_glucoside
  PyMOL2.5          3D                             0

 36 38  0  0  1  0  0  0  0  0999 V2000
   -6.5348   -5.5684   -5.4998 H   0  0  0  0  0  0  0  0  0  0  0  0
   -2.5866   -2.6618   -2.0716 H   0  0  0  0  0  0  0  0  0  0  0  0
   -8.0258   -5.3122   -1.3636 H   0  0  0  0  0  0  0  0  0  0  0  0
   -4.2208   -1.6407   -5.2297 H   0  0  0  0  0  0  0  0  0  0  0  0
   -4.6905   -2.7421   -0.6515 O   0  0  0  0  0  0  0  0  0  0  0  0
   -3.9444   -6.4427    4.0206 O   0  0  0  0  0  0  0  0  0  0  0  0
    0.3394   -5.9067    1.4387 O   0  0  0  0  0  0  0  0  0  0  0  0
   -0.2431   -4.3040    0.0077 O   0  0  0  0  0  0  0  0  0  0  0  0
   -2.8511   -4.2682    0.8224 N   0  0  0  0  0  0  0  0  0  0  0  0
   -4.1575   -4.2257    1.1981 C   0  0  0  0  0  0  0  0  0  0  0  0
   -4.5934   -4.9798    2.3234 C   0  0  0  0  0  0  0  0  0  0  0  0
   -1.9115   -5.0265    1.4520 C   0  0  0  0  0  0  0  0  0  0  0  0
   -3.6358   -5.7596    3.0149 C   0  0  0  0  0  0  0  0  0  0  0  0
   -5.0770   -3.4418    0.4633 C   0  0  0  0  0  0  0  0  0  0  0  0
   -5.9542   -4.9244    2.7024 C   0  0  0  0  0  0  0  0  0  0  0  0
   -2.2990   -5.7872    2.5772 C   0  0  0  0  0  0  0  0  0  0  0  0
   -6.4238   -3.3806    0.8772 C   0  0  0  0  0  0  0  0  0  0  0  0
   -6.8603   -4.1222    1.9878 C   0  0  0  0  0  0  0  0  0  0  0  0
   -0.5909   -5.0528    0.9493 C   0  0  0  0  0  0  0  0  0  0  0  0
   -2.5771   -3.7360    0.0569 H   0  0  0  0  0  0  0  0  0  0  0  0
   -6.2993   -5.4592    3.5035 H   0  0  0  0  0  0  0  0  0  0  0  0
   -1.6158   -6.3632    3.0782 H   0  0  0  0  0  0  0  0  0  0  0  0
   -7.0912   -2.8050    0.3590 H   0  0  0  0  0  0  0  0  0  0  0  0
   -7.8409   -4.0720    2.2781 H   0  0  0  0  0  0  0  0  0  0  0  0
   -4.7684   -3.5184   -1.8691 C   0  0  1  0  0  0  0  0  0  0  0  0
    1.2407   -5.9334    1.0548 H   0  0  0  0  0  0  0  0  0  0  0  0
   -6.1316   -3.9436   -2.1041 O   0  0  0  0  0  0  0  0  0  0  0  0
   -6.3266   -4.7486   -3.2880 C   0  0  2  0  0  0  0  0  0  0  0  0
   -5.9133   -3.9532   -4.5603 C   0  0  1  0  0  0  0  0  0  0  0  0
   -4.4674   -3.4071   -4.3994 C   0  0  2  0  0  0  0  0  0  0  0  0
   -4.2896   -2.6423   -3.0579 C   0  0  2  0  0  0  0  0  0  0  0  0
   -2.9184   -2.2841   -2.8894 O   0  0  0  0  0  0  0  0  0  0  0  0
   -4.1376   -2.5588   -5.4976 O   0  0  0  0  0  0  0  0  0  0  0  0
   -5.9911   -4.8042   -5.7049 O   0  0  0  0  0  0  0  0  0  0  0  0
   -7.8104   -5.1810   -3.3135 C   0  0  0  0  0  0  0  0  0  0  0  0
   -8.1240   -5.8945   -2.1205 O   0  0  0  0  0  0  0  0  0  0  0  0
  5 14  1  0  0  0  0
  5 25  1  0  0  0  0
  6 13  2  0  0  0  0
  7 19  1  0  0  0  0
  7 26  1  0  0  0  0
  8 19  2  0  0  0  0
  9 10  1  0  0  0  0
  9 12  1  0  0  0  0
  9 20  1  0  0  0  0
 10 11  2  0  0  0  0
 10 14  1  0  0  0  0
 11 13  1  0  0  0  0
 11 15  1  0  0  0  0
 12 16  2  0  0  0  0
 12 19  1  0  0  0  0
 13 16  1  0  0  0  0
 14 17  2  0  0  0  0
 15 18  2  0  0  0  0
 15 21  1  0  0  0  0
 16 22  1  0  0  0  0
 17 18  1  0  0  0  0
 17 23  1  0  0  0  0
 18 24  1  0  0  0  0
 25 27  1  0  0  0  0
 27 28  1  0  0  0  0
 28 29  1  0  0  0  0
 28 35  1  0  0  0  0
 29 30  1  0  0  0  0
 29 34  1  0  0  0  0
 30 31  1  0  0  0  0
 30 33  1  0  0  0  0
 25 31  1  0  0  0  0
 31 32  1  0  0  0  0
  2 32  1  0  0  0  0
  4 33  1  0  0  0  0
  1 34  1  0  0  0  0
 35 36  1  0  0  0  0
  3 36  1  0  0  0  0
M  END
>  <PUBCHEM_COMPOUND_CID>
5699

>  <PUBCHEM_COMPOUND_CANONICALIZED>
1

>  <PUBCHEM_CACTVS_COMPLEXITY>
336

>  <PUBCHEM_CACTVS_HBOND_ACCEPTOR>
5

>  <PUBCHEM_CACTVS_HBOND_DONOR>
3

>  <PUBCHEM_CACTVS_ROTATABLE_BOND>
1

>  <PUBCHEM_CACTVS_SUBSKEYS>
AAADcYByOAAAAAAAAAAAAAAAAAAAAAAAAAAwQAAAAAAAAACBAAAAHgAQCAAADAyBmAAwzoLAAgCIAqTSSACCAAAlIgAIiAGHTMgKJjrSlbOEcYhkwBHY2ceayLCOAAABAAACEAAAAAIAAAQgAAAAAAAAAA==

>  <PUBCHEM_IUPAC_OPENEYE_NAME>
8-hydroxy-4-oxo-1H-quinoline-2-carboxylic acid

>  <PUBCHEM_IUPAC_CAS_NAME>
8-hydroxy-4-oxo-1H-quinoline-2-carboxylic acid

>  <PUBCHEM_IUPAC_NAME_MARKUP>
8-hydroxy-4-oxo-1<I>H</I>-quinoline-2-carboxylic acid

>  <PUBCHEM_IUPAC_NAME>
8-hydroxy-4-oxo-1H-quinoline-2-carboxylic acid

>  <PUBCHEM_IUPAC_SYSTEMATIC_NAME>
8-oxidanyl-4-oxidanylidene-1H-quinoline-2-carboxylic acid

>  <PUBCHEM_IUPAC_TRADITIONAL_NAME>
8-hydroxy-4-keto-1H-quinoline-2-carboxylic acid

>  <PUBCHEM_IUPAC_INCHI>
InChI=1S/C10H7NO4/c12-7-3-1-2-5-8(13)4-6(10(14)15)11-9(5)7/h1-4,12H,(H,11,13)(H,14,15)

>  <PUBCHEM_IUPAC_INCHIKEY>
FBZONXHGGPHHIY-UHFFFAOYSA-N

>  <PUBCHEM_XLOGP3_AA>
0.900000

>  <PUBCHEM_EXACT_MASS>
205.037508

>  <PUBCHEM_MOLECULAR_FORMULA>
C10H7NO4

>  <PUBCHEM_MOLECULAR_WEIGHT>
205.170000

>  <PUBCHEM_OPENEYE_CAN_SMILES>
C1=CC2=C(C(=C1)O)NC(=CC2=O)C(=O)O

>  <PUBCHEM_OPENEYE_ISO_SMILES>
C1=CC2=C(C(=C1)O)NC(=CC2=O)C(=O)O

>  <PUBCHEM_CACTVS_TPSA>
86.600000

>  <PUBCHEM_MONOISOTOPIC_WEIGHT>
205.037508

>  <PUBCHEM_TOTAL_CHARGE>
0

>  <PUBCHEM_HEAVY_ATOM_COUNT>
15

>  <PUBCHEM_ATOM_DEF_STEREO_COUNT>
0

>  <PUBCHEM_ATOM_UDEF_STEREO_COUNT>
0

>  <PUBCHEM_BOND_DEF_STEREO_COUNT>
0

>  <PUBCHEM_BOND_UDEF_STEREO_COUNT>
0

>  <PUBCHEM_ISOTOPIC_ATOM_COUNT>
0

>  <PUBCHEM_COMPONENT_COUNT>
1

>  <PUBCHEM_CACTVS_TAUTO_COUNT>
-1

>  <PUBCHEM_COORDINATE_TYPE>
1
5
255


>  <PUBCHEM_BONDANNOTATIONS>
10  13  8
11  14  8
13  14  8
5  6  8
5  8  8
6  10  8
6  7  8
7  11  8
7  9  8
8  12  8
9  12  8


$$$$
