REMARK VINA RESULT:      -8.5      1.657      8.277
REMARK  13 active torsions:
REMARK  status: ('A' for Active; 'I' for Inactive)
REMARK    1  A    between atoms: C_2  and  O_3 
REMARK    2  A    between atoms: C_15  and  O_16 
REMARK    3  A    between atoms: C_28  and  O_29 
REMARK    4  A    between atoms: C_41  and  O_42 
REMARK    5  A    between atoms: C_54  and  C_55 
REMARK    6  A    between atoms: O_3  and  C_4 
REMARK    7  A    between atoms: C_4  and  C_6 
REMARK    8  A    between atoms: O_16  and  C_17 
REMARK    9  A    between atoms: C_17  and  C_19 
REMARK   10  A    between atoms: O_29  and  C_30 
REMARK   11  A    between atoms: C_30  and  C_32 
REMARK   12  A    between atoms: O_42  and  C_43 
REMARK   13  A    between atoms: C_43  and  C_45 
ROOT
ATOM      1  O   LIG     1     174.041 171.555 171.747  0.00  0.00    -0.314 OA
ATOM      2  C   LIG     1     174.815 172.620 171.153  0.00  0.00     0.335 C 
ATOM      3  C   LIG     1     175.934 173.110 172.116  0.00  0.00     0.282 C 
ATOM      4  C   LIG     1     176.786 171.898 172.599  0.00  0.00     0.257 C 
ATOM      5  C   LIG     1     175.883 170.763 173.166  0.00  0.00     0.242 C 
ATOM      6  C   LIG     1     174.783 170.383 172.129  0.00  0.00     0.195 C 
ENDROOT
BRANCH   2   7
ATOM      7  O   LIG     1     173.872 173.671 170.910  0.00  0.00    -0.417 OA
BRANCH   7   8
ATOM      8  C   LIG     1     173.620 174.143 169.655  0.00  0.00     0.343 C 
ATOM      9  O   LIG     1     173.183 173.324 168.813  0.00  0.00    -0.245 OA
BRANCH   8  10
ATOM     10  C   LIG     1     173.790 175.523 169.355  0.00  0.00     0.082 A 
ATOM     11  C   LIG     1     174.227 176.436 170.346  0.00  0.00     0.052 A 
ATOM     12  C   LIG     1     174.503 177.780 170.028  0.00  0.00     0.238 A 
ATOM     13  C   LIG     1     174.346 178.234 168.703  0.00  0.00     0.273 A 
ATOM     14  O   LIG     1     174.931 178.632 170.991  0.00  0.00    -0.283 OA
ATOM     15  C   LIG     1     173.884 177.349 167.711  0.00  0.00     0.238 A 
ATOM     16  O   LIG     1     174.640 179.514 168.360  0.00  0.00    -0.280 OA
ATOM     17  C   LIG     1     173.594 176.011 168.039  0.00  0.00     0.052 A 
ATOM     18  O   LIG     1     173.735 177.790 166.436  0.00  0.00    -0.283 OA
ENDBRANCH   8  10
ENDBRANCH   7   8
ENDBRANCH   2   7
BRANCH   3  19
ATOM     19  O   LIG     1     176.812 174.057 171.481  0.00  0.00    -0.439 OA
BRANCH  19  20
ATOM     20  C   LIG     1     177.057 175.333 171.898  0.00  0.00     0.342 C 
ATOM     21  O   LIG     1     176.445 175.689 172.932  0.00  0.00    -0.245 OA
BRANCH  20  22
ATOM     22  C   LIG     1     177.880 176.239 171.174  0.00  0.00     0.082 A 
ATOM     23  C   LIG     1     178.182 177.523 171.691  0.00  0.00     0.052 A 
ATOM     24  C   LIG     1     178.995 178.425 170.977  0.00  0.00     0.238 A 
ATOM     25  O   LIG     1     179.251 179.642 171.521  0.00  0.00    -0.283 OA
ATOM     26  C   LIG     1     179.522 178.058 169.723  0.00  0.00     0.273 A 
ATOM     27  O   LIG     1     180.304 178.939 169.043  0.00  0.00    -0.280 OA
ATOM     28  C   LIG     1     179.232 176.786 169.191  0.00  0.00     0.238 A 
ATOM     29  C   LIG     1     178.421 175.888 169.915  0.00  0.00     0.052 A 
ATOM     30  O   LIG     1     179.732 176.432 167.980  0.00  0.00    -0.283 OA
ENDBRANCH  20  22
ENDBRANCH  19  20
ENDBRANCH   3  19
BRANCH   4  31
ATOM     31  O   LIG     1     177.722 172.290 173.623  0.00  0.00    -0.441 OA
BRANCH  31  32
ATOM     32  C   LIG     1     179.089 172.256 173.555  0.00  0.00     0.342 C 
ATOM     33  O   LIG     1     179.628 171.194 173.943  0.00  0.00    -0.245 OA
BRANCH  32  34
ATOM     34  C   LIG     1     179.881 173.289 172.977  0.00  0.00     0.082 A 
ATOM     35  C   LIG     1     180.063 174.529 173.637  0.00  0.00     0.052 A 
ATOM     36  C   LIG     1     180.864 175.542 173.071  0.00  0.00     0.238 A 
ATOM     37  C   LIG     1     181.502 175.326 171.835  0.00  0.00     0.273 A 
ATOM     38  O   LIG     1     181.027 176.728 173.711  0.00  0.00    -0.283 OA
ATOM     39  O   LIG     1     182.280 176.302 171.304  0.00  0.00    -0.280 OA
ATOM     40  C   LIG     1     181.325 174.101 171.162  0.00  0.00     0.238 A 
ATOM     41  O   LIG     1     181.923 173.900 169.961  0.00  0.00    -0.283 OA
ATOM     42  C   LIG     1     180.530 173.091 171.736  0.00  0.00     0.052 A 
ENDBRANCH  32  34
ENDBRANCH  31  32
ENDBRANCH   4  31
BRANCH   6  43
ATOM     43  C   LIG     1     173.766 169.353 172.683  0.00  0.00     0.215 C 
ATOM     44  O   LIG     1     173.568 168.293 171.753  0.00  0.00    -0.218 OA
ENDBRANCH   6  43
BRANCH   5  45
ATOM     45  O   LIG     1     176.676 169.590 173.441  0.00  0.00    -0.443 OA
BRANCH  45  46
ATOM     46  C   LIG     1     176.987 169.029 174.650  0.00  0.00     0.341 C 
ATOM     47  O   LIG     1     177.954 168.234 174.637  0.00  0.00    -0.245 OA
BRANCH  46  48
ATOM     48  C   LIG     1     176.247 169.212 175.845  0.00  0.00     0.082 A 
ATOM     49  C   LIG     1     176.798 170.104 176.856  0.00  0.00     0.052 A 
ATOM     50  C   LIG     1     176.085 170.266 178.064  0.00  0.00     0.238 A 
ATOM     51  O   LIG     1     176.584 171.076 179.032  0.00  0.00    -0.283 OA
ATOM     52  C   LIG     1     174.858 169.608 178.308  0.00  0.00     0.273 A 
ATOM     53  O   LIG     1     174.211 169.815 179.488  0.00  0.00    -0.280 OA
ATOM     54  C   LIG     1     174.333 168.729 177.276  0.00  0.00     0.238 A 
ATOM     55  O   LIG     1     173.117 168.140 177.628  0.00  0.00    -0.283 OA
ATOM     56  C   LIG     1     175.005 168.475 175.991  0.00  0.00     0.052 A 
ENDBRANCH  46  48
ENDBRANCH  45  46
ENDBRANCH   5  45
TORSDOF 13
