REMARK VINA RESULT:      -8.5      2.068      3.189
REMARK  13 active torsions:
REMARK  status: ('A' for Active; 'I' for Inactive)
REMARK    1  A    between atoms: C_2  and  O_3 
REMARK    2  A    between atoms: C_15  and  O_16 
REMARK    3  A    between atoms: C_28  and  O_29 
REMARK    4  A    between atoms: C_41  and  O_42 
REMARK    5  A    between atoms: C_54  and  C_55 
REMARK    6  A    between atoms: O_3  and  C_4 
REMARK    7  A    between atoms: C_4  and  C_6 
REMARK    8  A    between atoms: O_16  and  C_17 
REMARK    9  A    between atoms: C_17  and  C_19 
REMARK   10  A    between atoms: O_29  and  C_30 
REMARK   11  A    between atoms: C_30  and  C_32 
REMARK   12  A    between atoms: O_42  and  C_43 
REMARK   13  A    between atoms: C_43  and  C_45 
ROOT
ATOM      1  O   LIG     1     172.792 173.888 169.946  0.00  0.00    -0.314 OA
ATOM      2  C   LIG     1     173.439 173.488 171.173  0.00  0.00     0.335 C 
ATOM      3  C   LIG     1     174.905 174.005 171.234  0.00  0.00     0.282 C 
ATOM      4  C   LIG     1     174.938 175.540 170.968  0.00  0.00     0.257 C 
ATOM      5  C   LIG     1     174.166 175.904 169.665  0.00  0.00     0.242 C 
ATOM      6  C   LIG     1     172.728 175.306 169.707  0.00  0.00     0.195 C 
ENDROOT
BRANCH   2   7
ATOM      7  O   LIG     1     173.416 172.056 171.154  0.00  0.00    -0.417 OA
BRANCH   7   8
ATOM      8  C   LIG     1     172.881 171.326 172.175  0.00  0.00     0.343 C 
ATOM      9  O   LIG     1     172.836 171.869 173.305  0.00  0.00    -0.245 OA
BRANCH   8  10
ATOM     10  C   LIG     1     172.343 170.032 171.933  0.00  0.00     0.082 A 
ATOM     11  C   LIG     1     170.975 169.861 171.609  0.00  0.00     0.052 A 
ATOM     12  C   LIG     1     170.460 168.596 171.261  0.00  0.00     0.238 A 
ATOM     13  C   LIG     1     171.315 167.476 171.230  0.00  0.00     0.273 A 
ATOM     14  O   LIG     1     169.150 168.460 170.944  0.00  0.00    -0.283 OA
ATOM     15  C   LIG     1     172.670 167.621 171.578  0.00  0.00     0.238 A 
ATOM     16  O   LIG     1     170.855 166.253 170.862  0.00  0.00    -0.280 OA
ATOM     17  C   LIG     1     173.175 168.884 171.941  0.00  0.00     0.052 A 
ATOM     18  O   LIG     1     173.491 166.540 171.546  0.00  0.00    -0.283 OA
ENDBRANCH   8  10
ENDBRANCH   7   8
ENDBRANCH   2   7
BRANCH   3  19
ATOM     19  O   LIG     1     175.511 173.754 172.515  0.00  0.00    -0.439 OA
BRANCH  19  20
ATOM     20  C   LIG     1     176.637 173.018 172.742  0.00  0.00     0.342 C 
ATOM     21  O   LIG     1     176.454 171.790 172.914  0.00  0.00    -0.245 OA
BRANCH  20  22
ATOM     22  C   LIG     1     177.930 173.599 172.864  0.00  0.00     0.082 A 
ATOM     23  C   LIG     1     178.991 173.200 172.016  0.00  0.00     0.052 A 
ATOM     24  C   LIG     1     180.274 173.771 172.133  0.00  0.00     0.238 A 
ATOM     25  O   LIG     1     181.254 173.350 171.294  0.00  0.00    -0.283 OA
ATOM     26  C   LIG     1     180.521 174.755 173.111  0.00  0.00     0.273 A 
ATOM     27  O   LIG     1     181.763 175.297 173.216  0.00  0.00    -0.280 OA
ATOM     28  C   LIG     1     179.478 175.164 173.966  0.00  0.00     0.238 A 
ATOM     29  C   LIG     1     178.196 174.592 173.836  0.00  0.00     0.052 A 
ATOM     30  O   LIG     1     179.713 176.107 174.913  0.00  0.00    -0.283 OA
ENDBRANCH  20  22
ENDBRANCH  19  20
ENDBRANCH   3  19
BRANCH   4  31
ATOM     31  O   LIG     1     176.291 176.022 170.846  0.00  0.00    -0.441 OA
BRANCH  31  32
ATOM     32  C   LIG     1     176.902 176.982 171.609  0.00  0.00     0.342 C 
ATOM     33  O   LIG     1     176.227 177.431 172.563  0.00  0.00    -0.245 OA
BRANCH  32  34
ATOM     34  C   LIG     1     178.256 177.388 171.439  0.00  0.00     0.082 A 
ATOM     35  C   LIG     1     178.781 178.501 172.140  0.00  0.00     0.052 A 
ATOM     36  C   LIG     1     180.128 178.888 171.984  0.00  0.00     0.238 A 
ATOM     37  C   LIG     1     180.974 178.160 171.126  0.00  0.00     0.273 A 
ATOM     38  O   LIG     1     180.618 179.960 172.657  0.00  0.00    -0.283 OA
ATOM     39  O   LIG     1     182.271 178.533 170.991  0.00  0.00    -0.280 OA
ATOM     40  C   LIG     1     180.465 177.055 170.415  0.00  0.00     0.238 A 
ATOM     41  O   LIG     1     181.274 176.367 169.571  0.00  0.00    -0.283 OA
ATOM     42  C   LIG     1     179.121 176.670 170.581  0.00  0.00     0.052 A 
ENDBRANCH  32  34
ENDBRANCH  31  32
ENDBRANCH   4  31
BRANCH   6  43
ATOM     43  C   LIG     1     171.952 175.516 168.382  0.00  0.00     0.215 C 
ATOM     44  O   LIG     1     170.681 174.875 168.439  0.00  0.00    -0.218 OA
ENDBRANCH   6  43
BRANCH   5  45
ATOM     45  O   LIG     1     174.062 177.337 169.536  0.00  0.00    -0.443 OA
BRANCH  45  46
ATOM     46  C   LIG     1     174.589 178.152 168.571  0.00  0.00     0.341 C 
ATOM     47  O   LIG     1     173.885 178.289 167.544  0.00  0.00    -0.245 OA
BRANCH  46  48
ATOM     48  C   LIG     1     175.875 178.746 168.623  0.00  0.00     0.082 A 
ATOM     49  C   LIG     1     176.942 178.123 167.852  0.00  0.00     0.052 A 
ATOM     50  C   LIG     1     178.235 178.687 167.924  0.00  0.00     0.238 A 
ATOM     51  O   LIG     1     179.252 178.116 167.232  0.00  0.00    -0.283 OA
ATOM     52  C   LIG     1     178.513 179.835 168.701  0.00  0.00     0.273 A 
ATOM     53  O   LIG     1     179.777 180.340 168.719  0.00  0.00    -0.280 OA
ATOM     54  C   LIG     1     177.424 180.435 169.455  0.00  0.00     0.238 A 
ATOM     55  O   LIG     1     177.818 181.562 170.178  0.00  0.00    -0.283 OA
ATOM     56  C   LIG     1     176.046 179.916 169.465  0.00  0.00     0.052 A 
ENDBRANCH  46  48
ENDBRANCH  45  46
ENDBRANCH   5  45
TORSDOF 13
