REMARK VINA RESULT:      -9.0      0.000      0.000
REMARK  13 active torsions:
REMARK  status: ('A' for Active; 'I' for Inactive)
REMARK    1  A    between atoms: C_2  and  O_3 
REMARK    2  A    between atoms: C_15  and  O_16 
REMARK    3  A    between atoms: C_28  and  O_29 
REMARK    4  A    between atoms: C_41  and  O_42 
REMARK    5  A    between atoms: C_54  and  C_55 
REMARK    6  A    between atoms: O_3  and  C_4 
REMARK    7  A    between atoms: C_4  and  C_6 
REMARK    8  A    between atoms: O_16  and  C_17 
REMARK    9  A    between atoms: C_17  and  C_19 
REMARK   10  A    between atoms: O_29  and  C_30 
REMARK   11  A    between atoms: C_30  and  C_32 
REMARK   12  A    between atoms: O_42  and  C_43 
REMARK   13  A    between atoms: C_43  and  C_45 
ROOT
ATOM      1  O   LIG     1     174.441 173.109 170.234  0.00  0.00    -0.314 OA
ATOM      2  C   LIG     1     175.174 172.837 171.448  0.00  0.00     0.335 C 
ATOM      3  C   LIG     1     176.421 173.757 171.574  0.00  0.00     0.282 C 
ATOM      4  C   LIG     1     175.998 175.248 171.407  0.00  0.00     0.257 C 
ATOM      5  C   LIG     1     175.158 175.455 170.113  0.00  0.00     0.242 C 
ATOM      6  C   LIG     1     173.961 174.457 170.083  0.00  0.00     0.195 C 
ENDROOT
BRANCH   2   7
ATOM      7  O   LIG     1     175.576 171.466 171.338  0.00  0.00    -0.417 OA
BRANCH   7   8
ATOM      8  C   LIG     1     175.049 170.490 172.131  0.00  0.00     0.343 C 
ATOM      9  O   LIG     1     174.101 169.818 171.658  0.00  0.00    -0.245 OA
BRANCH   8  10
ATOM     10  C   LIG     1     175.607 170.218 173.410  0.00  0.00     0.082 A 
ATOM     11  C   LIG     1     175.110 170.856 174.573  0.00  0.00     0.052 A 
ATOM     12  C   LIG     1     175.584 170.510 175.854  0.00  0.00     0.238 A 
ATOM     13  C   LIG     1     176.568 169.511 175.991  0.00  0.00     0.273 A 
ATOM     14  O   LIG     1     175.084 171.127 176.953  0.00  0.00    -0.283 OA
ATOM     15  C   LIG     1     177.096 168.887 174.846  0.00  0.00     0.238 A 
ATOM     16  O   LIG     1     177.016 169.131 177.215  0.00  0.00    -0.280 OA
ATOM     17  C   LIG     1     176.631 169.249 173.567  0.00  0.00     0.052 A 
ATOM     18  O   LIG     1     178.043 167.925 174.982  0.00  0.00    -0.283 OA
ENDBRANCH   8  10
ENDBRANCH   7   8
ENDBRANCH   2   7
BRANCH   3  19
ATOM     19  O   LIG     1     177.069 173.612 172.850  0.00  0.00    -0.439 OA
BRANCH  19  20
ATOM     20  C   LIG     1     178.314 173.095 173.066  0.00  0.00     0.342 C 
ATOM     21  O   LIG     1     178.355 172.070 173.787  0.00  0.00    -0.245 OA
BRANCH  20  22
ATOM     22  C   LIG     1     179.502 173.711 172.585  0.00  0.00     0.082 A 
ATOM     23  C   LIG     1     180.041 174.854 173.224  0.00  0.00     0.052 A 
ATOM     24  C   LIG     1     181.216 175.470 172.750  0.00  0.00     0.238 A 
ATOM     25  O   LIG     1     181.688 176.563 173.402  0.00  0.00    -0.283 OA
ATOM     26  C   LIG     1     181.876 174.952 171.618  0.00  0.00     0.273 A 
ATOM     27  O   LIG     1     183.008 175.556 171.169  0.00  0.00    -0.280 OA
ATOM     28  C   LIG     1     181.354 173.816 170.967  0.00  0.00     0.238 A 
ATOM     29  C   LIG     1     180.180 173.203 171.452  0.00  0.00     0.052 A 
ATOM     30  O   LIG     1     181.983 173.318 169.873  0.00  0.00    -0.283 OA
ENDBRANCH  20  22
ENDBRANCH  19  20
ENDBRANCH   3  19
BRANCH   4  31
ATOM     31  O   LIG     1     177.148 176.116 171.347  0.00  0.00    -0.441 OA
BRANCH  31  32
ATOM     32  C   LIG     1     177.383 177.235 172.100  0.00  0.00     0.342 C 
ATOM     33  O   LIG     1     176.637 177.390 173.094  0.00  0.00    -0.245 OA
BRANCH  32  34
ATOM     34  C   LIG     1     178.468 178.129 171.876  0.00  0.00     0.082 A 
ATOM     35  C   LIG     1     178.504 179.407 172.486  0.00  0.00     0.052 A 
ATOM     36  C   LIG     1     179.590 180.281 172.277  0.00  0.00     0.238 A 
ATOM     37  C   LIG     1     180.663 179.886 171.457  0.00  0.00     0.273 A 
ATOM     38  O   LIG     1     179.610 181.506 172.863  0.00  0.00    -0.283 OA
ATOM     39  O   LIG     1     181.709 180.730 171.270  0.00  0.00    -0.280 OA
ATOM     40  C   LIG     1     180.640 178.622 170.835  0.00  0.00     0.238 A 
ATOM     41  O   LIG     1     181.664 178.249 170.027  0.00  0.00    -0.283 OA
ATOM     42  C   LIG     1     179.556 177.751 171.055  0.00  0.00     0.052 A 
ENDBRANCH  32  34
ENDBRANCH  31  32
ENDBRANCH   4  31
BRANCH   6  43
ATOM     43  C   LIG     1     173.162 174.517 168.757  0.00  0.00     0.215 C 
ATOM     44  O   LIG     1     171.915 175.178 168.952  0.00  0.00    -0.218 OA
ENDBRANCH   6  43
BRANCH   5  45
ATOM     45  O   LIG     1     174.633 176.798 170.072  0.00  0.00    -0.443 OA
BRANCH  45  46
ATOM     46  C   LIG     1     174.789 177.751 169.102  0.00  0.00     0.341 C 
ATOM     47  O   LIG     1     173.853 177.830 168.274  0.00  0.00    -0.245 OA
BRANCH  46  48
ATOM     48  C   LIG     1     175.946 178.552 168.928  0.00  0.00     0.082 A 
ATOM     49  C   LIG     1     177.023 178.020 168.104  0.00  0.00     0.052 A 
ATOM     50  C   LIG     1     178.194 178.795 167.953  0.00  0.00     0.238 A 
ATOM     51  O   LIG     1     179.220 178.317 167.206  0.00  0.00    -0.283 OA
ATOM     52  C   LIG     1     178.339 180.065 168.558  0.00  0.00     0.273 A 
ATOM     53  O   LIG     1     179.487 180.771 168.364  0.00  0.00    -0.280 OA
ATOM     54  C   LIG     1     177.244 180.568 169.370  0.00  0.00     0.238 A 
ATOM     55  O   LIG     1     177.501 181.830 169.911  0.00  0.00    -0.283 OA
ATOM     56  C   LIG     1     175.990 179.833 169.608  0.00  0.00     0.052 A 
ENDBRANCH  46  48
ENDBRANCH  45  46
ENDBRANCH   5  45
TORSDOF 13
