MODEL 1
REMARK VINA RESULT:    -9.617      0.000      0.000
REMARK INTER + INTRA:         -22.136
REMARK INTER:                 -17.206
REMARK INTRA:                  -4.930
REMARK UNBOUND:                -4.930
REMARK  16 active torsions:
REMARK  status: ('A' for Active; 'I' for Inactive)
REMARK    1  A    between atoms: C_2  and  O_4 
REMARK    2  A    between atoms: N_3  and  C_5 
REMARK    3  A    between atoms: O_4  and  O_22 
REMARK    4  A    between atoms: C_8  and  O_23 
REMARK    5  A    between atoms: C_9  and  O_22 
REMARK    6  A    between atoms: C_10  and  C_19 
REMARK    7  A    between atoms: C_13  and  C_24 
REMARK    8  A    between atoms: C_16  and  C_61 
REMARK    9  A    between atoms: C_17  and  O_25 
REMARK   10  A    between atoms: C_24  and  C_28 
REMARK   11  A    between atoms: C_41  and  C_45 
REMARK   12  A    between atoms: C_45  and  C_52 
REMARK   13  A    between atoms: O_46  and  C_53 
REMARK   14  A    between atoms: O_47  and  C_54 
REMARK   15  A    between atoms: C_50  and  C_55 
REMARK   16  A    between atoms: O_51  and  C_56 
ROOT
HETATM    1  C   UNL     1      10.985  23.747  32.437  1.00  0.00     0.088 C 
HETATM    2  C   UNL     1      12.077  22.885  32.367  1.00  0.00     0.019 C 
HETATM    3  C   UNL     1      12.471  22.135  33.499  1.00  0.00    -0.029 C 
HETATM    4  C   UNL     1      11.918  22.543  34.765  1.00  0.00    -0.014 C 
HETATM    5  C   UNL     1      10.759  23.380  34.825  1.00  0.00     0.022 C 
HETATM    6  C   UNL     1      10.289  23.996  33.618  1.00  0.00     0.013 C 
HETATM    7  C   UNL     1      12.516  22.219  36.005  1.00  0.00     0.020 C 
HETATM    8  C   UNL     1      11.986  22.562  37.262  1.00  0.00    -0.047 C 
HETATM    9  C   UNL     1      10.736  23.185  37.331  1.00  0.00     0.017 C 
HETATM   10  C   UNL     1      10.141  23.565  36.109  1.00  0.00     0.089 C 
HETATM   11  C   UNL     1      12.771  22.183  38.497  1.00  0.00     0.049 C 
ENDROOT
BRANCH   9  12
HETATM   12  C   UNL     1      10.087  23.460  38.638  1.00  0.00     0.017 A 
HETATM   13  C   UNL     1      10.318  24.670  39.340  1.00  0.00     0.089 A 
HETATM   14  C   UNL     1       9.706  25.003  40.597  1.00  0.00     0.022 A 
HETATM   15  C   UNL     1       9.834  26.273  41.259  1.00  0.00     0.015 A 
HETATM   16  C   UNL     1       8.909  23.992  41.219  1.00  0.00    -0.012 A 
HETATM   17  C   UNL     1       9.193  26.477  42.480  1.00  0.00     0.110 A 
HETATM   18  C   UNL     1       8.495  25.459  43.114  1.00  0.00     0.107 A 
HETATM   19  C   UNL     1       8.363  24.194  42.533  1.00  0.00    -0.007 A 
HETATM   20  C   UNL     1       8.665  22.806  40.483  1.00  0.00     0.020 A 
HETATM   21  C   UNL     1       9.197  22.541  39.210  1.00  0.00    -0.047 A 
HETATM   22  C   UNL     1       8.811  21.250  38.535  1.00  0.00     0.049 C 
BRANCH  13  23
HETATM   23  O   UNL     1      11.182  25.588  38.776  1.00  0.00    -0.359 OA
HETATM   24  H   UNL     1      10.679  26.302  38.354  1.00  0.00     0.217 HD
ENDBRANCH  13  23
BRANCH  15  25
HETATM   25  C   UNL     1      10.651  27.368  40.684  1.00  0.00     0.038 C 
BRANCH  25  26
HETATM   26  C   UNL     1      10.230  28.505  40.093  1.00  0.00     0.101 C 
HETATM   27  C   UNL     1       9.556  28.558  38.776  1.00  0.00     0.265 C 
HETATM   28  O   UNL     1       8.955  27.609  38.284  1.00  0.00    -0.267 OA
HETATM   29  N   UNL     1       9.560  29.784  38.174  1.00  0.00    -0.275 N 
HETATM   30  C   UNL     1       9.799  30.970  38.795  1.00  0.00     0.329 C 
HETATM   31  H   UNL     1       9.117  29.846  37.266  1.00  0.00     0.173 HD
HETATM   32  O   UNL     1       9.665  32.041  38.212  1.00  0.00    -0.246 OA
HETATM   33  N   UNL     1      10.196  30.911  40.095  1.00  0.00    -0.275 N 
HETATM   34  C   UNL     1      10.530  29.783  40.791  1.00  0.00     0.265 C 
HETATM   35  H   UNL     1      10.400  31.795  40.540  1.00  0.00     0.173 HD
HETATM   36  O   UNL     1      11.088  29.855  41.881  1.00  0.00    -0.267 OA
ENDBRANCH  25  26
ENDBRANCH  15  25
BRANCH  17  37
HETATM   37  O   UNL     1       9.158  27.710  43.085  1.00  0.00    -0.357 OA
HETATM   38  H   UNL     1      10.045  27.781  43.504  1.00  0.00     0.217 HD
ENDBRANCH  17  37
BRANCH  18  39
HETATM   39  O   UNL     1       7.903  25.753  44.311  1.00  0.00    -0.357 OA
HETATM   40  H   UNL     1       7.762  26.721  44.303  1.00  0.00     0.217 HD
ENDBRANCH  18  39
BRANCH  19  41
HETATM   41  C   UNL     1       7.631  23.080  43.294  1.00  0.00     0.014 C 
HETATM   42  C   UNL     1       6.307  22.631  42.654  1.00  0.00     0.015 C 
HETATM   43  C   UNL     1       8.553  21.887  43.551  1.00  0.00     0.015 C 
ENDBRANCH  19  41
ENDBRANCH   9  12
BRANCH  10  44
HETATM   44  O   UNL     1       8.871  24.109  36.123  1.00  0.00    -0.359 OA
HETATM   45  H   UNL     1       8.558  24.281  35.214  1.00  0.00     0.217 HD
ENDBRANCH  10  44
BRANCH   6  46
HETATM   46  C   UNL     1       9.255  25.062  33.670  1.00  0.00     0.038 C 
BRANCH  46  47
HETATM   47  C   UNL     1       9.363  26.389  33.447  1.00  0.00     0.101 C 
HETATM   48  C   UNL     1       9.889  27.232  34.551  1.00  0.00     0.265 C 
HETATM   49  N   UNL     1       9.743  28.576  34.367  1.00  0.00    -0.275 N 
HETATM   50  O   UNL     1      10.448  26.758  35.533  1.00  0.00    -0.267 OA
HETATM   51  C   UNL     1       9.277  29.194  33.246  1.00  0.00     0.329 C 
HETATM   52  H   UNL     1      10.126  29.181  35.084  1.00  0.00     0.173 HD
HETATM   53  N   UNL     1       8.787  28.391  32.258  1.00  0.00    -0.275 N 
HETATM   54  O   UNL     1       9.357  30.406  33.094  1.00  0.00    -0.246 OA
HETATM   55  C   UNL     1       8.973  27.045  32.184  1.00  0.00     0.265 C 
HETATM   56  H   UNL     1       8.558  28.886  31.405  1.00  0.00     0.173 HD
HETATM   57  O   UNL     1       8.967  26.420  31.123  1.00  0.00    -0.267 OA
ENDBRANCH  46  47
ENDBRANCH   6  46
BRANCH   3  58
HETATM   58  C   UNL     1      13.242  20.807  33.281  1.00  0.00     0.012 C 
HETATM   59  C   UNL     1      12.714  19.693  32.366  1.00  0.00     0.015 C 
HETATM   60  C   UNL     1      14.663  21.135  32.760  1.00  0.00     0.015 C 
ENDBRANCH   3  58
BRANCH   1  61
HETATM   61  O   UNL     1      10.672  24.299  31.210  1.00  0.00    -0.359 OA
HETATM   62  H   UNL     1      10.106  23.637  30.731  1.00  0.00     0.217 HD
ENDBRANCH   1  61
BRANCH   2  63
HETATM   63  O   UNL     1      12.682  22.943  31.122  1.00  0.00     0.000 OA
HETATM   64  H   UNL     1      12.854  23.903  30.870  1.00  0.00     0.000 HD
BRANCH  63  65
HETATM   65  O   UNL     1      12.325  22.024  30.120  1.00  0.00    -0.177 OA
BRANCH  65  66
HETATM   66  C   UNL     1      13.212  21.834  29.200  1.00  0.00     0.153 C 
HETATM   67  N   UNL     1      13.208  22.632  28.098  1.00  0.00    -0.359 N 
HETATM   68  C   UNL     1      14.174  22.155  27.126  1.00  0.00     0.125 C 
HETATM   69  C   UNL     1      15.128  21.309  27.962  1.00  0.00     0.028 C 
HETATM   70  C   UNL     1      14.270  20.783  29.108  1.00  0.00     0.088 C 
BRANCH  67  71
HETATM   71  C   UNL     1      12.240  23.695  27.801  1.00  0.00     0.077 C 
HETATM   72  C   UNL     1      12.711  25.041  28.346  1.00  0.00     0.032 C 
HETATM   73  C   UNL     1      11.930  23.780  26.308  1.00  0.00     0.032 C 
ENDBRANCH  67  71
ENDBRANCH  65  66
ENDBRANCH  63  65
ENDBRANCH   2  63
TORSDOF 16
ENDMDL
MODEL 2
REMARK VINA RESULT:    -9.565      2.135     10.346
REMARK INTER + INTRA:         -22.044
REMARK INTER:                 -17.189
REMARK INTRA:                  -4.855
REMARK UNBOUND:                -4.930
REMARK  16 active torsions:
REMARK  status: ('A' for Active; 'I' for Inactive)
REMARK    1  A    between atoms: C_2  and  O_4 
REMARK    2  A    between atoms: N_3  and  C_5 
REMARK    3  A    between atoms: O_4  and  O_22 
REMARK    4  A    between atoms: C_8  and  O_23 
REMARK    5  A    between atoms: C_9  and  O_22 
REMARK    6  A    between atoms: C_10  and  C_19 
REMARK    7  A    between atoms: C_13  and  C_24 
REMARK    8  A    between atoms: C_16  and  C_61 
REMARK    9  A    between atoms: C_17  and  O_25 
REMARK   10  A    between atoms: C_24  and  C_28 
REMARK   11  A    between atoms: C_41  and  C_45 
REMARK   12  A    between atoms: C_45  and  C_52 
REMARK   13  A    between atoms: O_46  and  C_53 
REMARK   14  A    between atoms: O_47  and  C_54 
REMARK   15  A    between atoms: C_50  and  C_55 
REMARK   16  A    between atoms: O_51  and  C_56 
ROOT
HETATM    1  C   UNL     1       9.309  24.490  41.381  1.00  0.00     0.088 C 
HETATM    2  C   UNL     1       8.640  23.346  41.811  1.00  0.00     0.019 C 
HETATM    3  C   UNL     1       8.654  22.171  41.024  1.00  0.00    -0.029 C 
HETATM    4  C   UNL     1       9.093  22.315  39.660  1.00  0.00    -0.014 C 
HETATM    5  C   UNL     1       9.832  23.467  39.244  1.00  0.00     0.022 C 
HETATM    6  C   UNL     1       9.935  24.583  40.140  1.00  0.00     0.013 C 
HETATM    7  C   UNL     1       8.762  21.389  38.644  1.00  0.00     0.020 C 
HETATM    8  C   UNL     1       9.204  21.471  37.311  1.00  0.00    -0.047 C 
HETATM    9  C   UNL     1      10.111  22.474  36.952  1.00  0.00     0.017 C 
HETATM   10  C   UNL     1      10.419  23.441  37.932  1.00  0.00     0.089 C 
HETATM   11  C   UNL     1       8.723  20.427  36.330  1.00  0.00     0.049 C 
ENDROOT
BRANCH   9  12
HETATM   12  C   UNL     1      10.693  22.528  35.586  1.00  0.00     0.017 A 
HETATM   13  C   UNL     1      10.193  23.419  34.604  1.00  0.00     0.089 A 
HETATM   14  C   UNL     1      10.725  23.533  33.273  1.00  0.00     0.022 A 
HETATM   15  C   UNL     1      10.310  24.514  32.307  1.00  0.00     0.015 A 
HETATM   16  C   UNL     1      11.744  22.602  32.899  1.00  0.00    -0.012 A 
HETATM   17  C   UNL     1      10.900  24.523  31.043  1.00  0.00     0.110 A 
HETATM   18  C   UNL     1      11.824  23.561  30.666  1.00  0.00     0.107 A 
HETATM   19  C   UNL     1      12.243  22.564  31.552  1.00  0.00    -0.007 A 
HETATM   20  C   UNL     1      12.250  21.746  33.908  1.00  0.00     0.020 A 
HETATM   21  C   UNL     1      11.780  21.719  35.232  1.00  0.00    -0.047 A 
HETATM   22  C   UNL     1      12.451  20.781  36.203  1.00  0.00     0.049 C 
BRANCH  13  23
HETATM   23  O   UNL     1       9.131  24.232  34.949  1.00  0.00    -0.359 OA
HETATM   24  H   UNL     1       8.627  24.475  34.156  1.00  0.00     0.217 HD
ENDBRANCH  13  23
BRANCH  15  25
HETATM   25  C   UNL     1       9.253  25.506  32.614  1.00  0.00     0.038 C 
BRANCH  25  26
HETATM   26  C   UNL     1       9.386  26.827  32.850  1.00  0.00     0.101 C 
HETATM   27  C   UNL     1       9.957  27.397  34.091  1.00  0.00     0.265 C 
HETATM   28  O   UNL     1      10.717  26.783  34.832  1.00  0.00    -0.267 OA
HETATM   29  N   UNL     1       9.657  28.711  34.315  1.00  0.00    -0.275 N 
HETATM   30  C   UNL     1       9.207  29.589  33.379  1.00  0.00     0.329 C 
HETATM   31  H   UNL     1      10.024  29.123  35.163  1.00  0.00     0.173 HD
HETATM   32  O   UNL     1       9.075  30.783  33.628  1.00  0.00    -0.246 OA
HETATM   33  N   UNL     1       8.906  29.080  32.154  1.00  0.00    -0.275 N 
HETATM   34  C   UNL     1       8.861  27.757  31.815  1.00  0.00     0.265 C 
HETATM   35  H   UNL     1       8.544  29.734  31.475  1.00  0.00     0.173 HD
HETATM   36  O   UNL     1       8.364  27.393  30.755  1.00  0.00    -0.267 OA
ENDBRANCH  25  26
ENDBRANCH  15  25
BRANCH  17  37
HETATM   37  O   UNL     1      10.652  25.523  30.134  1.00  0.00    -0.357 OA
HETATM   38  H   UNL     1      10.860  25.099  29.270  1.00  0.00     0.217 HD
ENDBRANCH  17  37
BRANCH  18  39
HETATM   39  O   UNL     1      12.346  23.650  29.404  1.00  0.00    -0.357 OA
HETATM   40  H   UNL     1      11.727  23.155  28.829  1.00  0.00     0.217 HD
ENDBRANCH  18  39
BRANCH  19  41
HETATM   41  C   UNL     1      13.225  21.485  31.075  1.00  0.00     0.014 C 
HETATM   42  C   UNL     1      14.392  21.212  32.037  1.00  0.00     0.015 C 
HETATM   43  C   UNL     1      12.492  20.191  30.713  1.00  0.00     0.015 C 
ENDBRANCH  19  41
ENDBRANCH   9  12
BRANCH  10  44
HETATM   44  O   UNL     1      11.372  24.400  37.650  1.00  0.00    -0.359 OA
HETATM   45  H   UNL     1      12.119  24.012  37.155  1.00  0.00     0.217 HD
ENDBRANCH  10  44
BRANCH   6  46
HETATM   46  C   UNL     1      10.469  25.885  39.663  1.00  0.00     0.038 C 
BRANCH  46  47
HETATM   47  C   UNL     1       9.822  27.028  39.353  1.00  0.00     0.101 C 
HETATM   48  C   UNL     1      10.063  28.212  40.218  1.00  0.00     0.265 C 
HETATM   49  N   UNL     1       9.205  29.254  40.017  1.00  0.00    -0.275 N 
HETATM   50  O   UNL     1      10.987  28.264  41.020  1.00  0.00    -0.267 OA
HETATM   51  C   UNL     1       8.253  29.343  39.046  1.00  0.00     0.329 C 
HETATM   52  H   UNL     1       9.366  30.092  40.562  1.00  0.00     0.173 HD
HETATM   53  N   UNL     1       8.046  28.233  38.281  1.00  0.00    -0.275 N 
HETATM   54  O   UNL     1       7.657  30.388  38.817  1.00  0.00    -0.246 OA
HETATM   55  C   UNL     1       8.882  27.160  38.223  1.00  0.00     0.265 C 
HETATM   56  H   UNL     1       7.414  28.383  37.505  1.00  0.00     0.173 HD
HETATM   57  O   UNL     1       8.967  26.423  37.241  1.00  0.00    -0.267 OA
ENDBRANCH  46  47
ENDBRANCH   6  46
BRANCH   3  58
HETATM   58  C   UNL     1       8.453  20.802  41.726  1.00  0.00     0.012 C 
HETATM   59  C   UNL     1       9.000  20.512  43.131  1.00  0.00     0.015 C 
HETATM   60  C   UNL     1       6.937  20.499  41.800  1.00  0.00     0.015 C 
ENDBRANCH   3  58
BRANCH   1  61
HETATM   61  O   UNL     1       9.291  25.495  42.328  1.00  0.00    -0.359 OA
HETATM   62  H   UNL     1       8.812  26.266  41.924  1.00  0.00     0.217 HD
ENDBRANCH   1  61
BRANCH   2  63
HETATM   63  O   UNL     1       7.973  23.573  43.003  1.00  0.00     0.000 OA
HETATM   64  H   UNL     1       8.312  22.942  43.710  1.00  0.00     0.000 HD
BRANCH  63  65
HETATM   65  O   UNL     1       6.612  23.927  42.994  1.00  0.00    -0.177 OA
BRANCH  65  66
HETATM   66  C   UNL     1       5.898  23.411  43.938  1.00  0.00     0.153 C 
HETATM   67  N   UNL     1       4.650  23.901  44.171  1.00  0.00    -0.359 N 
HETATM   68  C   UNL     1       4.085  23.296  45.363  1.00  0.00     0.125 C 
HETATM   69  C   UNL     1       4.894  22.015  45.526  1.00  0.00     0.028 C 
HETATM   70  C   UNL     1       6.254  22.339  44.916  1.00  0.00     0.088 C 
BRANCH  67  71
HETATM   71  C   UNL     1       4.018  25.029  43.477  1.00  0.00     0.077 C 
HETATM   72  C   UNL     1       2.758  24.587  42.736  1.00  0.00     0.032 C 
HETATM   73  C   UNL     1       3.723  26.189  44.427  1.00  0.00     0.032 C 
ENDBRANCH  67  71
ENDBRANCH  65  66
ENDBRANCH  63  65
ENDBRANCH   2  63
TORSDOF 16
ENDMDL
MODEL 3
REMARK VINA RESULT:    -9.560      0.485      1.426
REMARK INTER + INTRA:         -22.036
REMARK INTER:                 -17.112
REMARK INTRA:                  -4.924
REMARK UNBOUND:                -4.930
REMARK  16 active torsions:
REMARK  status: ('A' for Active; 'I' for Inactive)
REMARK    1  A    between atoms: C_2  and  O_4 
REMARK    2  A    between atoms: N_3  and  C_5 
REMARK    3  A    between atoms: O_4  and  O_22 
REMARK    4  A    between atoms: C_8  and  O_23 
REMARK    5  A    between atoms: C_9  and  O_22 
REMARK    6  A    between atoms: C_10  and  C_19 
REMARK    7  A    between atoms: C_13  and  C_24 
REMARK    8  A    between atoms: C_16  and  C_61 
REMARK    9  A    between atoms: C_17  and  O_25 
REMARK   10  A    between atoms: C_24  and  C_28 
REMARK   11  A    between atoms: C_41  and  C_45 
REMARK   12  A    between atoms: C_45  and  C_52 
REMARK   13  A    between atoms: O_46  and  C_53 
REMARK   14  A    between atoms: O_47  and  C_54 
REMARK   15  A    between atoms: C_50  and  C_55 
REMARK   16  A    between atoms: O_51  and  C_56 
ROOT
HETATM    1  C   UNL     1      10.958  23.932  32.325  1.00  0.00     0.088 C 
HETATM    2  C   UNL     1      12.046  23.069  32.217  1.00  0.00     0.019 C 
HETATM    3  C   UNL     1      12.436  22.269  33.316  1.00  0.00    -0.029 C 
HETATM    4  C   UNL     1      11.884  22.623  34.598  1.00  0.00    -0.014 C 
HETATM    5  C   UNL     1      10.729  23.462  34.694  1.00  0.00     0.022 C 
HETATM    6  C   UNL     1      10.262  24.132  33.516  1.00  0.00     0.013 C 
HETATM    7  C   UNL     1      12.479  22.242  35.823  1.00  0.00     0.020 C 
HETATM    8  C   UNL     1      11.951  22.531  37.094  1.00  0.00    -0.047 C 
HETATM    9  C   UNL     1      10.704  23.157  37.190  1.00  0.00     0.017 C 
HETATM   10  C   UNL     1      10.111  23.593  35.985  1.00  0.00     0.089 C 
HETATM   11  C   UNL     1      12.732  22.095  38.311  1.00  0.00     0.049 C 
ENDROOT
BRANCH   9  12
HETATM   12  C   UNL     1      10.054  23.378  38.507  1.00  0.00     0.017 A 
HETATM   13  C   UNL     1      10.284  24.559  39.257  1.00  0.00     0.089 A 
HETATM   14  C   UNL     1       9.672  24.839  40.527  1.00  0.00     0.022 A 
HETATM   15  C   UNL     1       9.798  26.082  41.239  1.00  0.00     0.015 A 
HETATM   16  C   UNL     1       8.878  23.802  41.108  1.00  0.00    -0.012 A 
HETATM   17  C   UNL     1       9.157  26.234  42.469  1.00  0.00     0.110 A 
HETATM   18  C   UNL     1       8.463  25.190  43.061  1.00  0.00     0.107 A 
HETATM   19  C   UNL     1       8.332  23.950  42.430  1.00  0.00    -0.007 A 
HETATM   20  C   UNL     1       8.636  22.646  40.325  1.00  0.00     0.020 A 
HETATM   21  C   UNL     1       9.168  22.435  39.042  1.00  0.00    -0.047 A 
HETATM   22  C   UNL     1       8.783  21.170  38.315  1.00  0.00     0.049 C 
BRANCH  13  23
HETATM   23  O   UNL     1      11.145  25.501  38.730  1.00  0.00    -0.359 OA
HETATM   24  H   UNL     1      11.755  25.815  39.417  1.00  0.00     0.217 HD
ENDBRANCH  13  23
BRANCH  15  25
HETATM   25  C   UNL     1      10.612  27.201  40.709  1.00  0.00     0.038 C 
BRANCH  25  26
HETATM   26  C   UNL     1      10.188  28.359  40.162  1.00  0.00     0.101 C 
HETATM   27  C   UNL     1       9.516  28.461  38.847  1.00  0.00     0.265 C 
HETATM   28  O   UNL     1       8.919  27.530  38.317  1.00  0.00    -0.267 OA
HETATM   29  N   UNL     1       9.516  29.709  38.293  1.00  0.00    -0.275 N 
HETATM   30  C   UNL     1       9.750  30.871  38.961  1.00  0.00     0.329 C 
HETATM   31  H   UNL     1       9.074  29.805  37.388  1.00  0.00     0.173 HD
HETATM   32  O   UNL     1       9.614  31.963  38.420  1.00  0.00    -0.246 OA
HETATM   33  N   UNL     1      10.146  30.763  40.258  1.00  0.00    -0.275 N 
HETATM   34  C   UNL     1      10.482  29.609  40.910  1.00  0.00     0.265 C 
HETATM   35  H   UNL     1      10.346  31.629  40.738  1.00  0.00     0.173 HD
HETATM   36  O   UNL     1      11.039  29.640  42.002  1.00  0.00    -0.267 OA
ENDBRANCH  25  26
ENDBRANCH  15  25
BRANCH  17  37
HETATM   37  O   UNL     1       9.120  27.442  43.123  1.00  0.00    -0.357 OA
HETATM   38  H   UNL     1       8.838  27.198  44.033  1.00  0.00     0.217 HD
ENDBRANCH  17  37
BRANCH  18  39
HETATM   39  O   UNL     1       7.870  25.434  44.270  1.00  0.00    -0.357 OA
HETATM   40  H   UNL     1       8.157  26.334  44.525  1.00  0.00     0.217 HD
ENDBRANCH  18  39
BRANCH  19  41
HETATM   41  C   UNL     1       7.604  22.804  43.146  1.00  0.00     0.014 C 
HETATM   42  C   UNL     1       6.285  22.372  42.484  1.00  0.00     0.015 C 
HETATM   43  C   UNL     1       8.532  21.608  43.363  1.00  0.00     0.015 C 
ENDBRANCH  19  41
ENDBRANCH   9  12
BRANCH  10  44
HETATM   44  O   UNL     1       8.843  24.141  36.023  1.00  0.00    -0.359 OA
HETATM   45  H   UNL     1       8.165  23.442  36.084  1.00  0.00     0.217 HD
ENDBRANCH  10  44
BRANCH   6  46
HETATM   46  C   UNL     1       9.233  25.200  33.614  1.00  0.00     0.038 C 
BRANCH  46  47
HETATM   47  C   UNL     1       9.349  26.535  33.455  1.00  0.00     0.101 C 
HETATM   48  C   UNL     1       9.895  27.319  34.593  1.00  0.00     0.265 C 
HETATM   49  N   UNL     1       9.757  28.672  34.477  1.00  0.00    -0.275 N 
HETATM   50  O   UNL     1      10.463  26.793  35.542  1.00  0.00    -0.267 OA
HETATM   51  C   UNL     1       9.282  29.347  33.394  1.00  0.00     0.329 C 
HETATM   52  H   UNL     1      10.154  29.237  35.218  1.00  0.00     0.173 HD
HETATM   53  N   UNL     1       8.773  28.598  32.374  1.00  0.00    -0.275 N 
HETATM   54  O   UNL     1       9.369  30.565  33.301  1.00  0.00    -0.246 OA
HETATM   55  C   UNL     1       8.948  27.256  32.231  1.00  0.00     0.265 C 
HETATM   56  H   UNL     1       8.538  29.136  31.549  1.00  0.00     0.173 HD
HETATM   57  O   UNL     1       8.924  26.684  31.140  1.00  0.00    -0.267 OA
ENDBRANCH  46  47
ENDBRANCH   6  46
BRANCH   3  58
HETATM   58  C   UNL     1      13.201  20.947  33.040  1.00  0.00     0.012 C 
HETATM   59  C   UNL     1      14.527  20.607  33.734  1.00  0.00     0.015 C 
HETATM   60  C   UNL     1      12.259  19.755  33.337  1.00  0.00     0.015 C 
ENDBRANCH   3  58
BRANCH   1  61
HETATM   61  O   UNL     1      10.648  24.539  31.123  1.00  0.00    -0.359 OA
HETATM   62  H   UNL     1      10.820  25.511  31.237  1.00  0.00     0.217 HD
ENDBRANCH   1  61
BRANCH   2  63
HETATM   63  O   UNL     1      12.652  23.179  30.976  1.00  0.00     0.000 OA
HETATM   64  H   UNL     1      12.887  24.141  30.795  1.00  0.00     0.000 HD
BRANCH  63  65
HETATM   65  O   UNL     1      12.233  22.362  29.911  1.00  0.00    -0.177 OA
BRANCH  65  66
HETATM   66  C   UNL     1      12.886  22.512  28.806  1.00  0.00     0.153 C 
HETATM   67  N   UNL     1      13.811  21.581  28.449  1.00  0.00    -0.359 N 
HETATM   68  C   UNL     1      14.534  22.014  27.269  1.00  0.00     0.125 C 
HETATM   69  C   UNL     1      13.603  23.046  26.644  1.00  0.00     0.028 C 
HETATM   70  C   UNL     1      12.835  23.635  27.823  1.00  0.00     0.088 C 
BRANCH  67  71
HETATM   71  C   UNL     1      14.204  20.403  29.234  1.00  0.00     0.077 C 
HETATM   72  C   UNL     1      14.427  19.189  28.335  1.00  0.00     0.032 C 
HETATM   73  C   UNL     1      15.428  20.681  30.103  1.00  0.00     0.032 C 
ENDBRANCH  67  71
ENDBRANCH  65  66
ENDBRANCH  63  65
ENDBRANCH   2  63
TORSDOF 16
ENDMDL
MODEL 4
REMARK VINA RESULT:    -8.981      1.788      2.560
REMARK INTER + INTRA:         -20.998
REMARK INTER:                 -16.886
REMARK INTRA:                  -4.113
REMARK UNBOUND:                -4.930
REMARK  16 active torsions:
REMARK  status: ('A' for Active; 'I' for Inactive)
REMARK    1  A    between atoms: C_2  and  O_4 
REMARK    2  A    between atoms: N_3  and  C_5 
REMARK    3  A    between atoms: O_4  and  O_22 
REMARK    4  A    between atoms: C_8  and  O_23 
REMARK    5  A    between atoms: C_9  and  O_22 
REMARK    6  A    between atoms: C_10  and  C_19 
REMARK    7  A    between atoms: C_13  and  C_24 
REMARK    8  A    between atoms: C_16  and  C_61 
REMARK    9  A    between atoms: C_17  and  O_25 
REMARK   10  A    between atoms: C_24  and  C_28 
REMARK   11  A    between atoms: C_41  and  C_45 
REMARK   12  A    between atoms: C_45  and  C_52 
REMARK   13  A    between atoms: O_46  and  C_53 
REMARK   14  A    between atoms: O_47  and  C_54 
REMARK   15  A    between atoms: C_50  and  C_55 
REMARK   16  A    between atoms: O_51  and  C_56 
ROOT
HETATM    1  C   UNL     1      10.642  24.610  32.705  1.00  0.00     0.088 C 
HETATM    2  C   UNL     1      11.765  23.786  32.656  1.00  0.00     0.019 C 
HETATM    3  C   UNL     1      12.403  23.375  33.849  1.00  0.00    -0.029 C 
HETATM    4  C   UNL     1      12.051  24.093  35.047  1.00  0.00    -0.014 C 
HETATM    5  C   UNL     1      10.863  24.888  35.105  1.00  0.00     0.022 C 
HETATM    6  C   UNL     1      10.146  25.148  33.890  1.00  0.00     0.013 C 
HETATM    7  C   UNL     1      12.877  24.126  36.195  1.00  0.00     0.020 C 
HETATM    8  C   UNL     1      12.550  24.779  37.398  1.00  0.00    -0.047 C 
HETATM    9  C   UNL     1      11.290  25.368  37.535  1.00  0.00     0.017 C 
HETATM   10  C   UNL     1      10.465  25.394  36.390  1.00  0.00     0.089 C 
HETATM   11  C   UNL     1      13.563  24.762  38.519  1.00  0.00     0.049 C 
ENDROOT
BRANCH   9  12
HETATM   12  C   UNL     1      10.859  25.966  38.825  1.00  0.00     0.017 A 
HETATM   13  C   UNL     1      11.088  27.334  39.119  1.00  0.00     0.089 A 
HETATM   14  C   UNL     1      10.679  27.976  40.338  1.00  0.00     0.022 A 
HETATM   15  C   UNL     1      10.793  29.385  40.600  1.00  0.00     0.015 A 
HETATM   16  C   UNL     1      10.112  27.142  41.353  1.00  0.00    -0.012 A 
HETATM   17  C   UNL     1      10.363  29.892  41.826  1.00  0.00     0.110 A 
HETATM   18  C   UNL     1       9.897  29.060  42.833  1.00  0.00     0.107 A 
HETATM   19  C   UNL     1       9.792  27.678  42.647  1.00  0.00    -0.007 A 
HETATM   20  C   UNL     1       9.863  25.787  41.022  1.00  0.00     0.020 A 
HETATM   21  C   UNL     1      10.184  25.203  39.785  1.00  0.00    -0.047 A 
HETATM   22  C   UNL     1       9.816  23.757  39.569  1.00  0.00     0.049 C 
BRANCH  13  23
HETATM   23  O   UNL     1      11.739  28.099  38.171  1.00  0.00    -0.359 OA
HETATM   24  H   UNL     1      11.861  29.004  38.500  1.00  0.00     0.217 HD
ENDBRANCH  13  23
BRANCH  15  25
HETATM   25  C   UNL     1      11.379  30.314  39.605  1.00  0.00     0.038 C 
BRANCH  25  26
HETATM   26  C   UNL     1      10.750  31.238  38.850  1.00  0.00     0.101 C 
HETATM   27  C   UNL     1       9.685  30.928  37.870  1.00  0.00     0.265 C 
HETATM   28  O   UNL     1       8.991  29.919  37.920  1.00  0.00    -0.267 OA
HETATM   29  N   UNL     1       9.451  31.904  36.943  1.00  0.00    -0.275 N 
HETATM   30  C   UNL     1       9.836  33.204  37.048  1.00  0.00     0.329 C 
HETATM   31  H   UNL     1       8.736  31.713  36.253  1.00  0.00     0.173 HD
HETATM   32  O   UNL     1       9.484  34.048  36.231  1.00  0.00    -0.246 OA
HETATM   33  N   UNL     1      10.635  33.523  38.103  1.00  0.00    -0.275 N 
HETATM   34  C   UNL     1      11.215  32.645  38.975  1.00  0.00     0.265 C 
HETATM   35  H   UNL     1      10.941  34.484  38.157  1.00  0.00     0.173 HD
HETATM   36  O   UNL     1      12.092  33.011  39.750  1.00  0.00    -0.267 OA
ENDBRANCH  25  26
ENDBRANCH  15  25
BRANCH  17  37
HETATM   37  O   UNL     1      10.311  31.242  42.076  1.00  0.00    -0.357 OA
HETATM   38  H   UNL     1      10.156  31.631  41.185  1.00  0.00     0.217 HD
ENDBRANCH  17  37
BRANCH  18  39
HETATM   39  O   UNL     1       9.500  29.648  44.003  1.00  0.00    -0.357 OA
HETATM   40  H   UNL     1       8.575  29.931  43.853  1.00  0.00     0.217 HD
ENDBRANCH  18  39
BRANCH  19  41
HETATM   41  C   UNL     1       9.324  26.788  43.807  1.00  0.00     0.014 C 
HETATM   42  C   UNL     1       8.117  25.894  43.481  1.00  0.00     0.015 C 
HETATM   43  C   UNL     1      10.483  25.966  44.376  1.00  0.00     0.015 C 
ENDBRANCH  19  41
ENDBRANCH   9  12
BRANCH  10  44
HETATM   44  O   UNL     1       9.181  25.891  36.500  1.00  0.00    -0.359 OA
HETATM   45  H   UNL     1       8.530  25.164  36.535  1.00  0.00     0.217 HD
ENDBRANCH  10  44
BRANCH   6  46
HETATM   46  C   UNL     1       9.063  26.165  33.857  1.00  0.00     0.038 C 
BRANCH  46  47
HETATM   47  C   UNL     1       9.084  27.443  33.426  1.00  0.00     0.101 C 
HETATM   48  C   UNL     1       9.511  28.488  34.392  1.00  0.00     0.265 C 
HETATM   49  N   UNL     1       9.277  29.771  33.991  1.00  0.00    -0.275 N 
HETATM   50  O   UNL     1      10.069  28.219  35.449  1.00  0.00    -0.267 OA
HETATM   51  C   UNL     1       8.806  30.166  32.775  1.00  0.00     0.329 C 
HETATM   52  H   UNL     1       9.592  30.509  34.609  1.00  0.00     0.173 HD
HETATM   53  N   UNL     1       8.407  29.183  31.919  1.00  0.00    -0.275 N 
HETATM   54  O   UNL     1       8.805  31.342  32.432  1.00  0.00    -0.246 OA
HETATM   55  C   UNL     1       8.691  27.859  32.066  1.00  0.00     0.265 C 
HETATM   56  H   UNL     1       8.173  29.516  30.992  1.00  0.00     0.173 HD
HETATM   57  O   UNL     1       8.765  27.075  31.119  1.00  0.00    -0.267 OA
ENDBRANCH  46  47
ENDBRANCH   6  46
BRANCH   3  58
HETATM   58  C   UNL     1      13.219  22.055  33.842  1.00  0.00     0.012 C 
HETATM   59  C   UNL     1      14.656  21.976  34.375  1.00  0.00     0.015 C 
HETATM   60  C   UNL     1      12.427  20.976  34.619  1.00  0.00     0.015 C 
ENDBRANCH   3  58
BRANCH   1  61
HETATM   61  O   UNL     1      10.082  24.807  31.458  1.00  0.00    -0.359 OA
HETATM   62  H   UNL     1      10.537  24.181  30.834  1.00  0.00     0.217 HD
ENDBRANCH   1  61
BRANCH   2  63
HETATM   63  O   UNL     1      12.139  23.524  31.349  1.00  0.00     0.000 OA
HETATM   64  H   UNL     1      12.303  24.390  30.860  1.00  0.00     0.000 HD
BRANCH  63  65
HETATM   65  O   UNL     1      11.569  22.442  30.655  1.00  0.00    -0.177 OA
BRANCH  65  66
HETATM   66  C   UNL     1      12.405  21.550  30.235  1.00  0.00     0.153 C 
HETATM   67  N   UNL     1      13.206  21.839  29.174  1.00  0.00    -0.359 N 
HETATM   68  C   UNL     1      13.949  20.660  28.768  1.00  0.00     0.125 C 
HETATM   69  C   UNL     1      13.914  19.776  30.009  1.00  0.00     0.028 C 
HETATM   70  C   UNL     1      12.611  20.150  30.710  1.00  0.00     0.088 C 
BRANCH  67  71
HETATM   71  C   UNL     1      13.193  23.078  28.388  1.00  0.00     0.077 C 
HETATM   72  C   UNL     1      14.176  23.005  27.222  1.00  0.00     0.032 C 
HETATM   73  C   UNL     1      11.788  23.432  27.905  1.00  0.00     0.032 C 
ENDBRANCH  67  71
ENDBRANCH  65  66
ENDBRANCH  63  65
ENDBRANCH   2  63
TORSDOF 16
ENDMDL
MODEL 5
REMARK VINA RESULT:    -8.719      2.839      5.164
REMARK INTER + INTRA:         -20.531
REMARK INTER:                 -17.133
REMARK INTRA:                  -3.398
REMARK UNBOUND:                -4.930
REMARK  16 active torsions:
REMARK  status: ('A' for Active; 'I' for Inactive)
REMARK    1  A    between atoms: C_2  and  O_4 
REMARK    2  A    between atoms: N_3  and  C_5 
REMARK    3  A    between atoms: O_4  and  O_22 
REMARK    4  A    between atoms: C_8  and  O_23 
REMARK    5  A    between atoms: C_9  and  O_22 
REMARK    6  A    between atoms: C_10  and  C_19 
REMARK    7  A    between atoms: C_13  and  C_24 
REMARK    8  A    between atoms: C_16  and  C_61 
REMARK    9  A    between atoms: C_17  and  O_25 
REMARK   10  A    between atoms: C_24  and  C_28 
REMARK   11  A    between atoms: C_41  and  C_45 
REMARK   12  A    between atoms: C_45  and  C_52 
REMARK   13  A    between atoms: O_46  and  C_53 
REMARK   14  A    between atoms: O_47  and  C_54 
REMARK   15  A    between atoms: C_50  and  C_55 
REMARK   16  A    between atoms: O_51  and  C_56 
ROOT
HETATM    1  C   UNL     1      13.628  21.310  33.403  1.00  0.00     0.088 C 
HETATM    2  C   UNL     1      13.128  22.171  32.430  1.00  0.00     0.019 C 
HETATM    3  C   UNL     1      12.156  23.142  32.765  1.00  0.00    -0.029 C 
HETATM    4  C   UNL     1      11.494  22.979  34.033  1.00  0.00    -0.014 C 
HETATM    5  C   UNL     1      12.049  22.138  35.049  1.00  0.00     0.022 C 
HETATM    6  C   UNL     1      13.149  21.281  34.712  1.00  0.00     0.013 C 
HETATM    7  C   UNL     1      10.238  23.559  34.325  1.00  0.00     0.020 C 
HETATM    8  C   UNL     1       9.578  23.459  35.564  1.00  0.00    -0.047 C 
HETATM    9  C   UNL     1      10.222  22.826  36.632  1.00  0.00     0.017 C 
HETATM   10  C   UNL     1      11.453  22.194  36.355  1.00  0.00     0.089 C 
HETATM   11  C   UNL     1       8.216  24.098  35.704  1.00  0.00     0.049 C 
ENDROOT
BRANCH   9  12
HETATM   12  C   UNL     1       9.613  22.798  37.987  1.00  0.00     0.017 A 
HETATM   13  C   UNL     1       9.911  23.793  38.952  1.00  0.00     0.089 A 
HETATM   14  C   UNL     1       9.341  23.832  40.271  1.00  0.00     0.022 A 
HETATM   15  C   UNL     1       9.537  24.899  41.216  1.00  0.00     0.015 A 
HETATM   16  C   UNL     1       8.517  22.729  40.656  1.00  0.00    -0.012 A 
HETATM   17  C   UNL     1       8.932  24.822  42.470  1.00  0.00     0.110 A 
HETATM   18  C   UNL     1       8.208  23.706  42.861  1.00  0.00     0.107 A 
HETATM   19  C   UNL     1       8.009  22.626  41.996  1.00  0.00    -0.007 A 
HETATM   20  C   UNL     1       8.208  21.766  39.664  1.00  0.00     0.020 A 
HETATM   21  C   UNL     1       8.700  21.800  38.348  1.00  0.00    -0.047 A 
HETATM   22  C   UNL     1       8.244  20.725  37.393  1.00  0.00     0.049 C 
BRANCH  13  23
HETATM   23  O   UNL     1      10.799  24.790  38.600  1.00  0.00    -0.359 OA
HETATM   24  H   UNL     1      11.583  24.403  38.179  1.00  0.00     0.217 HD
ENDBRANCH  13  23
BRANCH  15  25
HETATM   25  C   UNL     1      10.385  26.071  40.897  1.00  0.00     0.038 C 
BRANCH  25  26
HETATM   26  C   UNL     1      10.001  27.338  40.637  1.00  0.00     0.101 C 
HETATM   27  C   UNL     1       9.479  27.798  39.330  1.00  0.00     0.265 C 
HETATM   28  O   UNL     1       8.968  27.050  38.504  1.00  0.00    -0.267 OA
HETATM   29  N   UNL     1       9.515  29.149  39.137  1.00  0.00    -0.275 N 
HETATM   30  C   UNL     1       9.646  30.085  40.116  1.00  0.00     0.329 C 
HETATM   31  H   UNL     1       9.176  29.491  38.247  1.00  0.00     0.173 HD
HETATM   32  O   UNL     1       9.547  31.284  39.877  1.00  0.00    -0.246 OA
HETATM   33  N   UNL     1       9.894  29.627  41.373  1.00  0.00    -0.275 N 
HETATM   34  C   UNL     1      10.180  28.337  41.723  1.00  0.00     0.265 C 
HETATM   35  H   UNL     1      10.019  30.329  42.088  1.00  0.00     0.173 HD
HETATM   36  O   UNL     1      10.609  28.066  42.840  1.00  0.00    -0.267 OA
ENDBRANCH  25  26
ENDBRANCH  15  25
BRANCH  17  37
HETATM   37  O   UNL     1       8.962  25.873  43.355  1.00  0.00    -0.357 OA
HETATM   38  H   UNL     1       8.027  25.946  43.652  1.00  0.00     0.217 HD
ENDBRANCH  17  37
BRANCH  18  39
HETATM   39  O   UNL     1       7.654  23.722  44.112  1.00  0.00    -0.357 OA
HETATM   40  H   UNL     1       7.327  22.813  44.265  1.00  0.00     0.217 HD
ENDBRANCH  18  39
BRANCH  19  41
HETATM   41  C   UNL     1       7.249  21.387  42.489  1.00  0.00     0.014 C 
HETATM   42  C   UNL     1       7.971  20.588  43.586  1.00  0.00     0.015 C 
HETATM   43  C   UNL     1       5.823  21.745  42.912  1.00  0.00     0.015 C 
ENDBRANCH  19  41
ENDBRANCH   9  12
BRANCH  10  44
HETATM   44  O   UNL     1      12.164  21.628  37.396  1.00  0.00    -0.359 OA
HETATM   45  H   UNL     1      11.873  20.710  37.555  1.00  0.00     0.217 HD
ENDBRANCH  10  44
BRANCH   6  46
HETATM   46  C   UNL     1      13.591  20.217  35.650  1.00  0.00     0.038 C 
BRANCH  46  47
HETATM   47  C   UNL     1      13.543  18.874  35.526  1.00  0.00     0.101 C 
HETATM   48  C   UNL     1      14.462  18.072  36.374  1.00  0.00     0.265 C 
HETATM   49  N   UNL     1      14.552  16.753  36.034  1.00  0.00    -0.275 N 
HETATM   50  O   UNL     1      15.061  18.548  37.330  1.00  0.00    -0.267 OA
HETATM   51  C   UNL     1      13.811  16.108  35.090  1.00  0.00     0.329 C 
HETATM   52  H   UNL     1      15.140  16.169  36.616  1.00  0.00     0.173 HD
HETATM   53  N   UNL     1      12.989  16.876  34.319  1.00  0.00    -0.275 N 
HETATM   54  O   UNL     1      13.821  14.888  34.981  1.00  0.00    -0.246 OA
HETATM   55  C   UNL     1      12.648  18.166  34.590  1.00  0.00     0.265 C 
HETATM   56  H   UNL     1      12.379  16.342  33.713  1.00  0.00     0.173 HD
HETATM   57  O   UNL     1      11.596  18.681  34.210  1.00  0.00    -0.267 OA
ENDBRANCH  46  47
ENDBRANCH   6  46
BRANCH   3  58
HETATM   58  C   UNL     1      12.051  24.422  31.895  1.00  0.00     0.012 C 
HETATM   59  C   UNL     1      10.704  24.981  31.417  1.00  0.00     0.015 C 
HETATM   60  C   UNL     1      12.744  25.589  32.640  1.00  0.00     0.015 C 
ENDBRANCH   3  58
BRANCH   1  61
HETATM   61  O   UNL     1      14.653  20.516  32.926  1.00  0.00    -0.359 OA
HETATM   62  H   UNL     1      15.082  20.091  33.715  1.00  0.00     0.217 HD
ENDBRANCH   1  61
BRANCH   2  63
HETATM   63  O   UNL     1      13.661  21.884  31.184  1.00  0.00     0.000 OA
HETATM   64  H   UNL     1      14.456  22.478  31.008  1.00  0.00     0.000 HD
BRANCH  63  65
HETATM   65  O   UNL     1      12.815  21.534  30.118  1.00  0.00    -0.177 OA
BRANCH  65  66
HETATM   66  C   UNL     1      13.013  22.180  29.016  1.00  0.00     0.153 C 
HETATM   67  N   UNL     1      13.980  21.753  28.160  1.00  0.00    -0.359 N 
HETATM   68  C   UNL     1      14.145  22.699  27.072  1.00  0.00     0.125 C 
HETATM   69  C   UNL     1      12.828  23.466  27.070  1.00  0.00     0.028 C 
HETATM   70  C   UNL     1      12.359  23.428  28.521  1.00  0.00     0.088 C 
BRANCH  67  71
HETATM   71  C   UNL     1      14.896  20.626  28.378  1.00  0.00     0.077 C 
HETATM   72  C   UNL     1      14.935  19.702  27.164  1.00  0.00     0.032 C 
HETATM   73  C   UNL     1      16.298  21.097  28.761  1.00  0.00     0.032 C 
ENDBRANCH  67  71
ENDBRANCH  65  66
ENDBRANCH  63  65
ENDBRANCH   2  63
TORSDOF 16
ENDMDL
MODEL 6
REMARK VINA RESULT:    -8.667     15.616     20.060
REMARK INTER + INTRA:         -20.437
REMARK INTER:                 -15.358
REMARK INTRA:                  -5.079
REMARK UNBOUND:                -4.930
REMARK  16 active torsions:
REMARK  status: ('A' for Active; 'I' for Inactive)
REMARK    1  A    between atoms: C_2  and  O_4 
REMARK    2  A    between atoms: N_3  and  C_5 
REMARK    3  A    between atoms: O_4  and  O_22 
REMARK    4  A    between atoms: C_8  and  O_23 
REMARK    5  A    between atoms: C_9  and  O_22 
REMARK    6  A    between atoms: C_10  and  C_19 
REMARK    7  A    between atoms: C_13  and  C_24 
REMARK    8  A    between atoms: C_16  and  C_61 
REMARK    9  A    between atoms: C_17  and  O_25 
REMARK   10  A    between atoms: C_24  and  C_28 
REMARK   11  A    between atoms: C_41  and  C_45 
REMARK   12  A    between atoms: C_45  and  C_52 
REMARK   13  A    between atoms: O_46  and  C_53 
REMARK   14  A    between atoms: O_47  and  C_54 
REMARK   15  A    between atoms: C_50  and  C_55 
REMARK   16  A    between atoms: O_51  and  C_56 
ROOT
HETATM    1  C   UNL     1      -4.559  25.648  39.472  1.00  0.00     0.088 C 
HETATM    2  C   UNL     1      -4.493  26.155  40.768  1.00  0.00     0.019 C 
HETATM    3  C   UNL     1      -5.032  25.423  41.851  1.00  0.00    -0.029 C 
HETATM    4  C   UNL     1      -5.912  24.333  41.516  1.00  0.00    -0.014 C 
HETATM    5  C   UNL     1      -5.928  23.780  40.197  1.00  0.00     0.022 C 
HETATM    6  C   UNL     1      -5.228  24.468  39.151  1.00  0.00     0.013 C 
HETATM    7  C   UNL     1      -6.856  23.800  42.424  1.00  0.00     0.020 C 
HETATM    8  C   UNL     1      -7.703  22.710  42.151  1.00  0.00    -0.047 C 
HETATM    9  C   UNL     1      -7.565  22.023  40.941  1.00  0.00     0.017 C 
HETATM   10  C   UNL     1      -6.666  22.563  39.996  1.00  0.00     0.089 C 
HETATM   11  C   UNL     1      -8.693  22.289  43.212  1.00  0.00     0.049 C 
ENDROOT
BRANCH   9  12
HETATM   12  C   UNL     1      -8.356  20.799  40.659  1.00  0.00     0.017 A 
HETATM   13  C   UNL     1      -9.587  20.858  39.957  1.00  0.00     0.089 A 
HETATM   14  C   UNL     1     -10.388  19.709  39.637  1.00  0.00     0.022 A 
HETATM   15  C   UNL     1     -11.572  19.739  38.821  1.00  0.00     0.015 A 
HETATM   16  C   UNL     1      -9.962  18.452  40.167  1.00  0.00    -0.012 A 
HETATM   17  C   UNL     1     -12.270  18.555  38.582  1.00  0.00     0.110 A 
HETATM   18  C   UNL     1     -11.895  17.358  39.174  1.00  0.00     0.107 A 
HETATM   19  C   UNL     1     -10.770  17.275  40.001  1.00  0.00    -0.007 A 
HETATM   20  C   UNL     1      -8.714  18.413  40.836  1.00  0.00     0.020 A 
HETATM   21  C   UNL     1      -7.898  19.536  41.053  1.00  0.00    -0.047 A 
HETATM   22  C   UNL     1      -6.574  19.326  41.744  1.00  0.00     0.049 C 
BRANCH  13  23
HETATM   23  O   UNL     1     -10.039  22.098  39.550  1.00  0.00    -0.359 OA
HETATM   24  H   UNL     1      -9.290  22.656  39.287  1.00  0.00     0.217 HD
ENDBRANCH  13  23
BRANCH  15  25
HETATM   25  C   UNL     1     -12.085  21.004  38.243  1.00  0.00     0.038 C 
BRANCH  25  26
HETATM   26  C   UNL     1     -11.725  21.605  37.091  1.00  0.00     0.101 C 
HETATM   27  C   UNL     1     -11.290  20.881  35.874  1.00  0.00     0.265 C 
HETATM   28  O   UNL     1     -11.586  19.715  35.638  1.00  0.00    -0.267 OA
HETATM   29  N   UNL     1     -10.606  21.637  34.965  1.00  0.00    -0.275 N 
HETATM   30  C   UNL     1     -10.598  22.996  34.914  1.00  0.00     0.329 C 
HETATM   31  H   UNL     1     -10.286  21.164  34.130  1.00  0.00     0.173 HD
HETATM   32  O   UNL     1     -10.058  23.602  33.994  1.00  0.00    -0.246 OA
HETATM   33  N   UNL     1     -11.216  23.652  35.933  1.00  0.00    -0.275 N 
HETATM   34  C   UNL     1     -11.706  23.091  37.079  1.00  0.00     0.265 C 
HETATM   35  H   UNL     1     -11.179  24.661  35.902  1.00  0.00     0.173 HD
HETATM   36  O   UNL     1     -12.039  23.789  38.031  1.00  0.00    -0.267 OA
ENDBRANCH  25  26
ENDBRANCH  15  25
BRANCH  17  37
HETATM   37  O   UNL     1     -13.318  18.496  37.696  1.00  0.00    -0.357 OA
HETATM   38  H   UNL     1     -13.807  17.690  37.977  1.00  0.00     0.217 HD
ENDBRANCH  17  37
BRANCH  18  39
HETATM   39  O   UNL     1     -12.642  16.250  38.883  1.00  0.00    -0.357 OA
HETATM   40  H   UNL     1     -12.778  15.793  39.737  1.00  0.00     0.217 HD
ENDBRANCH  18  39
BRANCH  19  41
HETATM   41  C   UNL     1     -10.423  15.943  40.681  1.00  0.00     0.014 C 
HETATM   42  C   UNL     1     -11.407  15.512  41.781  1.00  0.00     0.015 C 
HETATM   43  C   UNL     1     -10.224  14.831  39.650  1.00  0.00     0.015 C 
ENDBRANCH  19  41
ENDBRANCH   9  12
BRANCH  10  44
HETATM   44  O   UNL     1      -6.435  21.874  38.821  1.00  0.00    -0.359 OA
HETATM   45  H   UNL     1      -5.478  21.743  38.679  1.00  0.00     0.217 HD
ENDBRANCH  10  44
BRANCH   6  46
HETATM   46  C   UNL     1      -5.422  24.078  37.730  1.00  0.00     0.038 C 
BRANCH  46  47
HETATM   47  C   UNL     1      -6.013  24.747  36.719  1.00  0.00     0.101 C 
HETATM   48  C   UNL     1      -7.492  24.657  36.607  1.00  0.00     0.265 C 
HETATM   49  N   UNL     1      -8.009  25.136  35.438  1.00  0.00    -0.275 N 
HETATM   50  O   UNL     1      -8.196  24.224  37.510  1.00  0.00    -0.267 OA
HETATM   51  C   UNL     1      -7.322  25.772  34.448  1.00  0.00     0.329 C 
HETATM   52  H   UNL     1      -9.018  25.125  35.345  1.00  0.00     0.173 HD
HETATM   53  N   UNL     1      -5.965  25.822  34.575  1.00  0.00    -0.275 N 
HETATM   54  O   UNL     1      -7.892  26.337  33.523  1.00  0.00    -0.246 OA
HETATM   55  C   UNL     1      -5.277  25.541  35.716  1.00  0.00     0.265 C 
HETATM   56  H   UNL     1      -5.510  26.400  33.878  1.00  0.00     0.173 HD
HETATM   57  O   UNL     1      -4.176  26.025  35.978  1.00  0.00    -0.267 OA
ENDBRANCH  46  47
ENDBRANCH   6  46
BRANCH   3  58
HETATM   58  C   UNL     1      -4.459  25.664  43.273  1.00  0.00     0.012 C 
HETATM   59  C   UNL     1      -5.344  26.092  44.452  1.00  0.00     0.015 C 
HETATM   60  C   UNL     1      -3.733  24.380  43.742  1.00  0.00     0.015 C 
ENDBRANCH   3  58
BRANCH   1  61
HETATM   61  O   UNL     1      -3.876  26.435  38.566  1.00  0.00    -0.359 OA
HETATM   62  H   UNL     1      -3.472  27.184  39.079  1.00  0.00     0.217 HD
ENDBRANCH   1  61
BRANCH   2  63
HETATM   63  O   UNL     1      -3.914  27.413  40.786  1.00  0.00     0.000 OA
HETATM   64  H   UNL     1      -4.469  28.052  40.239  1.00  0.00     0.000 HD
BRANCH  63  65
HETATM   65  O   UNL     1      -2.515  27.547  40.787  1.00  0.00    -0.177 OA
BRANCH  65  66
HETATM   66  C   UNL     1      -1.985  27.827  41.932  1.00  0.00     0.153 C 
HETATM   67  N   UNL     1      -0.923  27.098  42.368  1.00  0.00    -0.359 N 
HETATM   68  C   UNL     1      -0.583  27.466  43.731  1.00  0.00     0.125 C 
HETATM   69  C   UNL     1      -1.204  28.849  43.886  1.00  0.00     0.028 C 
HETATM   70  C   UNL     1      -2.405  28.840  42.946  1.00  0.00     0.088 C 
BRANCH  67  71
HETATM   71  C   UNL     1      -0.318  25.950  41.682  1.00  0.00     0.077 C 
HETATM   72  C   UNL     1       1.072  26.292  41.151  1.00  0.00     0.032 C 
HETATM   73  C   UNL     1      -0.280  24.709  42.573  1.00  0.00     0.032 C 
ENDBRANCH  67  71
ENDBRANCH  65  66
ENDBRANCH  63  65
ENDBRANCH   2  63
TORSDOF 16
ENDMDL
MODEL 7
REMARK VINA RESULT:    -8.467      2.880      9.850
REMARK INTER + INTRA:         -20.079
REMARK INTER:                 -15.994
REMARK INTRA:                  -4.085
REMARK UNBOUND:                -4.930
REMARK  16 active torsions:
REMARK  status: ('A' for Active; 'I' for Inactive)
REMARK    1  A    between atoms: C_2  and  O_4 
REMARK    2  A    between atoms: N_3  and  C_5 
REMARK    3  A    between atoms: O_4  and  O_22 
REMARK    4  A    between atoms: C_8  and  O_23 
REMARK    5  A    between atoms: C_9  and  O_22 
REMARK    6  A    between atoms: C_10  and  C_19 
REMARK    7  A    between atoms: C_13  and  C_24 
REMARK    8  A    between atoms: C_16  and  C_61 
REMARK    9  A    between atoms: C_17  and  O_25 
REMARK   10  A    between atoms: C_24  and  C_28 
REMARK   11  A    between atoms: C_41  and  C_45 
REMARK   12  A    between atoms: C_45  and  C_52 
REMARK   13  A    between atoms: O_46  and  C_53 
REMARK   14  A    between atoms: O_47  and  C_54 
REMARK   15  A    between atoms: C_50  and  C_55 
REMARK   16  A    between atoms: O_51  and  C_56 
ROOT
HETATM    1  C   UNL     1      11.829  31.418  39.025  1.00  0.00     0.088 C 
HETATM    2  C   UNL     1      13.035  31.408  39.721  1.00  0.00     0.019 C 
HETATM    3  C   UNL     1      13.741  30.198  39.914  1.00  0.00    -0.029 C 
HETATM    4  C   UNL     1      13.014  28.982  39.657  1.00  0.00    -0.014 C 
HETATM    5  C   UNL     1      11.807  28.995  38.889  1.00  0.00     0.022 C 
HETATM    6  C   UNL     1      11.205  30.257  38.570  1.00  0.00     0.013 C 
HETATM    7  C   UNL     1      13.389  27.732  40.202  1.00  0.00     0.020 C 
HETATM    8  C   UNL     1      12.732  26.515  39.943  1.00  0.00    -0.047 C 
HETATM    9  C   UNL     1      11.687  26.487  39.014  1.00  0.00     0.017 C 
HETATM   10  C   UNL     1      11.258  27.727  38.493  1.00  0.00     0.089 C 
HETATM   11  C   UNL     1      13.228  25.270  40.641  1.00  0.00     0.049 C 
ENDROOT
BRANCH   9  12
HETATM   12  C   UNL     1      11.042  25.208  38.623  1.00  0.00     0.017 A 
HETATM   13  C   UNL     1      11.338  24.576  37.389  1.00  0.00     0.089 A 
HETATM   14  C   UNL     1      10.763  23.330  36.963  1.00  0.00     0.022 A 
HETATM   15  C   UNL     1      11.145  22.617  35.774  1.00  0.00     0.015 A 
HETATM   16  C   UNL     1       9.745  22.767  37.793  1.00  0.00    -0.012 A 
HETATM   17  C   UNL     1      10.511  21.414  35.462  1.00  0.00     0.110 A 
HETATM   18  C   UNL     1       9.464  20.925  36.230  1.00  0.00     0.107 A 
HETATM   19  C   UNL     1       9.029  21.591  37.380  1.00  0.00    -0.007 A 
HETATM   20  C   UNL     1       9.490  23.398  39.035  1.00  0.00     0.020 A 
HETATM   21  C   UNL     1      10.136  24.565  39.476  1.00  0.00    -0.047 A 
HETATM   22  C   UNL     1       9.787  25.094  40.845  1.00  0.00     0.049 C 
BRANCH  13  23
HETATM   23  O   UNL     1      12.242  25.195  36.548  1.00  0.00    -0.359 OA
HETATM   24  H   UNL     1      12.356  26.123  36.807  1.00  0.00     0.217 HD
ENDBRANCH  13  23
BRANCH  15  25
HETATM   25  C   UNL     1      12.185  23.139  34.856  1.00  0.00     0.038 C 
BRANCH  25  26
HETATM   26  C   UNL     1      12.031  23.631  33.609  1.00  0.00     0.101 C 
HETATM   27  C   UNL     1      11.291  24.873  33.290  1.00  0.00     0.265 C 
HETATM   28  O   UNL     1      11.099  25.774  34.099  1.00  0.00    -0.267 OA
HETATM   29  N   UNL     1      10.911  25.000  31.984  1.00  0.00    -0.275 N 
HETATM   30  C   UNL     1      11.429  24.302  30.939  1.00  0.00     0.329 C 
HETATM   31  H   UNL     1      10.393  25.834  31.740  1.00  0.00     0.173 HD
HETATM   32  O   UNL     1      11.124  24.557  29.779  1.00  0.00    -0.246 OA
HETATM   33  N   UNL     1      12.303  23.303  31.241  1.00  0.00    -0.275 N 
HETATM   34  C   UNL     1      12.591  22.829  32.490  1.00  0.00     0.265 C 
HETATM   35  H   UNL     1      12.660  22.770  30.461  1.00  0.00     0.173 HD
HETATM   36  O   UNL     1      13.215  21.784  32.641  1.00  0.00    -0.267 OA
ENDBRANCH  25  26
ENDBRANCH  15  25
BRANCH  17  37
HETATM   37  O   UNL     1      10.932  20.618  34.425  1.00  0.00    -0.357 OA
HETATM   38  H   UNL     1      10.687  21.139  33.627  1.00  0.00     0.217 HD
ENDBRANCH  17  37
BRANCH  18  39
HETATM   39  O   UNL     1       8.902  19.739  35.844  1.00  0.00    -0.357 OA
HETATM   40  H   UNL     1       9.619  19.076  35.906  1.00  0.00     0.217 HD
ENDBRANCH  18  39
BRANCH  19  41
HETATM   41  C   UNL     1       7.832  21.044  38.168  1.00  0.00     0.014 C 
HETATM   42  C   UNL     1       8.189  20.436  39.535  1.00  0.00     0.015 C 
HETATM   43  C   UNL     1       6.730  22.097  38.303  1.00  0.00     0.015 C 
ENDBRANCH  19  41
ENDBRANCH   9  12
BRANCH  10  44
HETATM   44  O   UNL     1      10.286  27.741  37.512  1.00  0.00    -0.359 OA
HETATM   45  H   UNL     1      10.686  27.868  36.630  1.00  0.00     0.217 HD
ENDBRANCH  10  44
BRANCH   6  46
HETATM   46  C   UNL     1       9.834  30.316  38.001  1.00  0.00     0.038 C 
BRANCH  46  47
HETATM   47  C   UNL     1       9.342  31.070  36.996  1.00  0.00     0.101 C 
HETATM   48  C   UNL     1       9.150  30.417  35.675  1.00  0.00     0.265 C 
HETATM   49  N   UNL     1       8.895  31.272  34.643  1.00  0.00    -0.275 N 
HETATM   50  O   UNL     1       9.179  29.201  35.532  1.00  0.00    -0.267 OA
HETATM   51  C   UNL     1       8.693  32.616  34.736  1.00  0.00     0.329 C 
HETATM   52  H   UNL     1       8.720  30.856  33.736  1.00  0.00     0.173 HD
HETATM   53  N   UNL     1       8.893  33.186  35.959  1.00  0.00    -0.275 N 
HETATM   54  O   UNL     1       8.282  33.277  33.790  1.00  0.00    -0.246 OA
HETATM   55  C   UNL     1       9.005  32.501  37.130  1.00  0.00     0.265 C 
HETATM   56  H   UNL     1       8.623  34.161  36.005  1.00  0.00     0.173 HD
HETATM   57  O   UNL     1       8.708  32.980  38.224  1.00  0.00    -0.267 OA
ENDBRANCH  46  47
ENDBRANCH   6  46
BRANCH   3  58
HETATM   58  C   UNL     1      15.276  30.257  40.130  1.00  0.00     0.012 C 
HETATM   59  C   UNL     1      16.157  31.325  39.468  1.00  0.00     0.015 C 
HETATM   60  C   UNL     1      15.561  30.366  41.648  1.00  0.00     0.015 C 
ENDBRANCH   3  58
BRANCH   1  61
HETATM   61  O   UNL     1      11.347  32.697  38.828  1.00  0.00    -0.359 OA
HETATM   62  H   UNL     1      11.881  33.097  38.091  1.00  0.00     0.217 HD
ENDBRANCH   1  61
BRANCH   2  63
HETATM   63  O   UNL     1      13.350  32.671  40.196  1.00  0.00     0.000 OA
HETATM   64  H   UNL     1      14.350  32.776  40.250  1.00  0.00     0.000 HD
BRANCH  63  65
HETATM   65  O   UNL     1      12.542  33.279  41.173  1.00  0.00    -0.177 OA
BRANCH  65  66
HETATM   66  C   UNL     1      12.358  32.589  42.250  1.00  0.00     0.153 C 
HETATM   67  N   UNL     1      11.095  32.220  42.595  1.00  0.00    -0.359 N 
HETATM   68  C   UNL     1      11.092  31.596  43.905  1.00  0.00     0.125 C 
HETATM   69  C   UNL     1      12.538  31.151  44.087  1.00  0.00     0.028 C 
HETATM   70  C   UNL     1      13.353  32.152  43.274  1.00  0.00     0.088 C 
BRANCH  67  71
HETATM   71  C   UNL     1       9.862  32.575  41.881  1.00  0.00     0.077 C 
HETATM   72  C   UNL     1       9.132  31.329  41.385  1.00  0.00     0.032 C 
HETATM   73  C   UNL     1       8.945  33.452  42.730  1.00  0.00     0.032 C 
ENDBRANCH  67  71
ENDBRANCH  65  66
ENDBRANCH  63  65
ENDBRANCH   2  63
TORSDOF 16
ENDMDL
MODEL 8
REMARK VINA RESULT:    -8.218     16.119     20.521
REMARK INTER + INTRA:         -19.633
REMARK INTER:                 -14.757
REMARK INTRA:                  -4.876
REMARK UNBOUND:                -4.930
REMARK  16 active torsions:
REMARK  status: ('A' for Active; 'I' for Inactive)
REMARK    1  A    between atoms: C_2  and  O_4 
REMARK    2  A    between atoms: N_3  and  C_5 
REMARK    3  A    between atoms: O_4  and  O_22 
REMARK    4  A    between atoms: C_8  and  O_23 
REMARK    5  A    between atoms: C_9  and  O_22 
REMARK    6  A    between atoms: C_10  and  C_19 
REMARK    7  A    between atoms: C_13  and  C_24 
REMARK    8  A    between atoms: C_16  and  C_61 
REMARK    9  A    between atoms: C_17  and  O_25 
REMARK   10  A    between atoms: C_24  and  C_28 
REMARK   11  A    between atoms: C_41  and  C_45 
REMARK   12  A    between atoms: C_45  and  C_52 
REMARK   13  A    between atoms: O_46  and  C_53 
REMARK   14  A    between atoms: O_47  and  C_54 
REMARK   15  A    between atoms: C_50  and  C_55 
REMARK   16  A    between atoms: O_51  and  C_56 
ROOT
HETATM    1  C   UNL     1      -4.570  25.595  39.525  1.00  0.00     0.088 C 
HETATM    2  C   UNL     1      -4.493  26.105  40.819  1.00  0.00     0.019 C 
HETATM    3  C   UNL     1      -5.053  25.392  41.904  1.00  0.00    -0.029 C 
HETATM    4  C   UNL     1      -5.961  24.324  41.572  1.00  0.00    -0.014 C 
HETATM    5  C   UNL     1      -5.989  23.767  40.254  1.00  0.00     0.022 C 
HETATM    6  C   UNL     1      -5.269  24.432  39.207  1.00  0.00     0.013 C 
HETATM    7  C   UNL     1      -6.921  23.821  42.480  1.00  0.00     0.020 C 
HETATM    8  C   UNL     1      -7.796  22.753  42.209  1.00  0.00    -0.047 C 
HETATM    9  C   UNL     1      -7.674  22.057  41.002  1.00  0.00     0.017 C 
HETATM   10  C   UNL     1      -6.759  22.569  40.057  1.00  0.00     0.089 C 
HETATM   11  C   UNL     1      -8.799  22.363  43.270  1.00  0.00     0.049 C 
ENDROOT
BRANCH   9  12
HETATM   12  C   UNL     1      -8.497  20.853  40.724  1.00  0.00     0.017 A 
HETATM   13  C   UNL     1      -9.706  20.937  39.988  1.00  0.00     0.089 A 
HETATM   14  C   UNL     1     -10.536  19.808  39.669  1.00  0.00     0.022 A 
HETATM   15  C   UNL     1     -11.696  19.858  38.822  1.00  0.00     0.015 A 
HETATM   16  C   UNL     1     -10.165  18.549  40.236  1.00  0.00    -0.012 A 
HETATM   17  C   UNL     1     -12.425  18.692  38.588  1.00  0.00     0.110 A 
HETATM   18  C   UNL     1     -12.105  17.497  39.214  1.00  0.00     0.107 A 
HETATM   19  C   UNL     1     -11.006  17.395  40.072  1.00  0.00    -0.007 A 
HETATM   20  C   UNL     1      -8.936  18.484  40.939  1.00  0.00     0.020 A 
HETATM   21  C   UNL     1      -8.090  19.584  41.155  1.00  0.00    -0.047 A 
HETATM   22  C   UNL     1      -6.792  19.347  41.885  1.00  0.00     0.049 C 
BRANCH  13  23
HETATM   23  O   UNL     1     -10.107  22.182  39.545  1.00  0.00    -0.359 OA
HETATM   24  H   UNL     1      -9.545  22.470  38.808  1.00  0.00     0.217 HD
ENDBRANCH  13  23
BRANCH  15  25
HETATM   25  C   UNL     1     -12.152  21.126  38.205  1.00  0.00     0.038 C 
BRANCH  25  26
HETATM   26  C   UNL     1     -11.758  21.681  37.041  1.00  0.00     0.101 C 
HETATM   27  C   UNL     1     -11.291  20.910  35.867  1.00  0.00     0.265 C 
HETATM   28  O   UNL     1     -11.584  19.736  35.667  1.00  0.00    -0.267 OA
HETATM   29  N   UNL     1     -10.579  21.628  34.949  1.00  0.00    -0.275 N 
HETATM   30  C   UNL     1     -10.565  22.984  34.845  1.00  0.00     0.329 C 
HETATM   31  H   UNL     1     -10.237  21.122  34.142  1.00  0.00     0.173 HD
HETATM   32  O   UNL     1      -9.998  23.552  33.918  1.00  0.00    -0.246 OA
HETATM   33  N   UNL     1     -11.210  23.681  35.819  1.00  0.00    -0.275 N 
HETATM   34  C   UNL     1     -11.734  23.166  36.972  1.00  0.00     0.265 C 
HETATM   35  H   UNL     1     -11.170  24.687  35.750  1.00  0.00     0.173 HD
HETATM   36  O   UNL     1     -12.092  23.901  37.886  1.00  0.00    -0.267 OA
ENDBRANCH  25  26
ENDBRANCH  15  25
BRANCH  17  37
HETATM   37  O   UNL     1     -13.451  18.649  37.676  1.00  0.00    -0.357 OA
HETATM   38  H   UNL     1     -13.377  17.744  37.295  1.00  0.00     0.217 HD
ENDBRANCH  17  37
BRANCH  18  39
HETATM   39  O   UNL     1     -12.880  16.407  38.925  1.00  0.00    -0.357 OA
HETATM   40  H   UNL     1     -13.567  16.731  38.307  1.00  0.00     0.217 HD
ENDBRANCH  18  39
BRANCH  19  41
HETATM   41  C   UNL     1     -10.720  16.067  40.788  1.00  0.00     0.014 C 
HETATM   42  C   UNL     1      -9.450  15.344  40.312  1.00  0.00     0.015 C 
HETATM   43  C   UNL     1     -10.717  16.247  42.307  1.00  0.00     0.015 C 
ENDBRANCH  19  41
ENDBRANCH   9  12
BRANCH  10  44
HETATM   44  O   UNL     1      -6.544  21.869  38.886  1.00  0.00    -0.359 OA
HETATM   45  H   UNL     1      -5.751  22.203  38.423  1.00  0.00     0.217 HD
ENDBRANCH  10  44
BRANCH   6  46
HETATM   46  C   UNL     1      -5.470  24.041  37.788  1.00  0.00     0.038 C 
BRANCH  46  47
HETATM   47  C   UNL     1      -6.059  24.713  36.777  1.00  0.00     0.101 C 
HETATM   48  C   UNL     1      -7.535  24.613  36.651  1.00  0.00     0.265 C 
HETATM   49  N   UNL     1      -8.047  25.097  35.481  1.00  0.00    -0.275 N 
HETATM   50  O   UNL     1      -8.244  24.167  37.545  1.00  0.00    -0.267 OA
HETATM   51  C   UNL     1      -7.356  25.746  34.503  1.00  0.00     0.329 C 
HETATM   52  H   UNL     1      -9.054  25.079  35.380  1.00  0.00     0.173 HD
HETATM   53  N   UNL     1      -6.000  25.806  34.642  1.00  0.00    -0.275 N 
HETATM   54  O   UNL     1      -7.922  26.314  33.578  1.00  0.00    -0.246 OA
HETATM   55  C   UNL     1      -5.320  25.521  35.786  1.00  0.00     0.265 C 
HETATM   56  H   UNL     1      -5.544  26.393  33.954  1.00  0.00     0.173 HD
HETATM   57  O   UNL     1      -4.225  26.011  36.062  1.00  0.00    -0.267 OA
ENDBRANCH  46  47
ENDBRANCH   6  46
BRANCH   3  58
HETATM   58  C   UNL     1      -4.477  25.625  43.325  1.00  0.00     0.012 C 
HETATM   59  C   UNL     1      -2.975  25.808  43.581  1.00  0.00     0.015 C 
HETATM   60  C   UNL     1      -5.159  26.871  43.941  1.00  0.00     0.015 C 
ENDBRANCH   3  58
BRANCH   1  61
HETATM   61  O   UNL     1      -3.865  26.359  38.616  1.00  0.00    -0.359 OA
HETATM   62  H   UNL     1      -3.229  26.917  39.139  1.00  0.00     0.217 HD
ENDBRANCH   1  61
BRANCH   2  63
HETATM   63  O   UNL     1      -3.881  27.347  40.832  1.00  0.00     0.000 OA
HETATM   64  H   UNL     1      -3.065  27.321  41.421  1.00  0.00     0.000 HD
BRANCH  63  65
HETATM   65  O   UNL     1      -4.659  28.518  40.790  1.00  0.00    -0.177 OA
BRANCH  65  66
HETATM   66  C   UNL     1      -4.165  29.536  41.413  1.00  0.00     0.153 C 
HETATM   67  N   UNL     1      -4.782  30.744  41.306  1.00  0.00    -0.359 N 
HETATM   68  C   UNL     1      -3.986  31.775  41.945  1.00  0.00     0.125 C 
HETATM   69  C   UNL     1      -3.095  30.991  42.901  1.00  0.00     0.028 C 
HETATM   70  C   UNL     1      -2.921  29.630  42.234  1.00  0.00     0.088 C 
BRANCH  67  71
HETATM   71  C   UNL     1      -5.963  31.045  40.488  1.00  0.00     0.077 C 
HETATM   72  C   UNL     1      -7.105  31.587  41.345  1.00  0.00     0.032 C 
HETATM   73  C   UNL     1      -5.634  31.996  39.339  1.00  0.00     0.032 C 
ENDBRANCH  67  71
ENDBRANCH  65  66
ENDBRANCH  63  65
ENDBRANCH   2  63
TORSDOF 16
ENDMDL
MODEL 9
REMARK VINA RESULT:    -8.092      2.278      3.499
REMARK INTER + INTRA:         -19.408
REMARK INTER:                 -15.006
REMARK INTRA:                  -4.402
REMARK UNBOUND:                -4.930
REMARK  16 active torsions:
REMARK  status: ('A' for Active; 'I' for Inactive)
REMARK    1  A    between atoms: C_2  and  O_4 
REMARK    2  A    between atoms: N_3  and  C_5 
REMARK    3  A    between atoms: O_4  and  O_22 
REMARK    4  A    between atoms: C_8  and  O_23 
REMARK    5  A    between atoms: C_9  and  O_22 
REMARK    6  A    between atoms: C_10  and  C_19 
REMARK    7  A    between atoms: C_13  and  C_24 
REMARK    8  A    between atoms: C_16  and  C_61 
REMARK    9  A    between atoms: C_17  and  O_25 
REMARK   10  A    between atoms: C_24  and  C_28 
REMARK   11  A    between atoms: C_41  and  C_45 
REMARK   12  A    between atoms: C_45  and  C_52 
REMARK   13  A    between atoms: O_46  and  C_53 
REMARK   14  A    between atoms: O_47  and  C_54 
REMARK   15  A    between atoms: C_50  and  C_55 
REMARK   16  A    between atoms: O_51  and  C_56 
ROOT
HETATM    1  C   UNL     1      11.215  23.548  33.646  1.00  0.00     0.088 C 
HETATM    2  C   UNL     1      12.392  22.808  33.725  1.00  0.00     0.019 C 
HETATM    3  C   UNL     1      13.065  22.663  34.960  1.00  0.00    -0.029 C 
HETATM    4  C   UNL     1      12.669  23.557  36.017  1.00  0.00    -0.014 C 
HETATM    5  C   UNL     1      11.428  24.266  35.954  1.00  0.00     0.022 C 
HETATM    6  C   UNL     1      10.688  24.255  34.725  1.00  0.00     0.013 C 
HETATM    7  C   UNL     1      13.497  23.853  37.125  1.00  0.00     0.020 C 
HETATM    8  C   UNL     1      13.132  24.686  38.198  1.00  0.00    -0.047 C 
HETATM    9  C   UNL     1      11.834  25.203  38.251  1.00  0.00     0.017 C 
HETATM   10  C   UNL     1      11.003  24.967  37.135  1.00  0.00     0.089 C 
HETATM   11  C   UNL     1      14.150  24.940  39.286  1.00  0.00     0.049 C 
ENDROOT
BRANCH   9  12
HETATM   12  C   UNL     1      11.369  25.992  39.421  1.00  0.00     0.017 A 
HETATM   13  C   UNL     1      11.478  27.405  39.451  1.00  0.00     0.089 A 
HETATM   14  C   UNL     1      11.030  28.225  40.543  1.00  0.00     0.022 A 
HETATM   15  C   UNL     1      11.021  29.663  40.536  1.00  0.00     0.015 A 
HETATM   16  C   UNL     1      10.555  27.550  41.710  1.00  0.00    -0.012 A 
HETATM   17  C   UNL     1      10.564  30.350  41.660  1.00  0.00     0.110 A 
HETATM   18  C   UNL     1      10.189  29.683  42.817  1.00  0.00     0.107 A 
HETATM   19  C   UNL     1      10.206  28.287  42.893  1.00  0.00    -0.007 A 
HETATM   20  C   UNL     1      10.425  26.140  41.643  1.00  0.00     0.020 A 
HETATM   21  C   UNL     1      10.779  25.366  40.526  1.00  0.00    -0.047 A 
HETATM   22  C   UNL     1      10.540  23.878  40.591  1.00  0.00     0.049 C 
BRANCH  13  23
HETATM   23  O   UNL     1      12.045  28.033  38.359  1.00  0.00    -0.359 OA
HETATM   24  H   UNL     1      11.675  28.924  38.259  1.00  0.00     0.217 HD
ENDBRANCH  13  23
BRANCH  15  25
HETATM   25  C   UNL     1      11.506  30.437  39.369  1.00  0.00     0.038 C 
BRANCH  25  26
HETATM   26  C   UNL     1      10.816  31.286  38.581  1.00  0.00     0.101 C 
HETATM   27  C   UNL     1       9.763  30.868  37.627  1.00  0.00     0.265 C 
HETATM   28  O   UNL     1       9.133  29.821  37.730  1.00  0.00    -0.267 OA
HETATM   29  N   UNL     1       9.462  31.785  36.661  1.00  0.00    -0.275 N 
HETATM   30  C   UNL     1       9.768  33.109  36.705  1.00  0.00     0.329 C 
HETATM   31  H   UNL     1       8.755  31.520  35.987  1.00  0.00     0.173 HD
HETATM   32  O   UNL     1       9.358  33.893  35.855  1.00  0.00    -0.246 OA
HETATM   33  N   UNL     1      10.553  33.524  37.736  1.00  0.00    -0.275 N 
HETATM   34  C   UNL     1      11.193  32.723  38.640  1.00  0.00     0.265 C 
HETATM   35  H   UNL     1      10.800  34.503  37.744  1.00  0.00     0.173 HD
HETATM   36  O   UNL     1      12.053  33.176  39.387  1.00  0.00    -0.267 OA
ENDBRANCH  25  26
ENDBRANCH  15  25
BRANCH  17  37
HETATM   37  O   UNL     1      10.394  31.714  41.658  1.00  0.00    -0.357 OA
HETATM   38  H   UNL     1       9.744  31.862  42.382  1.00  0.00     0.217 HD
ENDBRANCH  17  37
BRANCH  18  39
HETATM   39  O   UNL     1       9.757  30.444  43.870  1.00  0.00    -0.357 OA
HETATM   40  H   UNL     1      10.505  31.035  44.090  1.00  0.00     0.217 HD
ENDBRANCH  18  39
BRANCH  19  41
HETATM   41  C   UNL     1       9.837  27.592  44.210  1.00  0.00     0.014 C 
HETATM   42  C   UNL     1       8.887  26.393  44.057  1.00  0.00     0.015 C 
HETATM   43  C   UNL     1      11.088  27.209  45.003  1.00  0.00     0.015 C 
ENDBRANCH  19  41
ENDBRANCH   9  12
BRANCH  10  44
HETATM   44  O   UNL     1       9.688  25.386  37.178  1.00  0.00    -0.359 OA
HETATM   45  H   UNL     1       9.604  26.212  37.692  1.00  0.00     0.217 HD
ENDBRANCH  10  44
BRANCH   6  46
HETATM   46  C   UNL     1       9.535  25.172  34.531  1.00  0.00     0.038 C 
BRANCH  46  47
HETATM   47  C   UNL     1       9.464  26.353  33.882  1.00  0.00     0.101 C 
HETATM   48  C   UNL     1       9.865  27.574  34.628  1.00  0.00     0.265 C 
HETATM   49  N   UNL     1       9.539  28.751  34.019  1.00  0.00    -0.275 N 
HETATM   50  O   UNL     1      10.477  27.527  35.688  1.00  0.00    -0.267 OA
HETATM   51  C   UNL     1       9.001  28.898  32.777  1.00  0.00     0.329 C 
HETATM   52  H   UNL     1       9.833  29.603  34.482  1.00  0.00     0.173 HD
HETATM   53  N   UNL     1       8.630  27.758  32.126  1.00  0.00    -0.275 N 
HETATM   54  O   UNL     1       8.917  29.992  32.232  1.00  0.00    -0.246 OA
HETATM   55  C   UNL     1       8.997  26.499  32.489  1.00  0.00     0.265 C 
HETATM   56  H   UNL     1       8.342  27.909  31.167  1.00  0.00     0.173 HD
HETATM   57  O   UNL     1       9.082  25.564  31.693  1.00  0.00    -0.267 OA
ENDBRANCH  46  47
ENDBRANCH   6  46
BRANCH   3  58
HETATM   58  C   UNL     1      13.972  21.422  35.174  1.00  0.00     0.012 C 
HETATM   59  C   UNL     1      15.434  21.543  35.623  1.00  0.00     0.015 C 
HETATM   60  C   UNL     1      13.297  20.483  36.203  1.00  0.00     0.015 C 
ENDBRANCH   3  58
BRANCH   1  61
HETATM   61  O   UNL     1      10.634  23.479  32.395  1.00  0.00    -0.359 OA
HETATM   62  H   UNL     1      11.192  24.033  31.786  1.00  0.00     0.217 HD
ENDBRANCH   1  61
BRANCH   2  63
HETATM   63  O   UNL     1      12.776  22.342  32.478  1.00  0.00     0.000 OA
HETATM   64  H   UNL     1      12.792  23.103  31.819  1.00  0.00     0.000 HD
BRANCH  63  65
HETATM   65  O   UNL     1      12.371  21.067  32.046  1.00  0.00    -0.177 OA
BRANCH  65  66
HETATM   66  C   UNL     1      13.137  20.510  31.166  1.00  0.00     0.153 C 
HETATM   67  N   UNL     1      14.006  19.541  31.560  1.00  0.00    -0.359 N 
HETATM   68  C   UNL     1      14.873  19.164  30.459  1.00  0.00     0.125 C 
HETATM   69  C   UNL     1      14.098  19.619  29.228  1.00  0.00     0.028 C 
HETATM   70  C   UNL     1      13.277  20.811  29.710  1.00  0.00     0.088 C 
BRANCH  67  71
HETATM   71  C   UNL     1      14.219  19.073  32.935  1.00  0.00     0.077 C 
HETATM   72  C   UNL     1      13.157  18.056  33.344  1.00  0.00     0.032 C 
HETATM   73  C   UNL     1      15.626  18.515  33.135  1.00  0.00     0.032 C 
ENDBRANCH  67  71
ENDBRANCH  65  66
ENDBRANCH  63  65
ENDBRANCH   2  63
TORSDOF 16
ENDMDL
MODEL 10
REMARK VINA RESULT:    -8.000      2.244     10.661
REMARK INTER + INTRA:         -19.244
REMARK INTER:                 -15.299
REMARK INTRA:                  -3.945
REMARK UNBOUND:                -4.930
REMARK  16 active torsions:
REMARK  status: ('A' for Active; 'I' for Inactive)
REMARK    1  A    between atoms: C_2  and  O_4 
REMARK    2  A    between atoms: N_3  and  C_5 
REMARK    3  A    between atoms: O_4  and  O_22 
REMARK    4  A    between atoms: C_8  and  O_23 
REMARK    5  A    between atoms: C_9  and  O_22 
REMARK    6  A    between atoms: C_10  and  C_19 
REMARK    7  A    between atoms: C_13  and  C_24 
REMARK    8  A    between atoms: C_16  and  C_61 
REMARK    9  A    between atoms: C_17  and  O_25 
REMARK   10  A    between atoms: C_24  and  C_28 
REMARK   11  A    between atoms: C_41  and  C_45 
REMARK   12  A    between atoms: C_45  and  C_52 
REMARK   13  A    between atoms: O_46  and  C_53 
REMARK   14  A    between atoms: O_47  and  C_54 
REMARK   15  A    between atoms: C_50  and  C_55 
REMARK   16  A    between atoms: O_51  and  C_56 
ROOT
HETATM    1  C   UNL     1       9.322  24.494  41.541  1.00  0.00     0.088 C 
HETATM    2  C   UNL     1       8.660  23.345  41.967  1.00  0.00     0.019 C 
HETATM    3  C   UNL     1       8.669  22.177  41.170  1.00  0.00    -0.029 C 
HETATM    4  C   UNL     1       9.095  22.333  39.803  1.00  0.00    -0.014 C 
HETATM    5  C   UNL     1       9.828  23.491  39.390  1.00  0.00     0.022 C 
HETATM    6  C   UNL     1       9.937  24.599  40.294  1.00  0.00     0.013 C 
HETATM    7  C   UNL     1       8.756  21.415  38.782  1.00  0.00     0.020 C 
HETATM    8  C   UNL     1       9.186  21.509  37.446  1.00  0.00    -0.047 C 
HETATM    9  C   UNL     1      10.087  22.517  37.087  1.00  0.00     0.017 C 
HETATM   10  C   UNL     1      10.403  23.476  38.073  1.00  0.00     0.089 C 
HETATM   11  C   UNL     1       8.698  20.472  36.462  1.00  0.00     0.049 C 
ENDROOT
BRANCH   9  12
HETATM   12  C   UNL     1      10.657  22.584  35.717  1.00  0.00     0.017 A 
HETATM   13  C   UNL     1      10.142  23.478  34.745  1.00  0.00     0.089 A 
HETATM   14  C   UNL     1      10.661  23.604  33.410  1.00  0.00     0.022 A 
HETATM   15  C   UNL     1      10.232  24.589  32.455  1.00  0.00     0.015 A 
HETATM   16  C   UNL     1      11.682  22.682  33.021  1.00  0.00    -0.012 A 
HETATM   17  C   UNL     1      10.810  24.610  31.186  1.00  0.00     0.110 A 
HETATM   18  C   UNL     1      11.737  23.656  30.793  1.00  0.00     0.107 A 
HETATM   19  C   UNL     1      12.169  22.656  31.669  1.00  0.00    -0.007 A 
HETATM   20  C   UNL     1      12.203  21.822  34.020  1.00  0.00     0.020 A 
HETATM   21  C   UNL     1      11.745  21.784  35.347  1.00  0.00    -0.047 A 
HETATM   22  C   UNL     1      12.431  20.843  36.306  1.00  0.00     0.049 C 
BRANCH  13  23
HETATM   23  O   UNL     1       9.079  24.282  35.105  1.00  0.00    -0.359 OA
HETATM   24  H   UNL     1       8.863  24.892  34.382  1.00  0.00     0.217 HD
ENDBRANCH  13  23
BRANCH  15  25
HETATM   25  C   UNL     1       9.171  25.572  32.777  1.00  0.00     0.038 C 
BRANCH  25  26
HETATM   26  C   UNL     1       9.298  26.894  33.017  1.00  0.00     0.101 C 
HETATM   27  C   UNL     1       9.787  27.465  34.293  1.00  0.00     0.265 C 
HETATM   28  O   UNL     1      10.490  26.848  35.086  1.00  0.00    -0.267 OA
HETATM   29  N   UNL     1       9.483  28.782  34.491  1.00  0.00    -0.275 N 
HETATM   30  C   UNL     1       9.105  29.659  33.524  1.00  0.00     0.329 C 
HETATM   31  H   UNL     1       9.794  29.194  35.360  1.00  0.00     0.173 HD
HETATM   32  O   UNL     1       8.966  30.855  33.758  1.00  0.00    -0.246 OA
HETATM   33  N   UNL     1       8.885  29.147  32.282  1.00  0.00    -0.275 N 
HETATM   34  C   UNL     1       8.853  27.823  31.946  1.00  0.00     0.265 C 
HETATM   35  H   UNL     1       8.576  29.801  31.577  1.00  0.00     0.173 HD
HETATM   36  O   UNL     1       8.427  27.458  30.855  1.00  0.00    -0.267 OA
ENDBRANCH  25  26
ENDBRANCH  15  25
BRANCH  17  37
HETATM   37  O   UNL     1      10.548  25.614  30.285  1.00  0.00    -0.357 OA
HETATM   38  H   UNL     1      10.329  25.126  29.460  1.00  0.00     0.217 HD
ENDBRANCH  17  37
BRANCH  18  39
HETATM   39  O   UNL     1      12.246  23.757  29.527  1.00  0.00    -0.357 OA
HETATM   40  H   UNL     1      11.726  24.462  29.091  1.00  0.00     0.217 HD
ENDBRANCH  18  39
BRANCH  19  41
HETATM   41  C   UNL     1      13.153  21.586  31.176  1.00  0.00     0.014 C 
HETATM   42  C   UNL     1      14.300  21.273  32.151  1.00  0.00     0.015 C 
HETATM   43  C   UNL     1      12.420  20.310  30.757  1.00  0.00     0.015 C 
ENDBRANCH  19  41
ENDBRANCH   9  12
BRANCH  10  44
HETATM   44  O   UNL     1      11.351  24.440  37.790  1.00  0.00    -0.359 OA
HETATM   45  H   UNL     1      11.125  25.286  38.223  1.00  0.00     0.217 HD
ENDBRANCH  10  44
BRANCH   6  46
HETATM   46  C   UNL     1      10.463  25.906  39.824  1.00  0.00     0.038 C 
BRANCH  46  47
HETATM   47  C   UNL     1      11.361  26.737  40.394  1.00  0.00     0.101 C 
HETATM   48  C   UNL     1      12.773  26.280  40.466  1.00  0.00     0.265 C 
HETATM   49  N   UNL     1      13.581  27.035  41.266  1.00  0.00    -0.275 N 
HETATM   50  O   UNL     1      13.188  25.323  39.825  1.00  0.00    -0.267 OA
HETATM   51  C   UNL     1      13.244  28.198  41.890  1.00  0.00     0.329 C 
HETATM   52  H   UNL     1      14.558  26.774  41.306  1.00  0.00     0.173 HD
HETATM   53  N   UNL     1      11.936  28.580  41.818  1.00  0.00    -0.275 N 
HETATM   54  O   UNL     1      14.081  28.909  42.431  1.00  0.00    -0.246 OA
HETATM   55  C   UNL     1      11.017  28.056  40.961  1.00  0.00     0.265 C 
HETATM   56  H   UNL     1      11.758  29.502  42.197  1.00  0.00     0.173 HD
HETATM   57  O   UNL     1      10.034  28.679  40.560  1.00  0.00    -0.267 OA
ENDBRANCH  46  47
ENDBRANCH   6  46
BRANCH   3  58
HETATM   58  C   UNL     1       8.477  20.802  41.862  1.00  0.00     0.012 C 
HETATM   59  C   UNL     1       9.177  20.442  43.180  1.00  0.00     0.015 C 
HETATM   60  C   UNL     1       6.967  20.580  42.120  1.00  0.00     0.015 C 
ENDBRANCH   3  58
BRANCH   1  61
HETATM   61  O   UNL     1       9.311  25.491  42.496  1.00  0.00    -0.359 OA
HETATM   62  H   UNL     1       8.460  25.398  43.002  1.00  0.00     0.217 HD
ENDBRANCH   1  61
BRANCH   2  63
HETATM   63  O   UNL     1       8.003  23.561  43.167  1.00  0.00     0.000 OA
HETATM   64  H   UNL     1       8.052  22.733  43.737  1.00  0.00     0.000 HD
BRANCH  63  65
HETATM   65  O   UNL     1       6.841  24.352  43.203  1.00  0.00    -0.177 OA
BRANCH  65  66
HETATM   66  C   UNL     1       5.775  23.754  43.620  1.00  0.00     0.153 C 
HETATM   67  N   UNL     1       5.705  23.348  44.917  1.00  0.00    -0.359 N 
HETATM   68  C   UNL     1       4.502  22.566  45.137  1.00  0.00     0.125 C 
HETATM   69  C   UNL     1       3.596  22.981  43.984  1.00  0.00     0.028 C 
HETATM   70  C   UNL     1       4.554  23.356  42.857  1.00  0.00     0.088 C 
BRANCH  67  71
HETATM   71  C   UNL     1       6.766  23.472  45.923  1.00  0.00     0.077 C 
HETATM   72  C   UNL     1       6.380  24.467  47.015  1.00  0.00     0.032 C 
HETATM   73  C   UNL     1       7.148  22.118  46.518  1.00  0.00     0.032 C 
ENDBRANCH  67  71
ENDBRANCH  65  66
ENDBRANCH  63  65
ENDBRANCH   2  63
TORSDOF 16
ENDMDL
