MODEL 1
REMARK VINA RESULT:    -8.819      0.000      0.000
REMARK INTER + INTRA:         -15.104
REMARK INTER:                 -13.459
REMARK INTRA:                  -1.646
REMARK UNBOUND:                -1.646
REMARK  10 active torsions:
REMARK  status: ('A' for Active; 'I' for Inactive)
REMARK    1  A    between atoms: C_2  and  N_7 
REMARK    2  A    between atoms: C_3  and  C_11 
REMARK       I    between atoms: N_7  and  C_8 
REMARK    3  A    between atoms: C_11  and  O_12 
REMARK    4  A    between atoms: O_12  and  C_14 
REMARK    5  A    between atoms: C_17  and  O_38 
REMARK    6  A    between atoms: C_23  and  O_30 
REMARK    7  A    between atoms: C_24  and  O_31 
REMARK    8  A    between atoms: C_25  and  O_34 
REMARK    9  A    between atoms: C_29  and  O_32 
REMARK   10  A    between atoms: N_36  and  C_41 
ROOT
HETATM    1  C   UNL     1      11.909  22.904  32.204  1.00  0.00     0.102 C 
HETATM    2  C   UNL     1      11.116  22.375  33.545  1.00  0.00     0.037 C 
HETATM    3  C   UNL     1      11.476  22.978  34.931  1.00  0.00     0.030 C 
HETATM    4  C   UNL     1      13.045  23.017  35.085  1.00  0.00     0.132 C 
HETATM    5  C   UNL     1      13.726  23.771  33.948  1.00  0.00     0.036 C 
HETATM    6  C   UNL     1      13.437  23.116  32.587  1.00  0.00     0.043 C 
HETATM    7  C   UNL     1       9.540  22.692  33.594  1.00  0.00     0.018 C 
HETATM    8  C   UNL     1      10.896  22.213  36.176  1.00  0.00     0.040 C 
HETATM    9  C   UNL     1       9.303  23.921  34.606  1.00  0.00     0.058 C 
HETATM   10  C   UNL     1       8.923  23.701  36.154  1.00  0.00     0.100 C 
HETATM   11  C   UNL     1      10.136  23.187  37.057  1.00  0.00     0.120 C 
HETATM   12  C   UNL     1       9.877  22.229  38.248  1.00  0.00     0.165 C 
HETATM   13  C   UNL     1       9.050  21.185  37.521  1.00  0.00     0.047 C 
HETATM   14  C   UNL     1       9.946  20.964  36.234  1.00  0.00     0.018 C 
HETATM   15  C   UNL     1       7.619  22.881  36.212  1.00  0.00     0.074 C 
HETATM   16  C   UNL     1       7.629  21.744  37.230  1.00  0.00     0.130 C 
HETATM   17  N   UNL     1      10.983  25.228  33.187  1.00  0.00     0.097 N 
HETATM   18  C   UNL     1      10.695  24.535  34.582  1.00  0.00     0.242 C 
HETATM   19  C   UNL     1      11.228  24.351  31.948  1.00  0.00     0.311 C 
ENDROOT
BRANCH   1  20
HETATM   20  O   UNL     1      11.712  22.021  31.065  1.00  0.00    -0.304 OA
BRANCH  20  21
HETATM   21  C   UNL     1      12.298  20.819  30.763  1.00  0.00     0.296 C 
HETATM   22  O   UNL     1      12.018  19.814  31.396  1.00  0.00    -0.259 OA
BRANCH  21  23
HETATM   23  C   UNL     1      13.361  20.693  29.724  1.00  0.00     0.066 C 
HETATM   24  C   UNL     1      13.586  21.742  28.799  1.00  0.00     0.051 C 
HETATM   25  C   UNL     1      14.423  21.492  27.702  1.00  0.00     0.030 C 
HETATM   26  C   UNL     1      15.098  20.275  27.575  1.00  0.00     0.002 C 
HETATM   27  C   UNL     1      14.986  19.308  28.570  1.00  0.00     0.001 C 
HETATM   28  C   UNL     1      14.133  19.523  29.657  1.00  0.00     0.020 C 
BRANCH  24  29
HETATM   29  N   UNL     1      13.025  23.024  29.039  1.00  0.00    -0.327 N 
HETATM   30  C   UNL     1      12.451  23.877  28.113  1.00  0.00     0.218 C 
HETATM   31  O   UNL     1      12.129  23.606  26.960  1.00  0.00    -0.274 OA
HETATM   32  C   UNL     1      12.292  25.282  28.635  1.00  0.00     0.117 C 
HETATM   33  H   UNL     1      13.214  23.410  29.964  1.00  0.00     0.169 HD
ENDBRANCH  24  29
ENDBRANCH  21  23
ENDBRANCH  20  21
ENDBRANCH   1  20
BRANCH  17  34
HETATM   34  C   UNL     1       9.982  26.238  32.778  1.00  0.00     0.268 C 
HETATM   35  C   UNL     1       9.330  25.991  31.433  1.00  0.00     0.037 C 
ENDBRANCH  17  34
BRANCH   4  36
HETATM   36  O   UNL     1      13.460  21.631  35.082  1.00  0.00    -0.390 OA
HETATM   37  C   UNL     1      14.602  21.336  35.875  1.00  0.00     0.202 C 
ENDBRANCH   4  36
BRANCH  11  38
HETATM   38  O   UNL     1      10.991  24.248  37.471  1.00  0.00    -0.384 OA
HETATM   39  H   UNL     1      10.503  24.665  38.210  1.00  0.00     0.210 HD
ENDBRANCH  11  38
BRANCH  10  40
HETATM   40  O   UNL     1       8.610  25.019  36.687  1.00  0.00    -0.386 OA
HETATM   41  H   UNL     1       9.358  25.322  37.229  1.00  0.00     0.210 HD
ENDBRANCH  10  40
BRANCH  12  42
HETATM   42  O   UNL     1       9.376  22.788  39.446  1.00  0.00    -0.387 OA
HETATM   43  C   UNL     1      10.013  22.231  40.601  1.00  0.00     0.202 C 
ENDBRANCH  12  42
BRANCH  16  44
HETATM   44  O   UNL     1       6.870  21.993  38.425  1.00  0.00    -0.390 OA
HETATM   45  C   UNL     1       6.686  20.932  39.362  1.00  0.00     0.202 C 
ENDBRANCH  16  44
TORSDOF 10
ENDMDL
MODEL 2
REMARK VINA RESULT:    -8.588      1.226      2.322
REMARK INTER + INTRA:         -14.752
REMARK INTER:                 -12.664
REMARK INTRA:                  -2.089
REMARK UNBOUND:                -1.646
REMARK  10 active torsions:
REMARK  status: ('A' for Active; 'I' for Inactive)
REMARK    1  A    between atoms: C_2  and  N_7 
REMARK    2  A    between atoms: C_3  and  C_11 
REMARK       I    between atoms: N_7  and  C_8 
REMARK    3  A    between atoms: C_11  and  O_12 
REMARK    4  A    between atoms: O_12  and  C_14 
REMARK    5  A    between atoms: C_17  and  O_38 
REMARK    6  A    between atoms: C_23  and  O_30 
REMARK    7  A    between atoms: C_24  and  O_31 
REMARK    8  A    between atoms: C_25  and  O_34 
REMARK    9  A    between atoms: C_29  and  O_32 
REMARK   10  A    between atoms: N_36  and  C_41 
ROOT
HETATM    1  C   UNL     1      11.509  24.135  32.349  1.00  0.00     0.102 C 
HETATM    2  C   UNL     1      10.861  23.374  33.656  1.00  0.00     0.037 C 
HETATM    3  C   UNL     1      11.315  23.787  35.082  1.00  0.00     0.030 C 
HETATM    4  C   UNL     1      12.889  23.890  35.113  1.00  0.00     0.132 C 
HETATM    5  C   UNL     1      13.434  24.837  34.050  1.00  0.00     0.036 C 
HETATM    6  C   UNL     1      13.055  24.372  32.634  1.00  0.00     0.043 C 
HETATM    7  C   UNL     1       9.282  23.592  33.879  1.00  0.00     0.018 C 
HETATM    8  C   UNL     1      10.880  22.819  36.242  1.00  0.00     0.040 C 
HETATM    9  C   UNL     1       9.084  24.646  35.079  1.00  0.00     0.058 C 
HETATM   10  C   UNL     1       8.852  24.183  36.602  1.00  0.00     0.100 C 
HETATM   11  C   UNL     1      10.160  23.611  37.317  1.00  0.00     0.120 C 
HETATM   12  C   UNL     1      10.048  22.478  38.368  1.00  0.00     0.165 C 
HETATM   13  C   UNL     1       9.205  21.506  37.563  1.00  0.00     0.047 C 
HETATM   14  C   UNL     1       9.993  21.524  36.189  1.00  0.00     0.018 C 
HETATM   15  C   UNL     1       7.593  23.293  36.642  1.00  0.00     0.074 C 
HETATM   16  C   UNL     1       7.741  22.022  37.474  1.00  0.00     0.130 C 
HETATM   17  N   UNL     1      10.575  26.236  33.740  1.00  0.00     0.097 N 
HETATM   18  C   UNL     1      10.441  25.333  35.034  1.00  0.00     0.242 C 
HETATM   19  C   UNL     1      10.747  25.564  32.368  1.00  0.00     0.311 C 
ENDROOT
BRANCH   1  20
HETATM   20  O   UNL     1      11.249  23.417  31.110  1.00  0.00    -0.304 OA
BRANCH  20  21
HETATM   21  C   UNL     1      11.525  23.762  29.812  1.00  0.00     0.296 C 
HETATM   22  O   UNL     1      10.917  24.669  29.267  1.00  0.00    -0.259 OA
BRANCH  21  23
HETATM   23  C   UNL     1      12.500  23.003  28.978  1.00  0.00     0.066 C 
HETATM   24  C   UNL     1      13.054  21.787  29.452  1.00  0.00     0.051 C 
HETATM   25  C   UNL     1      14.133  21.230  28.751  1.00  0.00     0.030 C 
HETATM   26  C   UNL     1      14.588  21.803  27.560  1.00  0.00     0.002 C 
HETATM   27  C   UNL     1      13.938  22.910  27.025  1.00  0.00     0.001 C 
HETATM   28  C   UNL     1      12.880  23.501  27.723  1.00  0.00     0.020 C 
BRANCH  24  29
HETATM   29  N   UNL     1      12.466  21.135  30.568  1.00  0.00    -0.327 N 
HETATM   30  C   UNL     1      13.095  20.726  31.731  1.00  0.00     0.218 C 
HETATM   31  O   UNL     1      14.222  21.033  32.106  1.00  0.00    -0.274 OA
HETATM   32  C   UNL     1      12.265  19.757  32.533  1.00  0.00     0.117 C 
HETATM   33  H   UNL     1      11.516  20.796  30.417  1.00  0.00     0.169 HD
ENDBRANCH  24  29
ENDBRANCH  21  23
ENDBRANCH  20  21
ENDBRANCH   1  20
BRANCH  17  34
HETATM   34  C   UNL     1       9.500  27.239  33.569  1.00  0.00     0.268 C 
HETATM   35  C   UNL     1       8.932  27.342  32.168  1.00  0.00     0.037 C 
ENDBRANCH  17  34
BRANCH   4  36
HETATM   36  O   UNL     1      13.360  22.543  34.869  1.00  0.00    -0.390 OA
HETATM   37  C   UNL     1      14.651  22.249  35.385  1.00  0.00     0.202 C 
ENDBRANCH   4  36
BRANCH  11  38
HETATM   38  O   UNL     1      11.003  24.646  37.814  1.00  0.00    -0.384 OA
HETATM   39  H   UNL     1      11.621  24.176  38.410  1.00  0.00     0.210 HD
ENDBRANCH  11  38
BRANCH  10  40
HETATM   40  O   UNL     1       8.531  25.391  37.349  1.00  0.00    -0.386 OA
HETATM   41  H   UNL     1       7.911  25.927  36.825  1.00  0.00     0.210 HD
ENDBRANCH  10  40
BRANCH  12  42
HETATM   42  O   UNL     1       9.631  22.828  39.673  1.00  0.00    -0.387 OA
HETATM   43  C   UNL     1      10.522  22.318  40.672  1.00  0.00     0.202 C 
ENDBRANCH  12  42
BRANCH  16  44
HETATM   44  O   UNL     1       7.081  22.053  38.751  1.00  0.00    -0.390 OA
HETATM   45  C   UNL     1       6.906  20.832  39.470  1.00  0.00     0.202 C 
ENDBRANCH  16  44
TORSDOF 10
ENDMDL
MODEL 3
REMARK VINA RESULT:    -7.981      3.316      8.162
REMARK INTER + INTRA:         -13.825
REMARK INTER:                 -11.873
REMARK INTRA:                  -1.953
REMARK UNBOUND:                -1.646
REMARK  10 active torsions:
REMARK  status: ('A' for Active; 'I' for Inactive)
REMARK    1  A    between atoms: C_2  and  N_7 
REMARK    2  A    between atoms: C_3  and  C_11 
REMARK       I    between atoms: N_7  and  C_8 
REMARK    3  A    between atoms: C_11  and  O_12 
REMARK    4  A    between atoms: O_12  and  C_14 
REMARK    5  A    between atoms: C_17  and  O_38 
REMARK    6  A    between atoms: C_23  and  O_30 
REMARK    7  A    between atoms: C_24  and  O_31 
REMARK    8  A    between atoms: C_25  and  O_34 
REMARK    9  A    between atoms: C_29  and  O_32 
REMARK   10  A    between atoms: N_36  and  C_41 
ROOT
HETATM    1  C   UNL     1       9.893  25.480  35.740  1.00  0.00     0.102 C 
HETATM    2  C   UNL     1      11.090  24.352  35.691  1.00  0.00     0.037 C 
HETATM    3  C   UNL     1      10.720  22.854  35.518  1.00  0.00     0.030 C 
HETATM    4  C   UNL     1       9.541  22.497  36.504  1.00  0.00     0.132 C 
HETATM    5  C   UNL     1       8.329  23.403  36.318  1.00  0.00     0.036 C 
HETATM    6  C   UNL     1       8.683  24.877  36.577  1.00  0.00     0.043 C 
HETATM    7  C   UNL     1      12.093  24.454  34.437  1.00  0.00     0.018 C 
HETATM    8  C   UNL     1      11.884  21.831  35.782  1.00  0.00     0.040 C 
HETATM    9  C   UNL     1      11.707  23.297  33.387  1.00  0.00     0.058 C 
HETATM   10  C   UNL     1      12.441  21.866  33.375  1.00  0.00     0.100 C 
HETATM   11  C   UNL     1      12.027  20.910  34.586  1.00  0.00     0.120 C 
HETATM   12  C   UNL     1      13.059  19.930  35.200  1.00  0.00     0.165 C 
HETATM   13  C   UNL     1      14.190  20.914  35.437  1.00  0.00     0.047 C 
HETATM   14  C   UNL     1      13.393  22.095  36.128  1.00  0.00     0.018 C 
HETATM   15  C   UNL     1      13.950  22.106  33.166  1.00  0.00     0.074 C 
HETATM   16  C   UNL     1      14.856  21.290  34.084  1.00  0.00     0.130 C 
HETATM   17  N   UNL     1       9.339  24.264  33.409  1.00  0.00     0.097 N 
HETATM   18  C   UNL     1      10.268  23.046  33.811  1.00  0.00     0.242 C 
HETATM   19  C   UNL     1       9.453  25.585  34.185  1.00  0.00     0.311 C 
ENDROOT
BRANCH   1  20
HETATM   20  O   UNL     1      10.365  26.761  36.241  1.00  0.00    -0.304 OA
BRANCH  20  21
HETATM   21  C   UNL     1      10.604  27.177  37.526  1.00  0.00     0.296 C 
HETATM   22  O   UNL     1      11.609  26.819  38.119  1.00  0.00    -0.259 OA
BRANCH  21  23
HETATM   23  C   UNL     1       9.623  28.001  38.289  1.00  0.00     0.066 C 
HETATM   24  C   UNL     1       8.955  29.082  37.663  1.00  0.00     0.051 C 
HETATM   25  C   UNL     1       8.226  29.969  38.468  1.00  0.00     0.030 C 
HETATM   26  C   UNL     1       8.077  29.739  39.839  1.00  0.00     0.002 C 
HETATM   27  C   UNL     1       8.612  28.591  40.415  1.00  0.00     0.001 C 
HETATM   28  C   UNL     1       9.370  27.710  39.638  1.00  0.00     0.020 C 
BRANCH  24  29
HETATM   29  N   UNL     1       8.980  29.200  36.248  1.00  0.00    -0.327 N 
HETATM   30  C   UNL     1       9.066  30.362  35.502  1.00  0.00     0.218 C 
HETATM   31  O   UNL     1       9.348  31.483  35.914  1.00  0.00    -0.274 OA
HETATM   32  C   UNL     1       8.705  30.153  34.053  1.00  0.00     0.117 C 
HETATM   33  H   UNL     1       8.749  28.345  35.741  1.00  0.00     0.169 HD
ENDBRANCH  24  29
ENDBRANCH  21  23
ENDBRANCH  20  21
ENDBRANCH   1  20
BRANCH  17  34
HETATM   34  C   UNL     1       9.382  24.629  31.976  1.00  0.00     0.268 C 
HETATM   35  C   UNL     1       9.410  26.117  31.691  1.00  0.00     0.037 C 
ENDBRANCH  17  34
BRANCH   4  36
HETATM   36  O   UNL     1      10.093  22.669  37.831  1.00  0.00    -0.390 OA
HETATM   37  C   UNL     1       9.367  22.038  38.877  1.00  0.00     0.202 C 
ENDBRANCH   4  36
BRANCH  11  38
HETATM   38  O   UNL     1      10.801  20.226  34.341  1.00  0.00    -0.384 OA
HETATM   39  H   UNL     1      10.594  20.447  33.410  1.00  0.00     0.210 HD
ENDBRANCH  11  38
BRANCH  10  40
HETATM   40  O   UNL     1      11.962  21.173  32.187  1.00  0.00    -0.386 OA
HETATM   41  H   UNL     1      12.062  21.763  31.420  1.00  0.00     0.210 HD
ENDBRANCH  10  40
BRANCH  12  42
HETATM   42  O   UNL     1      13.328  18.732  34.500  1.00  0.00    -0.387 OA
HETATM   43  C   UNL     1      13.826  17.708  35.369  1.00  0.00     0.202 C 
ENDBRANCH  12  42
BRANCH  16  44
HETATM   44  O   UNL     1      15.512  20.177  33.454  1.00  0.00    -0.390 OA
HETATM   45  C   UNL     1      15.563  20.119  32.029  1.00  0.00     0.202 C 
ENDBRANCH  16  44
TORSDOF 10
ENDMDL
MODEL 4
REMARK VINA RESULT:    -7.969      3.717      8.503
REMARK INTER + INTRA:         -13.808
REMARK INTER:                 -11.982
REMARK INTRA:                  -1.826
REMARK UNBOUND:                -1.646
REMARK  10 active torsions:
REMARK  status: ('A' for Active; 'I' for Inactive)
REMARK    1  A    between atoms: C_2  and  N_7 
REMARK    2  A    between atoms: C_3  and  C_11 
REMARK       I    between atoms: N_7  and  C_8 
REMARK    3  A    between atoms: C_11  and  O_12 
REMARK    4  A    between atoms: O_12  and  C_14 
REMARK    5  A    between atoms: C_17  and  O_38 
REMARK    6  A    between atoms: C_23  and  O_30 
REMARK    7  A    between atoms: C_24  and  O_31 
REMARK    8  A    between atoms: C_25  and  O_34 
REMARK    9  A    between atoms: C_29  and  O_32 
REMARK   10  A    between atoms: N_36  and  C_41 
ROOT
HETATM    1  C   UNL     1       9.923  25.584  35.760  1.00  0.00     0.102 C 
HETATM    2  C   UNL     1      11.108  24.444  35.686  1.00  0.00     0.037 C 
HETATM    3  C   UNL     1      10.719  22.952  35.496  1.00  0.00     0.030 C 
HETATM    4  C   UNL     1       9.544  22.596  36.487  1.00  0.00     0.132 C 
HETATM    5  C   UNL     1       8.341  23.518  36.323  1.00  0.00     0.036 C 
HETATM    6  C   UNL     1       8.714  24.984  36.598  1.00  0.00     0.043 C 
HETATM    7  C   UNL     1      12.102  24.551  34.425  1.00  0.00     0.018 C 
HETATM    8  C   UNL     1      11.873  21.913  35.737  1.00  0.00     0.040 C 
HETATM    9  C   UNL     1      11.694  23.413  33.363  1.00  0.00     0.058 C 
HETATM   10  C   UNL     1      12.411  21.973  33.326  1.00  0.00     0.100 C 
HETATM   11  C   UNL     1      11.996  21.006  34.528  1.00  0.00     0.120 C 
HETATM   12  C   UNL     1      13.021  20.006  35.121  1.00  0.00     0.165 C 
HETATM   13  C   UNL     1      14.165  20.974  35.362  1.00  0.00     0.047 C 
HETATM   14  C   UNL     1      13.388  22.155  36.075  1.00  0.00     0.018 C 
HETATM   15  C   UNL     1      13.921  22.199  33.108  1.00  0.00     0.074 C 
HETATM   16  C   UNL     1      14.825  21.361  34.008  1.00  0.00     0.130 C 
HETATM   17  N   UNL     1       9.337  24.406  33.417  1.00  0.00     0.097 N 
HETATM   18  C   UNL     1      10.255  23.172  33.795  1.00  0.00     0.242 C 
HETATM   19  C   UNL     1       9.473  25.715  34.210  1.00  0.00     0.311 C 
ENDROOT
BRANCH   1  20
HETATM   20  O   UNL     1      10.415  26.854  36.274  1.00  0.00    -0.304 OA
BRANCH  20  21
HETATM   21  C   UNL     1      10.645  27.258  37.564  1.00  0.00     0.296 C 
HETATM   22  O   UNL     1      11.569  26.788  38.207  1.00  0.00    -0.259 OA
BRANCH  21  23
HETATM   23  C   UNL     1       9.740  28.209  38.271  1.00  0.00     0.066 C 
HETATM   24  C   UNL     1      10.242  29.046  39.299  1.00  0.00     0.051 C 
HETATM   25  C   UNL     1       9.323  29.749  40.091  1.00  0.00     0.030 C 
HETATM   26  C   UNL     1       7.954  29.706  39.814  1.00  0.00     0.002 C 
HETATM   27  C   UNL     1       7.488  29.001  38.708  1.00  0.00     0.001 C 
HETATM   28  C   UNL     1       8.382  28.267  37.923  1.00  0.00     0.020 C 
BRANCH  24  29
HETATM   29  N   UNL     1      11.644  29.206  39.454  1.00  0.00    -0.327 N 
HETATM   30  C   UNL     1      12.403  30.321  39.144  1.00  0.00     0.218 C 
HETATM   31  O   UNL     1      11.988  31.445  38.878  1.00  0.00    -0.274 OA
HETATM   32  C   UNL     1      13.880  30.024  39.091  1.00  0.00     0.117 C 
HETATM   33  H   UNL     1      12.154  28.348  39.666  1.00  0.00     0.169 HD
ENDBRANCH  24  29
ENDBRANCH  21  23
ENDBRANCH  20  21
ENDBRANCH   1  20
BRANCH  17  34
HETATM   34  C   UNL     1       9.373  24.790  31.988  1.00  0.00     0.268 C 
HETATM   35  C   UNL     1       9.311  26.280  31.720  1.00  0.00     0.037 C 
ENDBRANCH  17  34
BRANCH   4  36
HETATM   36  O   UNL     1      10.108  22.744  37.812  1.00  0.00    -0.390 OA
HETATM   37  C   UNL     1       9.398  22.085  38.851  1.00  0.00     0.202 C 
ENDBRANCH   4  36
BRANCH  11  38
HETATM   38  O   UNL     1      10.761  20.340  34.284  1.00  0.00    -0.384 OA
HETATM   39  H   UNL     1      10.087  21.030  34.453  1.00  0.00     0.210 HD
ENDBRANCH  11  38
BRANCH  10  40
HETATM   40  O   UNL     1      11.915  21.302  32.134  1.00  0.00    -0.386 OA
HETATM   41  H   UNL     1      12.387  20.457  32.032  1.00  0.00     0.210 HD
ENDBRANCH  10  40
BRANCH  12  42
HETATM   42  O   UNL     1      13.271  18.815  34.403  1.00  0.00    -0.387 OA
HETATM   43  C   UNL     1      13.724  17.761  35.261  1.00  0.00     0.202 C 
ENDBRANCH  12  42
BRANCH  16  44
HETATM   44  O   UNL     1      15.463  20.248  33.359  1.00  0.00    -0.390 OA
HETATM   45  C   UNL     1      15.465  20.187  31.933  1.00  0.00     0.202 C 
ENDBRANCH  16  44
TORSDOF 10
ENDMDL
MODEL 5
REMARK VINA RESULT:    -7.919      2.998      8.447
REMARK INTER + INTRA:         -13.731
REMARK INTER:                 -11.508
REMARK INTRA:                  -2.223
REMARK UNBOUND:                -1.646
REMARK  10 active torsions:
REMARK  status: ('A' for Active; 'I' for Inactive)
REMARK    1  A    between atoms: C_2  and  N_7 
REMARK    2  A    between atoms: C_3  and  C_11 
REMARK       I    between atoms: N_7  and  C_8 
REMARK    3  A    between atoms: C_11  and  O_12 
REMARK    4  A    between atoms: O_12  and  C_14 
REMARK    5  A    between atoms: C_17  and  O_38 
REMARK    6  A    between atoms: C_23  and  O_30 
REMARK    7  A    between atoms: C_24  and  O_31 
REMARK    8  A    between atoms: C_25  and  O_34 
REMARK    9  A    between atoms: C_29  and  O_32 
REMARK   10  A    between atoms: N_36  and  C_41 
ROOT
HETATM    1  C   UNL     1       9.393  24.811  35.980  1.00  0.00     0.102 C 
HETATM    2  C   UNL     1      10.659  23.762  36.052  1.00  0.00     0.037 C 
HETATM    3  C   UNL     1      10.443  22.277  35.655  1.00  0.00     0.030 C 
HETATM    4  C   UNL     1       9.127  21.745  36.345  1.00  0.00     0.132 C 
HETATM    5  C   UNL     1       7.908  22.600  36.018  1.00  0.00     0.036 C 
HETATM    6  C   UNL     1       8.095  24.051  36.494  1.00  0.00     0.043 C 
HETATM    7  C   UNL     1      11.873  24.063  35.039  1.00  0.00     0.018 C 
HETATM    8  C   UNL     1      11.608  21.294  36.036  1.00  0.00     0.040 C 
HETATM    9  C   UNL     1      11.782  23.018  33.819  1.00  0.00     0.058 C 
HETATM   10  C   UNL     1      12.610  21.639  33.804  1.00  0.00     0.100 C 
HETATM   11  C   UNL     1      12.045  20.527  34.802  1.00  0.00     0.120 C 
HETATM   12  C   UNL     1      13.012  19.539  35.504  1.00  0.00     0.165 C 
HETATM   13  C   UNL     1      14.000  20.547  36.061  1.00  0.00     0.047 C 
HETATM   14  C   UNL     1      13.000  21.595  36.700  1.00  0.00     0.018 C 
HETATM   15  C   UNL     1      14.109  21.982  33.924  1.00  0.00     0.074 C 
HETATM   16  C   UNL     1      14.882  21.114  34.913  1.00  0.00     0.130 C 
HETATM   17  N   UNL     1       9.388  23.847  33.472  1.00  0.00     0.097 N 
HETATM   18  C   UNL     1      10.311  22.642  33.921  1.00  0.00     0.242 C 
HETATM   19  C   UNL     1       9.252  25.074  34.388  1.00  0.00     0.311 C 
ENDROOT
BRANCH   1  20
HETATM   20  O   UNL     1       9.664  26.049  36.695  1.00  0.00    -0.304 OA
BRANCH  20  21
HETATM   21  C   UNL     1       8.818  27.066  37.057  1.00  0.00     0.296 C 
HETATM   22  O   UNL     1       8.037  27.542  36.249  1.00  0.00    -0.259 OA
BRANCH  21  23
HETATM   23  C   UNL     1       8.869  27.699  38.406  1.00  0.00     0.066 C 
HETATM   24  C   UNL     1       9.554  27.062  39.471  1.00  0.00     0.051 C 
HETATM   25  C   UNL     1       9.382  27.566  40.768  1.00  0.00     0.030 C 
HETATM   26  C   UNL     1       8.635  28.726  40.995  1.00  0.00     0.002 C 
HETATM   27  C   UNL     1       8.094  29.428  39.922  1.00  0.00     0.001 C 
HETATM   28  C   UNL     1       8.226  28.927  38.624  1.00  0.00     0.020 C 
BRANCH  24  29
HETATM   29  N   UNL     1      10.441  25.989  39.194  1.00  0.00    -0.327 N 
HETATM   30  C   UNL     1      10.354  24.686  39.653  1.00  0.00     0.218 C 
HETATM   31  O   UNL     1       9.393  24.162  40.207  1.00  0.00    -0.274 OA
HETATM   32  C   UNL     1      11.637  23.916  39.468  1.00  0.00     0.117 C 
HETATM   33  H   UNL     1      11.314  26.258  38.740  1.00  0.00     0.169 HD
ENDBRANCH  24  29
ENDBRANCH  21  23
ENDBRANCH  20  21
ENDBRANCH   1  20
BRANCH  17  34
HETATM   34  C   UNL     1       9.676  24.379  32.121  1.00  0.00     0.268 C 
HETATM   35  C   UNL     1       9.261  25.819  31.894  1.00  0.00     0.037 C 
ENDBRANCH  17  34
BRANCH   4  36
HETATM   36  O   UNL     1       9.401  21.790  37.766  1.00  0.00    -0.390 OA
HETATM   37  C   UNL     1       8.462  21.111  38.587  1.00  0.00     0.202 C 
ENDBRANCH   4  36
BRANCH  11  38
HETATM   38  O   UNL     1      10.944  19.812  34.250  1.00  0.00    -0.384 OA
HETATM   39  H   UNL     1      10.975  18.947  34.708  1.00  0.00     0.210 HD
ENDBRANCH  11  38
BRANCH  10  40
HETATM   40  O   UNL     1      12.420  21.064  32.479  1.00  0.00    -0.386 OA
HETATM   41  H   UNL     1      12.940  21.580  31.839  1.00  0.00     0.210 HD
ENDBRANCH  10  40
BRANCH  12  42
HETATM   42  O   UNL     1      13.499  18.447  34.750  1.00  0.00    -0.387 OA
HETATM   43  C   UNL     1      13.997  17.399  35.591  1.00  0.00     0.202 C 
ENDBRANCH  12  42
BRANCH  16  44
HETATM   44  O   UNL     1      15.728  20.118  34.314  1.00  0.00    -0.390 OA
HETATM   45  C   UNL     1      15.988  20.183  32.912  1.00  0.00     0.202 C 
ENDBRANCH  16  44
TORSDOF 10
ENDMDL
MODEL 6
REMARK VINA RESULT:    -7.700      2.870      8.167
REMARK INTER + INTRA:         -13.397
REMARK INTER:                 -10.626
REMARK INTRA:                  -2.771
REMARK UNBOUND:                -1.646
REMARK  10 active torsions:
REMARK  status: ('A' for Active; 'I' for Inactive)
REMARK    1  A    between atoms: C_2  and  N_7 
REMARK    2  A    between atoms: C_3  and  C_11 
REMARK       I    between atoms: N_7  and  C_8 
REMARK    3  A    between atoms: C_11  and  O_12 
REMARK    4  A    between atoms: O_12  and  C_14 
REMARK    5  A    between atoms: C_17  and  O_38 
REMARK    6  A    between atoms: C_23  and  O_30 
REMARK    7  A    between atoms: C_24  and  O_31 
REMARK    8  A    between atoms: C_25  and  O_34 
REMARK    9  A    between atoms: C_29  and  O_32 
REMARK   10  A    between atoms: N_36  and  C_41 
ROOT
HETATM    1  C   UNL     1      10.413  24.353  37.120  1.00  0.00     0.102 C 
HETATM    2  C   UNL     1      10.791  22.928  36.389  1.00  0.00     0.037 C 
HETATM    3  C   UNL     1      11.683  22.936  35.117  1.00  0.00     0.030 C 
HETATM    4  C   UNL     1      11.160  24.048  34.128  1.00  0.00     0.132 C 
HETATM    5  C   UNL     1      11.092  25.425  34.778  1.00  0.00     0.036 C 
HETATM    6  C   UNL     1      10.138  25.431  35.984  1.00  0.00     0.043 C 
HETATM    7  C   UNL     1      11.692  21.916  37.256  1.00  0.00     0.018 C 
HETATM    8  C   UNL     1      11.743  21.582  34.320  1.00  0.00     0.040 C 
HETATM    9  C   UNL     1      13.199  21.976  36.696  1.00  0.00     0.058 C 
HETATM   10  C   UNL     1      13.753  20.934  35.603  1.00  0.00     0.100 C 
HETATM   11  C   UNL     1      13.191  21.175  34.127  1.00  0.00     0.120 C 
HETATM   12  C   UNL     1      12.944  19.977  33.175  1.00  0.00     0.165 C 
HETATM   13  C   UNL     1      12.117  19.114  34.110  1.00  0.00     0.047 C 
HETATM   14  C   UNL     1      11.091  20.192  34.651  1.00  0.00     0.018 C 
HETATM   15  C   UNL     1      13.599  19.512  36.180  1.00  0.00     0.074 C 
HETATM   16  C   UNL     1      13.030  18.488  35.201  1.00  0.00     0.130 C 
HETATM   17  N   UNL     1      13.096  24.501  37.092  1.00  0.00     0.097 N 
HETATM   18  C   UNL     1      13.160  23.338  36.019  1.00  0.00     0.242 C 
HETATM   19  C   UNL     1      11.794  24.730  37.876  1.00  0.00     0.311 C 
ENDROOT
BRANCH   1  20
HETATM   20  O   UNL     1       9.317  24.211  38.066  1.00  0.00    -0.304 OA
BRANCH  20  21
HETATM   21  C   UNL     1       9.334  23.895  39.400  1.00  0.00     0.296 C 
HETATM   22  O   UNL     1       9.683  24.718  40.230  1.00  0.00    -0.259 OA
BRANCH  21  23
HETATM   23  C   UNL     1       9.020  22.523  39.895  1.00  0.00     0.066 C 
HETATM   24  C   UNL     1       7.967  21.775  39.311  1.00  0.00     0.051 C 
HETATM   25  C   UNL     1       7.554  20.599  39.952  1.00  0.00     0.030 C 
HETATM   26  C   UNL     1       8.225  20.121  41.081  1.00  0.00     0.002 C 
HETATM   27  C   UNL     1       9.353  20.785  41.555  1.00  0.00     0.001 C 
HETATM   28  C   UNL     1       9.764  21.977  40.951  1.00  0.00     0.020 C 
BRANCH  24  29
HETATM   29  N   UNL     1       7.412  22.190  38.072  1.00  0.00    -0.327 N 
HETATM   30  C   UNL     1       7.601  21.611  36.830  1.00  0.00     0.218 C 
HETATM   31  O   UNL     1       8.107  20.518  36.595  1.00  0.00    -0.274 OA
HETATM   32  C   UNL     1       7.168  22.507  35.697  1.00  0.00     0.117 C 
HETATM   33  H   UNL     1       6.958  23.104  38.089  1.00  0.00     0.169 HD
ENDBRANCH  24  29
ENDBRANCH  21  23
ENDBRANCH  20  21
ENDBRANCH   1  20
BRANCH  17  34
HETATM   34  C   UNL     1      14.179  24.474  38.100  1.00  0.00     0.268 C 
HETATM   35  C   UNL     1      13.717  24.361  39.539  1.00  0.00     0.037 C 
ENDBRANCH  17  34
BRANCH   4  36
HETATM   36  O   UNL     1       9.835  23.615  33.738  1.00  0.00    -0.390 OA
HETATM   37  C   UNL     1       9.416  24.027  32.445  1.00  0.00     0.202 C 
ENDBRANCH   4  36
BRANCH  11  38
HETATM   38  O   UNL     1      13.903  22.198  33.437  1.00  0.00    -0.384 OA
HETATM   39  H   UNL     1      13.239  22.910  33.327  1.00  0.00     0.210 HD
ENDBRANCH  11  38
BRANCH  10  40
HETATM   40  O   UNL     1      15.183  21.184  35.490  1.00  0.00    -0.386 OA
HETATM   41  H   UNL     1      15.321  21.944  34.899  1.00  0.00     0.210 HD
ENDBRANCH  10  40
BRANCH  12  42
HETATM   42  O   UNL     1      14.065  19.407  32.529  1.00  0.00    -0.387 OA
HETATM   43  C   UNL     1      13.849  19.258  31.121  1.00  0.00     0.202 C 
ENDBRANCH  12  42
BRANCH  16  44
HETATM   44  O   UNL     1      13.992  17.564  34.662  1.00  0.00    -0.390 OA
HETATM   45  C   UNL     1      13.595  16.214  34.422  1.00  0.00     0.202 C 
ENDBRANCH  16  44
TORSDOF 10
ENDMDL
MODEL 7
REMARK VINA RESULT:    -7.673      3.423      8.237
REMARK INTER + INTRA:         -13.356
REMARK INTER:                 -11.503
REMARK INTRA:                  -1.853
REMARK UNBOUND:                -1.646
REMARK  10 active torsions:
REMARK  status: ('A' for Active; 'I' for Inactive)
REMARK    1  A    between atoms: C_2  and  N_7 
REMARK    2  A    between atoms: C_3  and  C_11 
REMARK       I    between atoms: N_7  and  C_8 
REMARK    3  A    between atoms: C_11  and  O_12 
REMARK    4  A    between atoms: O_12  and  C_14 
REMARK    5  A    between atoms: C_17  and  O_38 
REMARK    6  A    between atoms: C_23  and  O_30 
REMARK    7  A    between atoms: C_24  and  O_31 
REMARK    8  A    between atoms: C_25  and  O_34 
REMARK    9  A    between atoms: C_29  and  O_32 
REMARK   10  A    between atoms: N_36  and  C_41 
ROOT
HETATM    1  C   UNL     1       9.439  25.567  35.619  1.00  0.00     0.102 C 
HETATM    2  C   UNL     1      10.731  24.549  35.660  1.00  0.00     0.037 C 
HETATM    3  C   UNL     1      10.510  23.027  35.444  1.00  0.00     0.030 C 
HETATM    4  C   UNL     1       9.290  22.554  36.326  1.00  0.00     0.132 C 
HETATM    5  C   UNL     1       8.022  23.354  36.047  1.00  0.00     0.036 C 
HETATM    6  C   UNL     1       8.223  24.849  36.347  1.00  0.00     0.043 C 
HETATM    7  C   UNL     1      11.821  24.757  34.494  1.00  0.00     0.018 C 
HETATM    8  C   UNL     1      11.733  22.105  35.796  1.00  0.00     0.040 C 
HETATM    9  C   UNL     1      11.626  23.588  33.406  1.00  0.00     0.058 C 
HETATM   10  C   UNL     1      12.481  22.226  33.444  1.00  0.00     0.100 C 
HETATM   11  C   UNL     1      12.054  21.218  34.608  1.00  0.00     0.120 C 
HETATM   12  C   UNL     1      13.114  20.322  35.298  1.00  0.00     0.165 C 
HETATM   13  C   UNL     1      14.131  21.397  35.636  1.00  0.00     0.047 C 
HETATM   14  C   UNL     1      13.180  22.493  36.269  1.00  0.00     0.018 C 
HETATM   15  C   UNL     1      13.975  22.599  33.363  1.00  0.00     0.074 C 
HETATM   16  C   UNL     1      14.870  21.851  34.346  1.00  0.00     0.130 C 
HETATM   17  N   UNL     1       9.188  24.344  33.240  1.00  0.00     0.097 N 
HETATM   18  C   UNL     1      10.184  23.205  33.707  1.00  0.00     0.242 C 
HETATM   19  C   UNL     1       9.122  25.659  34.034  1.00  0.00     0.311 C 
ENDROOT
BRANCH   1  20
HETATM   20  O   UNL     1       9.755  26.877  36.168  1.00  0.00    -0.304 OA
BRANCH  20  21
HETATM   21  C   UNL     1       8.938  27.945  36.438  1.00  0.00     0.296 C 
HETATM   22  O   UNL     1       8.016  27.838  37.230  1.00  0.00    -0.259 OA
BRANCH  21  23
HETATM   23  C   UNL     1       9.071  29.247  35.724  1.00  0.00     0.066 C 
HETATM   24  C   UNL     1       9.293  30.444  36.450  1.00  0.00     0.051 C 
HETATM   25  C   UNL     1       9.179  31.665  35.771  1.00  0.00     0.030 C 
HETATM   26  C   UNL     1       8.951  31.702  34.392  1.00  0.00     0.002 C 
HETATM   27  C   UNL     1       8.886  30.518  33.664  1.00  0.00     0.001 C 
HETATM   28  C   UNL     1       8.966  29.288  34.325  1.00  0.00     0.020 C 
BRANCH  24  29
HETATM   29  N   UNL     1       9.690  30.376  37.812  1.00  0.00    -0.327 N 
HETATM   30  C   UNL     1       8.953  30.750  38.922  1.00  0.00     0.218 C 
HETATM   31  O   UNL     1       7.754  31.009  38.958  1.00  0.00    -0.274 OA
HETATM   32  C   UNL     1       9.798  30.887  40.163  1.00  0.00     0.117 C 
HETATM   33  H   UNL     1      10.680  30.180  37.963  1.00  0.00     0.169 HD
ENDBRANCH  24  29
ENDBRANCH  21  23
ENDBRANCH  20  21
ENDBRANCH   1  20
BRANCH  17  34
HETATM   34  C   UNL     1       9.316  24.735  31.818  1.00  0.00     0.268 C 
HETATM   35  C   UNL     1       9.307  26.227  31.556  1.00  0.00     0.037 C 
ENDBRANCH  17  34
BRANCH   4  36
HETATM   36  O   UNL     1       9.713  22.752  37.696  1.00  0.00    -0.390 OA
HETATM   37  C   UNL     1       9.117  21.883  38.648  1.00  0.00     0.202 C 
ENDBRANCH   4  36
BRANCH  11  38
HETATM   38  O   UNL     1      10.918  20.435  34.256  1.00  0.00    -0.384 OA
HETATM   39  H   UNL     1      11.296  19.555  34.051  1.00  0.00     0.210 HD
ENDBRANCH  11  38
BRANCH  10  40
HETATM   40  O   UNL     1      12.163  21.512  32.214  1.00  0.00    -0.386 OA
HETATM   41  H   UNL     1      12.524  20.611  32.275  1.00  0.00     0.210 HD
ENDBRANCH  10  40
BRANCH  12  42
HETATM   42  O   UNL     1      13.544  19.163  34.612  1.00  0.00    -0.387 OA
HETATM   43  C   UNL     1      13.841  18.091  35.514  1.00  0.00     0.202 C 
ENDBRANCH  12  42
BRANCH  16  44
HETATM   44  O   UNL     1      15.672  20.808  33.764  1.00  0.00    -0.390 OA
HETATM   45  C   UNL     1      15.800  20.745  32.344  1.00  0.00     0.202 C 
ENDBRANCH  16  44
TORSDOF 10
ENDMDL
MODEL 8
REMARK VINA RESULT:    -7.574     30.423     31.990
REMARK INTER + INTRA:         -13.205
REMARK INTER:                 -11.332
REMARK INTRA:                  -1.873
REMARK UNBOUND:                -1.646
REMARK  10 active torsions:
REMARK  status: ('A' for Active; 'I' for Inactive)
REMARK    1  A    between atoms: C_2  and  N_7 
REMARK    2  A    between atoms: C_3  and  C_11 
REMARK       I    between atoms: N_7  and  C_8 
REMARK    3  A    between atoms: C_11  and  O_12 
REMARK    4  A    between atoms: O_12  and  C_14 
REMARK    5  A    between atoms: C_17  and  O_38 
REMARK    6  A    between atoms: C_23  and  O_30 
REMARK    7  A    between atoms: C_24  and  O_31 
REMARK    8  A    between atoms: C_25  and  O_34 
REMARK    9  A    between atoms: C_29  and  O_32 
REMARK   10  A    between atoms: N_36  and  C_41 
ROOT
HETATM    1  C   UNL     1     -10.064   4.911  18.282  1.00  0.00     0.102 C 
HETATM    2  C   UNL     1     -11.288   5.797  18.935  1.00  0.00     0.037 C 
HETATM    3  C   UNL     1     -12.691   5.152  19.104  1.00  0.00     0.030 C 
HETATM    4  C   UNL     1     -13.078   4.405  17.769  1.00  0.00     0.132 C 
HETATM    5  C   UNL     1     -12.033   3.379  17.348  1.00  0.00     0.036 C 
HETATM    6  C   UNL     1     -10.666   4.039  17.097  1.00  0.00     0.043 C 
HETATM    7  C   UNL     1     -11.087   6.239  20.469  1.00  0.00     0.018 C 
HETATM    8  C   UNL     1     -13.859   6.146  19.447  1.00  0.00     0.040 C 
HETATM    9  C   UNL     1     -12.009   5.296  21.390  1.00  0.00     0.058 C 
HETATM   10  C   UNL     1     -13.488   5.726  21.854  1.00  0.00     0.100 C 
HETATM   11  C   UNL     1     -14.581   5.664  20.691  1.00  0.00     0.120 C 
HETATM   12  C   UNL     1     -15.751   6.680  20.658  1.00  0.00     0.165 C 
HETATM   13  C   UNL     1     -14.944   7.958  20.795  1.00  0.00     0.047 C 
HETATM   14  C   UNL     1     -13.815   7.693  19.717  1.00  0.00     0.018 C 
HETATM   15  C   UNL     1     -13.376   7.054  22.630  1.00  0.00     0.074 C 
HETATM   16  C   UNL     1     -14.422   8.100  22.253  1.00  0.00     0.130 C 
HETATM   17  N   UNL     1     -10.817   3.310  20.305  1.00  0.00     0.097 N 
HETATM   18  C   UNL     1     -12.175   4.112  20.449  1.00  0.00     0.242 C 
HETATM   19  C   UNL     1      -9.660   3.928  19.503  1.00  0.00     0.311 C 
ENDROOT
BRANCH   1  20
HETATM   20  O   UNL     1      -8.939   5.741  17.880  1.00  0.00    -0.304 OA
BRANCH  20  21
HETATM   21  C   UNL     1      -7.792   6.066  18.558  1.00  0.00     0.296 C 
HETATM   22  O   UNL     1      -7.831   6.801  19.531  1.00  0.00    -0.259 OA
BRANCH  21  23
HETATM   23  C   UNL     1      -6.445   5.621  18.098  1.00  0.00     0.066 C 
HETATM   24  C   UNL     1      -6.280   5.050  16.812  1.00  0.00     0.051 C 
HETATM   25  C   UNL     1      -5.056   4.435  16.510  1.00  0.00     0.030 C 
HETATM   26  C   UNL     1      -3.991   4.470  17.414  1.00  0.00     0.002 C 
HETATM   27  C   UNL     1      -4.117   5.166  18.612  1.00  0.00     0.001 C 
HETATM   28  C   UNL     1      -5.338   5.760  18.948  1.00  0.00     0.020 C 
BRANCH  24  29
HETATM   29  N   UNL     1      -7.316   5.174  15.849  1.00  0.00    -0.327 N 
HETATM   30  C   UNL     1      -7.886   4.165  15.092  1.00  0.00     0.218 C 
HETATM   31  O   UNL     1      -7.755   2.956  15.256  1.00  0.00    -0.274 OA
HETATM   32  C   UNL     1      -8.687   4.691  13.928  1.00  0.00     0.117 C 
HETATM   33  H   UNL     1      -7.544   6.132  15.583  1.00  0.00     0.169 HD
ENDBRANCH  24  29
ENDBRANCH  21  23
ENDBRANCH  20  21
ENDBRANCH   1  20
BRANCH  17  34
HETATM   34  C   UNL     1     -10.228   2.854  21.583  1.00  0.00     0.268 C 
HETATM   35  C   UNL     1      -8.860   3.422  21.901  1.00  0.00     0.037 C 
ENDBRANCH  17  34
BRANCH   4  36
HETATM   36  O   UNL     1     -13.185   5.447  16.770  1.00  0.00    -0.390 OA
HETATM   37  C   UNL     1     -14.001   5.134  15.650  1.00  0.00     0.202 C 
ENDBRANCH   4  36
BRANCH  11  38
HETATM   38  O   UNL     1     -15.083   4.346  20.489  1.00  0.00    -0.384 OA
HETATM   39  H   UNL     1     -15.743   4.237  21.205  1.00  0.00     0.210 HD
ENDBRANCH  11  38
BRANCH  10  40
HETATM   40  O   UNL     1     -13.923   4.720  22.812  1.00  0.00    -0.386 OA
HETATM   41  H   UNL     1     -14.295   3.965  22.324  1.00  0.00     0.210 HD
ENDBRANCH  10  40
BRANCH  12  42
HETATM   42  O   UNL     1     -16.840   6.460  21.532  1.00  0.00    -0.387 OA
HETATM   43  C   UNL     1     -18.034   7.099  21.067  1.00  0.00     0.202 C 
ENDBRANCH  12  42
BRANCH  16  44
HETATM   44  O   UNL     1     -15.480   8.273  23.211  1.00  0.00    -0.390 OA
HETATM   45  C   UNL     1     -15.506   7.441  24.371  1.00  0.00     0.202 C 
ENDBRANCH  16  44
TORSDOF 10
ENDMDL
MODEL 9
REMARK VINA RESULT:    -7.524      3.769      8.996
REMARK INTER + INTRA:         -13.128
REMARK INTER:                 -11.407
REMARK INTRA:                  -1.722
REMARK UNBOUND:                -1.646
REMARK  10 active torsions:
REMARK  status: ('A' for Active; 'I' for Inactive)
REMARK    1  A    between atoms: C_2  and  N_7 
REMARK    2  A    between atoms: C_3  and  C_11 
REMARK       I    between atoms: N_7  and  C_8 
REMARK    3  A    between atoms: C_11  and  O_12 
REMARK    4  A    between atoms: O_12  and  C_14 
REMARK    5  A    between atoms: C_17  and  O_38 
REMARK    6  A    between atoms: C_23  and  O_30 
REMARK    7  A    between atoms: C_24  and  O_31 
REMARK    8  A    between atoms: C_25  and  O_34 
REMARK    9  A    between atoms: C_29  and  O_32 
REMARK   10  A    between atoms: N_36  and  C_41 
ROOT
HETATM    1  C   UNL     1      11.144  24.746  37.884  1.00  0.00     0.102 C 
HETATM    2  C   UNL     1      11.514  24.820  36.283  1.00  0.00     0.037 C 
HETATM    3  C   UNL     1      11.679  23.503  35.476  1.00  0.00     0.030 C 
HETATM    4  C   UNL     1      12.581  22.505  36.300  1.00  0.00     0.132 C 
HETATM    5  C   UNL     1      12.039  22.245  37.700  1.00  0.00     0.036 C 
HETATM    6  C   UNL     1      11.961  23.542  38.523  1.00  0.00     0.043 C 
HETATM    7  C   UNL     1      10.397  25.491  35.339  1.00  0.00     0.018 C 
HETATM    8  C   UNL     1      12.320  23.655  34.049  1.00  0.00     0.040 C 
HETATM    9  C   UNL     1       9.631  24.316  34.550  1.00  0.00     0.058 C 
HETATM   10  C   UNL     1      10.060  23.851  33.071  1.00  0.00     0.100 C 
HETATM   11  C   UNL     1      11.415  23.008  33.018  1.00  0.00     0.120 C 
HETATM   12  C   UNL     1      12.368  23.127  31.802  1.00  0.00     0.165 C 
HETATM   13  C   UNL     1      12.479  24.640  31.752  1.00  0.00     0.047 C 
HETATM   14  C   UNL     1      12.760  24.951  33.278  1.00  0.00     0.018 C 
HETATM   15  C   UNL     1       9.971  25.079  32.141  1.00  0.00     0.074 C 
HETATM   16  C   UNL     1      11.160  25.250  31.200  1.00  0.00     0.130 C 
HETATM   17  N   UNL     1       9.142  23.290  36.841  1.00  0.00     0.097 N 
HETATM   18  C   UNL     1       9.937  23.151  35.479  1.00  0.00     0.242 C 
HETATM   19  C   UNL     1       9.572  24.358  37.858  1.00  0.00     0.311 C 
ENDROOT
BRANCH   1  20
HETATM   20  O   UNL     1      11.360  26.018  38.557  1.00  0.00    -0.304 OA
BRANCH  20  21
HETATM   21  C   UNL     1      10.654  26.616  39.570  1.00  0.00     0.296 C 
HETATM   22  O   UNL     1      10.736  26.201  40.714  1.00  0.00    -0.259 OA
BRANCH  21  23
HETATM   23  C   UNL     1       9.694  27.729  39.318  1.00  0.00     0.066 C 
HETATM   24  C   UNL     1       9.704  28.884  40.139  1.00  0.00     0.051 C 
HETATM   25  C   UNL     1       8.643  29.793  40.020  1.00  0.00     0.030 C 
HETATM   26  C   UNL     1       7.653  29.619  39.049  1.00  0.00     0.002 C 
HETATM   27  C   UNL     1       7.737  28.562  38.148  1.00  0.00     0.001 C 
HETATM   28  C   UNL     1       8.769  27.625  38.268  1.00  0.00     0.020 C 
BRANCH  24  29
HETATM   29  N   UNL     1      10.807  29.125  40.999  1.00  0.00    -0.327 N 
HETATM   30  C   UNL     1      11.927  29.894  40.735  1.00  0.00     0.218 C 
HETATM   31  O   UNL     1      12.082  30.676  39.802  1.00  0.00    -0.274 OA
HETATM   32  C   UNL     1      13.050  29.642  41.709  1.00  0.00     0.117 C 
HETATM   33  H   UNL     1      10.840  28.537  41.832  1.00  0.00     0.169 HD
ENDBRANCH  24  29
ENDBRANCH  21  23
ENDBRANCH  20  21
ENDBRANCH   1  20
BRANCH  17  34
HETATM   34  C   UNL     1       7.677  23.438  36.690  1.00  0.00     0.268 C 
HETATM   35  C   UNL     1       6.972  22.258  36.053  1.00  0.00     0.037 C 
ENDBRANCH  17  34
BRANCH   4  36
HETATM   36  O   UNL     1      13.878  23.143  36.378  1.00  0.00    -0.390 OA
HETATM   37  C   UNL     1      14.951  22.295  36.760  1.00  0.00     0.202 C 
ENDBRANCH   4  36
BRANCH  11  38
HETATM   38  O   UNL     1      11.210  21.634  33.335  1.00  0.00    -0.384 OA
HETATM   39  H   UNL     1      11.671  21.522  34.193  1.00  0.00     0.210 HD
ENDBRANCH  11  38
BRANCH  10  40
HETATM   40  O   UNL     1       9.035  22.917  32.625  1.00  0.00    -0.386 OA
HETATM   41  H   UNL     1       9.303  22.548  31.766  1.00  0.00     0.210 HD
ENDBRANCH  10  40
BRANCH  12  42
HETATM   42  O   UNL     1      12.024  22.426  30.624  1.00  0.00    -0.387 OA
HETATM   43  C   UNL     1      12.965  21.389  30.327  1.00  0.00     0.202 C 
ENDBRANCH  12  42
BRANCH  16  44
HETATM   44  O   UNL     1      10.907  24.891  29.831  1.00  0.00    -0.390 OA
HETATM   45  C   UNL     1      11.914  25.146  28.852  1.00  0.00     0.202 C 
ENDBRANCH  16  44
TORSDOF 10
ENDMDL
MODEL 10
REMARK VINA RESULT:    -7.359      3.045      5.672
REMARK INTER + INTRA:         -12.877
REMARK INTER:                 -10.780
REMARK INTRA:                  -2.097
REMARK UNBOUND:                -1.646
REMARK  10 active torsions:
REMARK  status: ('A' for Active; 'I' for Inactive)
REMARK    1  A    between atoms: C_2  and  N_7 
REMARK    2  A    between atoms: C_3  and  C_11 
REMARK       I    between atoms: N_7  and  C_8 
REMARK    3  A    between atoms: C_11  and  O_12 
REMARK    4  A    between atoms: O_12  and  C_14 
REMARK    5  A    between atoms: C_17  and  O_38 
REMARK    6  A    between atoms: C_23  and  O_30 
REMARK    7  A    between atoms: C_24  and  O_31 
REMARK    8  A    between atoms: C_25  and  O_34 
REMARK    9  A    between atoms: C_29  and  O_32 
REMARK   10  A    between atoms: N_36  and  C_41 
ROOT
HETATM    1  C   UNL     1      15.010  19.494  31.594  1.00  0.00     0.102 C 
HETATM    2  C   UNL     1      14.496  20.858  32.357  1.00  0.00     0.037 C 
HETATM    3  C   UNL     1      12.980  21.195  32.378  1.00  0.00     0.030 C 
HETATM    4  C   UNL     1      12.390  21.009  30.927  1.00  0.00     0.132 C 
HETATM    5  C   UNL     1      12.651  19.616  30.364  1.00  0.00     0.036 C 
HETATM    6  C   UNL     1      14.157  19.323  30.264  1.00  0.00     0.043 C 
HETATM    7  C   UNL     1      14.730  20.898  33.949  1.00  0.00     0.018 C 
HETATM    8  C   UNL     1      12.612  22.647  32.856  1.00  0.00     0.040 C 
HETATM    9  C   UNL     1      13.321  20.618  34.673  1.00  0.00     0.058 C 
HETATM   10  C   UNL     1      12.354  21.806  35.165  1.00  0.00     0.100 C 
HETATM   11  C   UNL     1      11.598  22.566  33.981  1.00  0.00     0.120 C 
HETATM   12  C   UNL     1      11.290  24.081  34.092  1.00  0.00     0.165 C 
HETATM   13  C   UNL     1      12.678  24.566  34.465  1.00  0.00     0.047 C 
HETATM   14  C   UNL     1      13.544  23.796  33.386  1.00  0.00     0.018 C 
HETATM   15  C   UNL     1      13.145  22.682  36.158  1.00  0.00     0.074 C 
HETATM   16  C   UNL     1      12.995  24.184  35.938  1.00  0.00     0.130 C 
HETATM   17  N   UNL     1      13.202  18.465  33.296  1.00  0.00     0.097 N 
HETATM   18  C   UNL     1      12.595  19.907  33.540  1.00  0.00     0.242 C 
HETATM   19  C   UNL     1      14.586  18.333  32.641  1.00  0.00     0.311 C 
ENDROOT
BRANCH   1  20
HETATM   20  O   UNL     1      16.447  19.499  31.368  1.00  0.00    -0.304 OA
BRANCH  20  21
HETATM   21  C   UNL     1      17.171  19.142  30.259  1.00  0.00     0.296 C 
HETATM   22  O   UNL     1      17.299  17.969  29.951  1.00  0.00    -0.259 OA
BRANCH  21  23
HETATM   23  C   UNL     1      17.905  20.145  29.434  1.00  0.00     0.066 C 
HETATM   24  C   UNL     1      17.876  20.068  28.019  1.00  0.00     0.051 C 
HETATM   25  C   UNL     1      18.760  20.877  27.292  1.00  0.00     0.030 C 
HETATM   26  C   UNL     1      19.579  21.808  27.937  1.00  0.00     0.002 C 
HETATM   27  C   UNL     1      19.488  21.980  29.315  1.00  0.00     0.001 C 
HETATM   28  C   UNL     1      18.637  21.162  30.064  1.00  0.00     0.020 C 
BRANCH  24  29
HETATM   29  N   UNL     1      16.918  19.238  27.380  1.00  0.00    -0.327 N 
HETATM   30  C   UNL     1      15.665  19.601  26.918  1.00  0.00     0.218 C 
HETATM   31  O   UNL     1      15.231  20.741  26.783  1.00  0.00    -0.274 OA
HETATM   32  C   UNL     1      14.783  18.414  26.629  1.00  0.00     0.117 C 
HETATM   33  H   UNL     1      17.122  18.239  27.414  1.00  0.00     0.169 HD
ENDBRANCH  24  29
ENDBRANCH  21  23
ENDBRANCH  20  21
ENDBRANCH   1  20
BRANCH  17  34
HETATM   34  C   UNL     1      13.235  17.596  34.493  1.00  0.00     0.268 C 
HETATM   35  C   UNL     1      13.927  16.262  34.302  1.00  0.00     0.037 C 
ENDBRANCH  17  34
BRANCH   4  36
HETATM   36  O   UNL     1      13.056  22.007  30.117  1.00  0.00    -0.390 OA
HETATM   37  C   UNL     1      12.222  22.698  29.198  1.00  0.00     0.202 C 
ENDBRANCH   4  36
BRANCH  11  38
HETATM   38  O   UNL     1      10.435  21.869  33.546  1.00  0.00    -0.384 OA
HETATM   39  H   UNL     1       9.721  22.232  34.111  1.00  0.00     0.210 HD
ENDBRANCH  11  38
BRANCH  10  40
HETATM   40  O   UNL     1      11.287  21.173  35.928  1.00  0.00    -0.386 OA
HETATM   41  H   UNL     1      11.175  20.261  35.608  1.00  0.00     0.210 HD
ENDBRANCH  10  40
BRANCH  12  42
HETATM   42  O   UNL     1      10.190  24.473  34.888  1.00  0.00    -0.387 OA
HETATM   43  C   UNL     1       9.659  25.738  34.478  1.00  0.00     0.202 C 
ENDBRANCH  12  42
BRANCH  16  44
HETATM   44  O   UNL     1      12.145  24.854  36.885  1.00  0.00    -0.390 OA
HETATM   45  C   UNL     1      12.169  24.440  38.251  1.00  0.00     0.202 C 
ENDBRANCH  16  44
TORSDOF 10
ENDMDL
