MODEL 1
REMARK VINA RESULT:     -10.2      0.000      0.000
REMARK  21 active torsions:
REMARK  status: ('A' for Active; 'I' for Inactive)
REMARK    1  A    between atoms: C_3  and  O_78 
REMARK    2  A    between atoms: C_5  and  O_77 
REMARK    3  A    between atoms: C_6  and  O_76 
REMARK    4  A    between atoms: C_7  and  O_15 
REMARK    5  A    between atoms: C_8  and  C_17 
REMARK    6  A    between atoms: C_9  and  O_13 
REMARK    7  A    between atoms: C_16  and  O_24 
REMARK    8  A    between atoms: C_18  and  O_22 
REMARK    9  A    between atoms: C_19  and  C_72 
REMARK   10  A    between atoms: C_20  and  O_23 
REMARK   11  A    between atoms: C_28  and  O_32 
REMARK   12  A    between atoms: C_30  and  O_33 
REMARK   13  A    between atoms: C_37  and  O_42 
REMARK   14  A    between atoms: C_39  and  O_43 
REMARK   15  A    between atoms: C_46  and  O_67 
REMARK   16  A    between atoms: C_48  and  O_65 
REMARK   17  A    between atoms: C_49  and  C_52 
REMARK   18  A    between atoms: C_50  and  O_66 
REMARK   19  A    between atoms: C_52  and  O_60 
REMARK   20  A    between atoms: C_54  and  O_60 
REMARK   21  A    between atoms: C_72  and  O_73 
ROOT
HETATM    1  C   UNK     0      17.898  40.687  15.343  0.00  0.00     0.058 A 
HETATM    2  C   UNK     0      18.660  40.421  16.471  0.00  0.00     0.060 A 
HETATM    3  C   UNK     0      17.797  41.972  14.843  0.00  0.00     0.102 A 
HETATM    4  C   UNK     0      19.338  41.465  17.115  0.00  0.00     0.127 A 
HETATM    5  C   UNK     0      18.464  43.006  15.472  0.00  0.00     0.135 A 
HETATM    6  C   UNK     0      19.228  42.749  16.598  0.00  0.00     0.137 A 
HETATM    7  C   UNK     0      22.235  39.720  20.728  0.00  0.00     0.114 A 
HETATM    8  C   UNK     0      21.746  38.416  20.752  0.00  0.00     0.030 A 
HETATM    9  C   UNK     0      21.695  40.687  19.893  0.00  0.00     0.134 A 
HETATM   10  C   UNK     0      20.682  38.104  19.897  0.00  0.00     0.059 A 
HETATM   11  C   UNK     0      20.643  40.374  19.053  0.00  0.00     0.116 A 
HETATM   12  C   UNK     0      20.156  39.085  19.075  0.00  0.00     0.329 A 
HETATM   13  O   UNK     0      20.117  41.360  18.250  0.00  0.00    -0.304 OA
HETATM   14  C   UNK     0      20.039  36.791  19.777  0.00  0.00     0.295 C 
HETATM   15  C   UNK     0      21.150  28.941  21.663  0.00  0.00     0.026 A 
HETATM   16  C   UNK     0      20.364  29.782  20.880  0.00  0.00     0.006 A 
HETATM   17  C   UNK     0      22.023  29.431  22.616  0.00  0.00     0.111 A 
HETATM   18  C   UNK     0      20.487  31.169  21.083  0.00  0.00     0.054 A 
HETATM   19  C   UNK     0      22.136  30.792  22.807  0.00  0.00     0.100 A 
HETATM   20  C   UNK     0      21.370  31.650  22.041  0.00  0.00     0.058 A 
HETATM   21  O   UNK     0      21.048  27.595  21.493  0.00  0.00     0.000 OA
HETATM   22  C   UNK     0      19.108  27.742  20.284  0.00  0.00     0.026 A 
HETATM   23  C   UNK     0      19.440  29.042  19.906  0.00  0.00     0.006 A 
HETATM   24  C   UNK     0      18.311  26.931  19.495  0.00  0.00     0.111 A 
HETATM   25  C   UNK     0      18.928  29.512  18.688  0.00  0.00     0.054 A 
HETATM   26  C   UNK     0      17.819  27.408  18.297  0.00  0.00     0.100 A 
HETATM   27  C   UNK     0      18.131  28.693  17.903  0.00  0.00     0.058 A 
HETATM   28  C   UNK     0      19.184  30.839  18.151  0.00  0.00     0.294 C 
HETATM   29  O   UNK     0      19.587  27.253  21.459  0.00  0.00     0.000 OA
HETATM   30  O   UNK     0      20.259  31.087  17.654  0.00  0.00    -0.259 OA
HETATM   31  C   UNK     0      17.524  33.876  17.146  0.00  0.00     0.302 C 
HETATM   32  C   UNK     0      18.666  33.032  17.657  0.00  0.00     0.220 C 
HETATM   33  O   UNK     0      18.068  35.051  16.531  0.00  0.00    -0.348 OA
HETATM   34  C   UNK     0      19.348  33.812  18.731  0.00  0.00     0.198 C 
HETATM   35  C   UNK     0      18.937  35.875  17.336  0.00  0.00     0.181 C 
HETATM   36  C   UNK     0      20.019  35.011  18.074  0.00  0.00     0.195 C 
HETATM   37  C   UNK     0      19.655  36.883  16.426  0.00  0.00     0.212 C 
HETATM   38  O   UNK     0      20.290  32.977  19.392  0.00  0.00    -0.306 OA
HETATM   39  O   UNK     0      20.670  35.807  19.068  0.00  0.00    -0.307 OA
HETATM   40  O   UNK     0      18.215  31.799  18.180  0.00  0.00    -0.304 OA
HETATM   41  O   UNK     0      18.851  37.998  16.057  0.00  0.00    -0.328 OA
HETATM   42  C   UNK     0      19.722  32.199  20.366  0.00  0.00     0.294 C 
HETATM   43  O   UNK     0      18.567  32.388  20.664  0.00  0.00    -0.259 OA
HETATM   44  O   UNK     0      18.940  36.598  20.245  0.00  0.00    -0.259 OA
HETATM   45  C   UNK     0      18.710  39.029  16.934  0.00  0.00     0.179 C 
HETATM   46  O   UNK     0      18.667  38.798  18.121  0.00  0.00    -0.383 OA
HETATM   47  H   UNK     0      21.607  26.969  22.058  0.00  0.00     0.000 HD
HETATM   48  H   UNK     0      19.360  26.308  21.744  0.00  0.00     0.000 HD
ENDROOT
BRANCH   3  49
HETATM   49  O   UNK     0      17.043  42.221  13.739  0.00  0.00    -0.358 OA
HETATM   50  H   UNK     0      16.075  41.927  13.710  0.00  0.00     0.217 HD
ENDBRANCH   3  49
BRANCH   5  51
HETATM   51  O   UNK     0      18.368  44.273  14.987  0.00  0.00    -0.356 OA
HETATM   52  H   UNK     0      17.715  44.482  14.243  0.00  0.00     0.218 HD
ENDBRANCH   5  51
BRANCH   6  53
HETATM   53  O   UNK     0      19.880  43.774  17.211  0.00  0.00    -0.356 OA
HETATM   54  H   UNK     0      20.632  44.254  16.734  0.00  0.00     0.218 HD
ENDBRANCH   6  53
BRANCH   9  55
HETATM   55  O   UNK     0      22.198  41.951  19.912  0.00  0.00    -0.356 OA
HETATM   56  H   UNK     0      21.593  42.734  20.127  0.00  0.00     0.218 HD
ENDBRANCH   9  55
BRANCH   7  57
HETATM   57  O   UNK     0      23.260  40.057  21.555  0.00  0.00    -0.357 OA
HETATM   58  H   UNK     0      24.192  39.708  21.372  0.00  0.00     0.217 HD
ENDBRANCH   7  57
BRANCH   8  59
HETATM   59  C   UNK     0      22.424  37.487  21.747  0.00  0.00     0.023 A 
HETATM   60  C   UNK     0      23.660  36.993  21.345  0.00  0.00     0.113 A 
HETATM   61  C   UNK     0      24.392  36.131  22.142  0.00  0.00     0.133 A 
HETATM   62  C   UNK     0      23.896  35.746  23.371  0.00  0.00     0.102 A 
HETATM   63  C   UNK     0      22.667  36.219  23.788  0.00  0.00     0.049 A 
HETATM   64  C   UNK     0      21.925  37.080  22.991  0.00  0.00    -0.018 A 
BRANCH  60  65
HETATM   65  O   UNK     0      24.158  37.361  20.133  0.00  0.00    -0.357 OA
HETATM   66  H   UNK     0      25.081  37.767  20.067  0.00  0.00     0.217 HD
ENDBRANCH  60  65
BRANCH  61  67
HETATM   67  O   UNK     0      25.593  35.661  21.714  0.00  0.00    -0.356 OA
HETATM   68  H   UNK     0      25.633  34.867  21.087  0.00  0.00     0.218 HD
ENDBRANCH  61  67
BRANCH  62  69
HETATM   69  O   UNK     0      24.612  34.902  24.162  0.00  0.00    -0.358 OA
HETATM   70  H   UNK     0      24.280  34.675  25.090  0.00  0.00     0.217 HD
ENDBRANCH  62  69
BRANCH  64  71
HETATM   71  C   UNK     0      20.595  37.512  23.542  0.00  0.00     0.203 C 
BRANCH  71  72
HETATM   72  O   UNK     0      19.624  36.533  23.196  0.00  0.00    -0.396 OA
HETATM   73  H   UNK     0      19.840  35.549  23.295  0.00  0.00     0.209 HD
ENDBRANCH  71  72
ENDBRANCH  64  71
ENDBRANCH   8  59
BRANCH  31  74
HETATM   74  O   UNK     0      16.766  33.142  16.196  0.00  0.00    -0.283 OA
BRANCH  74  75
HETATM   75  C   UNK     0      15.457  33.463  16.045  0.00  0.00     0.295 C 
HETATM   76  O   UNK     0      15.000  33.588  14.933  0.00  0.00    -0.259 OA
BRANCH  75  77
HETATM   77  C   UNK     0      14.590  33.653  17.216  0.00  0.00     0.045 A 
HETATM   78  C   UNK     0      13.945  34.862  17.422  0.00  0.00     0.057 A 
HETATM   79  C   UNK     0      13.135  35.032  18.535  0.00  0.00     0.102 A 
HETATM   80  C   UNK     0      12.973  33.995  19.440  0.00  0.00     0.132 A 
HETATM   81  C   UNK     0      13.618  32.786  19.233  0.00  0.00     0.102 A 
HETATM   82  C   UNK     0      14.424  32.615  18.120  0.00  0.00     0.057 A 
BRANCH  79  83
HETATM   83  O   UNK     0      12.498  36.217  18.740  0.00  0.00    -0.358 OA
HETATM   84  H   UNK     0      12.777  37.038  18.219  0.00  0.00     0.217 HD
ENDBRANCH  79  83
BRANCH  80  85
HETATM   85  O   UNK     0      12.184  34.164  20.535  0.00  0.00    -0.356 OA
HETATM   86  H   UNK     0      12.557  34.611  21.364  0.00  0.00     0.218 HD
ENDBRANCH  80  85
BRANCH  81  87
HETATM   87  O   UNK     0      13.461  31.771  20.122  0.00  0.00    -0.358 OA
HETATM   88  H   UNK     0      12.846  31.884  20.917  0.00  0.00     0.217 HD
ENDBRANCH  81  87
ENDBRANCH  75  77
ENDBRANCH  74  75
ENDBRANCH  31  74
BRANCH  19  89
HETATM   89  O   UNK     0      22.992  31.281  23.743  0.00  0.00    -0.358 OA
HETATM   90  H   UNK     0      23.288  32.248  23.704  0.00  0.00     0.217 HD
ENDBRANCH  19  89
BRANCH  26  91
HETATM   91  O   UNK     0      17.041  26.617  17.511  0.00  0.00    -0.358 OA
HETATM   92  H   UNK     0      17.005  25.619  17.675  0.00  0.00     0.217 HD
ENDBRANCH  26  91
BRANCH  17  93
HETATM   93  O   UNK     0      22.767  28.574  23.368  0.00  0.00    -0.357 OA
HETATM   94  H   UNK     0      22.648  27.574  23.262  0.00  0.00     0.217 HD
ENDBRANCH  17  93
BRANCH  24  95
HETATM   95  O   UNK     0      18.016  25.664  19.895  0.00  0.00    -0.357 OA
HETATM   96  H   UNK     0      17.459  25.513  20.726  0.00  0.00     0.217 HD
ENDBRANCH  24  95
TORSDOF 21
ENDMDL
MODEL 2
REMARK VINA RESULT:      -9.6     11.989     16.088
REMARK  21 active torsions:
REMARK  status: ('A' for Active; 'I' for Inactive)
REMARK    1  A    between atoms: C_3  and  O_78 
REMARK    2  A    between atoms: C_5  and  O_77 
REMARK    3  A    between atoms: C_6  and  O_76 
REMARK    4  A    between atoms: C_7  and  O_15 
REMARK    5  A    between atoms: C_8  and  C_17 
REMARK    6  A    between atoms: C_9  and  O_13 
REMARK    7  A    between atoms: C_16  and  O_24 
REMARK    8  A    between atoms: C_18  and  O_22 
REMARK    9  A    between atoms: C_19  and  C_72 
REMARK   10  A    between atoms: C_20  and  O_23 
REMARK   11  A    between atoms: C_28  and  O_32 
REMARK   12  A    between atoms: C_30  and  O_33 
REMARK   13  A    between atoms: C_37  and  O_42 
REMARK   14  A    between atoms: C_39  and  O_43 
REMARK   15  A    between atoms: C_46  and  O_67 
REMARK   16  A    between atoms: C_48  and  O_65 
REMARK   17  A    between atoms: C_49  and  C_52 
REMARK   18  A    between atoms: C_50  and  O_66 
REMARK   19  A    between atoms: C_52  and  O_60 
REMARK   20  A    between atoms: C_54  and  O_60 
REMARK   21  A    between atoms: C_72  and  O_73 
ROOT
HETATM    1  C   UNK     0      15.356  38.393   8.381  0.00  0.00     0.058 A 
HETATM    2  C   UNK     0      14.092  38.138   8.892  0.00  0.00     0.060 A 
HETATM    3  C   UNK     0      16.019  39.569   8.684  0.00  0.00     0.102 A 
HETATM    4  C   UNK     0      13.476  39.080   9.728  0.00  0.00     0.127 A 
HETATM    5  C   UNK     0      15.418  40.500   9.508  0.00  0.00     0.135 A 
HETATM    6  C   UNK     0      14.157  40.254  10.024  0.00  0.00     0.137 A 
HETATM    7  C   UNK     0       9.242  37.299  11.569  0.00  0.00     0.114 A 
HETATM    8  C   UNK     0       9.141  36.170  10.760  0.00  0.00     0.030 A 
HETATM    9  C   UNK     0      10.267  38.220  11.414  0.00  0.00     0.134 A 
HETATM   10  C   UNK     0      10.118  35.987   9.773  0.00  0.00     0.059 A 
HETATM   11  C   UNK     0      11.228  38.036  10.438  0.00  0.00     0.116 A 
HETATM   12  C   UNK     0      11.130  36.920   9.634  0.00  0.00     0.329 A 
HETATM   13  O   UNK     0      12.222  38.976  10.295  0.00  0.00    -0.304 OA
HETATM   14  C   UNK     0      10.183  34.863   8.833  0.00  0.00     0.295 C 
HETATM   15  C   UNK     0       7.194  27.381   7.608  0.00  0.00     0.026 A 
HETATM   16  C   UNK     0       8.194  28.249   7.178  0.00  0.00     0.006 A 
HETATM   17  C   UNK     0       6.174  27.795   8.445  0.00  0.00     0.111 A 
HETATM   18  C   UNK     0       8.144  29.580   7.629  0.00  0.00     0.054 A 
HETATM   19  C   UNK     0       6.136  29.103   8.882  0.00  0.00     0.100 A 
HETATM   20  C   UNK     0       7.118  29.985   8.472  0.00  0.00     0.058 A 
HETATM   21  O   UNK     0       7.213  26.088   7.183  0.00  0.00     0.000 OA
HETATM   22  C   UNK     0       8.739  26.497   5.526  0.00  0.00     0.026 A 
HETATM   23  C   UNK     0       9.212  27.603   6.231  0.00  0.00     0.006 A 
HETATM   24  C   UNK     0       9.546  25.784   4.656  0.00  0.00     0.111 A 
HETATM   25  C   UNK     0      10.546  27.980   6.024  0.00  0.00     0.054 A 
HETATM   26  C   UNK     0      10.859  26.165   4.468  0.00  0.00     0.100 A 
HETATM   27  C   UNK     0      11.349  27.259   5.152  0.00  0.00     0.058 A 
HETATM   28  C   UNK     0      11.192  29.104   6.683  0.00  0.00     0.294 C 
HETATM   29  O   UNK     0       7.450  26.103   5.702  0.00  0.00     0.000 OA
HETATM   30  O   UNK     0      11.527  29.006   7.842  0.00  0.00    -0.259 OA
HETATM   31  C   UNK     0      12.823  32.247   6.017  0.00  0.00     0.302 C 
HETATM   32  C   UNK     0      12.029  31.249   6.822  0.00  0.00     0.220 C 
HETATM   33  O   UNK     0      13.477  33.144   6.924  0.00  0.00    -0.348 OA
HETATM   34  C   UNK     0      10.959  32.005   7.536  0.00  0.00     0.198 C 
HETATM   35  C   UNK     0      12.645  33.856   7.863  0.00  0.00     0.181 C 
HETATM   36  C   UNK     0      11.635  32.889   8.576  0.00  0.00     0.195 C 
HETATM   37  C   UNK     0      13.538  34.505   8.932  0.00  0.00     0.212 C 
HETATM   38  O   UNK     0      10.053  31.088   8.133  0.00  0.00    -0.306 OA
HETATM   39  O   UNK     0      10.651  33.656   9.274  0.00  0.00    -0.307 OA
HETATM   40  O   UNK     0      11.443  30.259   6.002  0.00  0.00    -0.304 OA
HETATM   41  O   UNK     0      14.170  35.705   8.500  0.00  0.00    -0.328 OA
HETATM   42  C   UNK     0       9.100  30.633   7.260  0.00  0.00     0.294 C 
HETATM   43  O   UNK     0       9.026  31.138   6.164  0.00  0.00    -0.259 OA
HETATM   44  O   UNK     0       9.887  35.015   7.670  0.00  0.00    -0.259 OA
HETATM   45  C   UNK     0      13.461  36.867   8.518  0.00  0.00     0.179 C 
HETATM   46  O   UNK     0      12.279  36.846   8.260  0.00  0.00    -0.383 OA
HETATM   47  H   UNK     0       6.490  25.447   7.481  0.00  0.00     0.000 HD
HETATM   48  H   UNK     0       7.094  25.297   5.202  0.00  0.00     0.000 HD
ENDROOT
BRANCH   3  49
HETATM   49  O   UNK     0      17.256  39.808   8.174  0.00  0.00    -0.358 OA
HETATM   50  H   UNK     0      17.463  39.568   7.212  0.00  0.00     0.217 HD
ENDBRANCH   3  49
BRANCH   5  51
HETATM   51  O   UNK     0      16.063  41.660   9.810  0.00  0.00    -0.356 OA
HETATM   52  H   UNK     0      17.074  41.699   9.776  0.00  0.00     0.218 HD
ENDBRANCH   5  51
BRANCH   6  53
HETATM   53  O   UNK     0      13.572  41.179  10.833  0.00  0.00    -0.356 OA
HETATM   54  H   UNK     0      13.084  40.884  11.669  0.00  0.00     0.218 HD
ENDBRANCH   6  53
BRANCH   9  55
HETATM   55  O   UNK     0      10.319  39.314  12.221  0.00  0.00    -0.356 OA
HETATM   56  H   UNK     0      11.077  39.420  12.883  0.00  0.00     0.218 HD
ENDBRANCH   9  55
BRANCH   7  57
HETATM   57  O   UNK     0       8.302  37.510  12.528  0.00  0.00    -0.357 OA
HETATM   58  H   UNK     0       7.410  37.034  12.475  0.00  0.00     0.217 HD
ENDBRANCH   7  57
BRANCH   8  59
HETATM   59  C   UNK     0       7.941  35.278  11.036  0.00  0.00     0.023 A 
HETATM   60  C   UNK     0       6.858  35.466  10.182  0.00  0.00     0.113 A 
HETATM   61  C   UNK     0       5.694  34.732  10.315  0.00  0.00     0.133 A 
HETATM   62  C   UNK     0       5.590  33.783  11.313  0.00  0.00     0.102 A 
HETATM   63  C   UNK     0       6.651  33.585  12.176  0.00  0.00     0.049 A 
HETATM   64  C   UNK     0       7.820  34.322  12.052  0.00  0.00    -0.018 A 
BRANCH  60  65
HETATM   65  O   UNK     0       6.946  36.401   9.198  0.00  0.00    -0.357 OA
HETATM   66  H   UNK     0       7.837  36.828   8.983  0.00  0.00     0.217 HD
ENDBRANCH  60  65
BRANCH  61  67
HETATM   67  O   UNK     0       4.652  34.947   9.468  0.00  0.00    -0.356 OA
HETATM   68  H   UNK     0       3.788  34.435   9.588  0.00  0.00     0.218 HD
ENDBRANCH  61  67
BRANCH  62  69
HETATM   69  O   UNK     0       4.449  33.055  11.447  0.00  0.00    -0.358 OA
HETATM   70  H   UNK     0       3.819  32.952  10.662  0.00  0.00     0.217 HD
ENDBRANCH  62  69
BRANCH  64  71
HETATM   71  C   UNK     0       8.896  34.032  13.061  0.00  0.00     0.203 C 
BRANCH  71  72
HETATM   72  O   UNK     0       8.751  34.935  14.148  0.00  0.00    -0.396 OA
HETATM   73  H   UNK     0       8.189  34.676  14.950  0.00  0.00     0.209 HD
ENDBRANCH  71  72
ENDBRANCH  64  71
ENDBRANCH   8  59
BRANCH  31  74
HETATM   74  O   UNK     0      13.790  31.571   5.227  0.00  0.00    -0.283 OA
BRANCH  74  75
HETATM   75  C   UNK     0      14.000  32.017   3.963  0.00  0.00     0.295 C 
HETATM   76  O   UNK     0      14.273  33.181   3.780  0.00  0.00    -0.259 OA
BRANCH  75  77
HETATM   77  C   UNK     0      13.906  31.102   2.818  0.00  0.00     0.045 A 
HETATM   78  C   UNK     0      15.038  30.766   2.093  0.00  0.00     0.057 A 
HETATM   79  C   UNK     0      14.936  29.906   1.010  0.00  0.00     0.102 A 
HETATM   80  C   UNK     0      13.702  29.386   0.651  0.00  0.00     0.132 A 
HETATM   81  C   UNK     0      12.571  29.721   1.377  0.00  0.00     0.102 A 
HETATM   82  C   UNK     0      12.673  30.577   2.461  0.00  0.00     0.057 A 
BRANCH  79  83
HETATM   83  O   UNK     0      16.046  29.573   0.296  0.00  0.00    -0.358 OA
HETATM   84  H   UNK     0      16.876  30.148   0.354  0.00  0.00     0.217 HD
ENDBRANCH  79  83
BRANCH  80  85
HETATM   85  O   UNK     0      13.601  28.548  -0.416  0.00  0.00    -0.356 OA
HETATM   86  H   UNK     0      14.003  28.813  -1.308  0.00  0.00     0.218 HD
ENDBRANCH  80  85
BRANCH  81  87
HETATM   87  O   UNK     0      11.361  29.213   1.024  0.00  0.00    -0.358 OA
HETATM   88  H   UNK     0      10.622  29.832   0.717  0.00  0.00     0.217 HD
ENDBRANCH  81  87
ENDBRANCH  75  77
ENDBRANCH  74  75
ENDBRANCH  31  74
BRANCH  19  89
HETATM   89  O   UNK     0       5.135  29.518   9.704  0.00  0.00    -0.358 OA
HETATM   90  H   UNK     0       5.180  30.433  10.135  0.00  0.00     0.217 HD
ENDBRANCH  19  89
BRANCH  26  91
HETATM   91  O   UNK     0      11.662  25.467   3.621  0.00  0.00    -0.358 OA
HETATM   92  H   UNK     0      11.254  24.882   2.904  0.00  0.00     0.217 HD
ENDBRANCH  26  91
BRANCH  17  93
HETATM   93  O   UNK     0       5.210  26.918   8.835  0.00  0.00    -0.357 OA
HETATM   94  H   UNK     0       4.257  27.237   8.963  0.00  0.00     0.217 HD
ENDBRANCH  17  93
BRANCH  24  95
HETATM   95  O   UNK     0       9.050  24.705   3.992  0.00  0.00    -0.357 OA
HETATM   96  H   UNK     0       8.448  24.838   3.190  0.00  0.00     0.217 HD
ENDBRANCH  24  95
TORSDOF 21
ENDMDL
MODEL 3
REMARK VINA RESULT:      -9.4     15.019     18.726
REMARK  21 active torsions:
REMARK  status: ('A' for Active; 'I' for Inactive)
REMARK    1  A    between atoms: C_3  and  O_78 
REMARK    2  A    between atoms: C_5  and  O_77 
REMARK    3  A    between atoms: C_6  and  O_76 
REMARK    4  A    between atoms: C_7  and  O_15 
REMARK    5  A    between atoms: C_8  and  C_17 
REMARK    6  A    between atoms: C_9  and  O_13 
REMARK    7  A    between atoms: C_16  and  O_24 
REMARK    8  A    between atoms: C_18  and  O_22 
REMARK    9  A    between atoms: C_19  and  C_72 
REMARK   10  A    between atoms: C_20  and  O_23 
REMARK   11  A    between atoms: C_28  and  O_32 
REMARK   12  A    between atoms: C_30  and  O_33 
REMARK   13  A    between atoms: C_37  and  O_42 
REMARK   14  A    between atoms: C_39  and  O_43 
REMARK   15  A    between atoms: C_46  and  O_67 
REMARK   16  A    between atoms: C_48  and  O_65 
REMARK   17  A    between atoms: C_49  and  C_52 
REMARK   18  A    between atoms: C_50  and  O_66 
REMARK   19  A    between atoms: C_52  and  O_60 
REMARK   20  A    between atoms: C_54  and  O_60 
REMARK   21  A    between atoms: C_72  and  O_73 
ROOT
HETATM    1  C   UNK     0       5.039  27.410  10.359  0.00  0.00     0.058 A 
HETATM    2  C   UNK     0       5.728  28.441   9.738  0.00  0.00     0.060 A 
HETATM    3  C   UNK     0       3.852  27.653  11.027  0.00  0.00     0.102 A 
HETATM    4  C   UNK     0       5.219  29.746   9.785  0.00  0.00     0.127 A 
HETATM    5  C   UNK     0       3.344  28.937  11.075  0.00  0.00     0.135 A 
HETATM    6  C   UNK     0       4.025  29.972  10.457  0.00  0.00     0.137 A 
HETATM    7  C   UNK     0       7.907  32.787   6.954  0.00  0.00     0.114 A 
HETATM    8  C   UNK     0       8.975  31.928   6.709  0.00  0.00     0.030 A 
HETATM    9  C   UNK     0       6.856  32.429   7.784  0.00  0.00     0.134 A 
HETATM   10  C   UNK     0       8.956  30.674   7.333  0.00  0.00     0.059 A 
HETATM   11  C   UNK     0       6.843  31.191   8.398  0.00  0.00     0.116 A 
HETATM   12  C   UNK     0       7.900  30.338   8.160  0.00  0.00     0.329 A 
HETATM   13  O   UNK     0       5.797  30.872   9.232  0.00  0.00    -0.304 OA
HETATM   14  C   UNK     0       9.984  29.635   7.194  0.00  0.00     0.295 C 
HETATM   15  C   UNK     0      16.316  27.499   2.530  0.00  0.00     0.026 A 
HETATM   16  C   UNK     0      15.461  27.009   3.513  0.00  0.00     0.006 A 
HETATM   17  C   UNK     0      16.334  28.835   2.173  0.00  0.00     0.111 A 
HETATM   18  C   UNK     0      14.596  27.923   4.142  0.00  0.00     0.054 A 
HETATM   19  C   UNK     0      15.480  29.722   2.797  0.00  0.00     0.100 A 
HETATM   20  C   UNK     0      14.620  29.261   3.774  0.00  0.00     0.058 A 
HETATM   21  O   UNK     0      17.168  26.640   1.908  0.00  0.00     0.000 OA
HETATM   22  C   UNK     0      16.868  24.981   3.458  0.00  0.00     0.026 A 
HETATM   23  C   UNK     0      15.618  25.509   3.783  0.00  0.00     0.006 A 
HETATM   24  C   UNK     0      17.156  23.636   3.610  0.00  0.00     0.111 A 
HETATM   25  C   UNK     0      14.653  24.623   4.283  0.00  0.00     0.054 A 
HETATM   26  C   UNK     0      16.192  22.777   4.099  0.00  0.00     0.100 A 
HETATM   27  C   UNK     0      14.949  23.276   4.431  0.00  0.00     0.058 A 
HETATM   28  C   UNK     0      13.304  25.012   4.663  0.00  0.00     0.294 C 
HETATM   29  O   UNK     0      17.828  25.810   2.970  0.00  0.00     0.000 OA
HETATM   30  O   UNK     0      12.480  25.233   3.805  0.00  0.00    -0.259 OA
HETATM   31  C   UNK     0      11.050  25.104   7.473  0.00  0.00     0.302 C 
HETATM   32  C   UNK     0      11.620  25.544   6.147  0.00  0.00     0.220 C 
HETATM   33  O   UNK     0       9.668  25.483   7.520  0.00  0.00    -0.348 OA
HETATM   34  C   UNK     0      11.574  27.035   6.117  0.00  0.00     0.198 C 
HETATM   35  C   UNK     0       9.358  26.878   7.316  0.00  0.00     0.181 C 
HETATM   36  C   UNK     0      10.110  27.450   6.063  0.00  0.00     0.195 C 
HETATM   37  C   UNK     0       7.846  27.026   7.089  0.00  0.00     0.212 C 
HETATM   38  O   UNK     0      12.297  27.506   4.987  0.00  0.00    -0.306 OA
HETATM   39  O   UNK     0      10.010  28.877   6.057  0.00  0.00    -0.307 OA
HETATM   40  O   UNK     0      12.953  25.108   5.978  0.00  0.00    -0.304 OA
HETATM   41  O   UNK     0       7.078  26.975   8.285  0.00  0.00    -0.328 OA
HETATM   42  C   UNK     0      13.646  27.586   5.213  0.00  0.00     0.294 C 
HETATM   43  O   UNK     0      14.062  27.407   6.333  0.00  0.00    -0.259 OA
HETATM   44  O   UNK     0      10.758  29.410   8.096  0.00  0.00    -0.259 OA
HETATM   45  C   UNK     0       6.979  28.094   9.054  0.00  0.00     0.179 C 
HETATM   46  O   UNK     0       7.929  28.839   9.142  0.00  0.00    -0.383 OA
HETATM   47  H   UNK     0      17.801  26.981   1.196  0.00  0.00     0.000 HD
HETATM   48  H   UNK     0      18.738  25.440   2.723  0.00  0.00     0.000 HD
ENDROOT
BRANCH   3  49
HETATM   49  O   UNK     0       3.188  26.634  11.635  0.00  0.00    -0.358 OA
HETATM   50  H   UNK     0       3.290  26.486  12.631  0.00  0.00     0.217 HD
ENDBRANCH   3  49
BRANCH   5  51
HETATM   51  O   UNK     0       2.178  29.183  11.731  0.00  0.00    -0.356 OA
HETATM   52  H   UNK     0       1.293  28.979  11.284  0.00  0.00     0.218 HD
ENDBRANCH   5  51
BRANCH   6  53
HETATM   53  O   UNK     0       3.517  31.233  10.512  0.00  0.00    -0.356 OA
HETATM   54  H   UNK     0       2.840  31.537   9.823  0.00  0.00     0.218 HD
ENDBRANCH   6  53
BRANCH   9  55
HETATM   55  O   UNK     0       5.839  33.307   8.002  0.00  0.00    -0.356 OA
HETATM   56  H   UNK     0       5.594  33.985   7.291  0.00  0.00     0.218 HD
ENDBRANCH   9  55
BRANCH   7  57
HETATM   57  O   UNK     0       7.902  34.017   6.372  0.00  0.00    -0.357 OA
HETATM   58  H   UNK     0       8.330  34.802   6.847  0.00  0.00     0.217 HD
ENDBRANCH   7  57
BRANCH   8  59
HETATM   59  C   UNK     0      10.062  32.484   5.804  0.00  0.00     0.023 A 
HETATM   60  C   UNK     0      10.031  32.021   4.492  0.00  0.00     0.113 A 
HETATM   61  C   UNK     0      10.962  32.433   3.555  0.00  0.00     0.133 A 
HETATM   62  C   UNK     0      11.949  33.328   3.915  0.00  0.00     0.102 A 
HETATM   63  C   UNK     0      12.002  33.796   5.214  0.00  0.00     0.049 A 
HETATM   64  C   UNK     0      11.075  33.382   6.161  0.00  0.00    -0.018 A 
BRANCH  60  65
HETATM   65  O   UNK     0       9.067  31.134   4.126  0.00  0.00    -0.357 OA
HETATM   66  H   UNK     0       8.094  31.410   4.138  0.00  0.00     0.217 HD
ENDBRANCH  60  65
BRANCH  61  67
HETATM   67  O   UNK     0      10.906  31.954   2.284  0.00  0.00    -0.356 OA
HETATM   68  H   UNK     0      11.405  31.108   2.039  0.00  0.00     0.218 HD
ENDBRANCH  61  67
BRANCH  62  69
HETATM   69  O   UNK     0      12.864  33.741   2.997  0.00  0.00    -0.358 OA
HETATM   70  H   UNK     0      13.841  33.508   3.117  0.00  0.00     0.217 HD
ENDBRANCH  62  69
BRANCH  64  71
HETATM   71  C   UNK     0      11.247  33.943   7.545  0.00  0.00     0.203 C 
BRANCH  71  72
HETATM   72  O   UNK     0      10.445  35.111   7.660  0.00  0.00    -0.396 OA
HETATM   73  H   UNK     0       9.827  35.378   6.904  0.00  0.00     0.209 HD
ENDBRANCH  71  72
ENDBRANCH  64  71
ENDBRANCH   8  59
BRANCH  31  74
HETATM   74  O   UNK     0      11.168  23.696   7.607  0.00  0.00    -0.283 OA
BRANCH  74  75
HETATM   75  C   UNK     0      11.700  23.212   8.757  0.00  0.00     0.295 C 
HETATM   76  O   UNK     0      11.351  23.677   9.817  0.00  0.00    -0.259 OA
BRANCH  75  77
HETATM   77  C   UNK     0      12.689  22.125   8.728  0.00  0.00     0.045 A 
HETATM   78  C   UNK     0      13.234  21.705   7.526  0.00  0.00     0.057 A 
HETATM   79  C   UNK     0      14.162  20.674   7.510  0.00  0.00     0.102 A 
HETATM   80  C   UNK     0      14.540  20.063   8.695  0.00  0.00     0.132 A 
HETATM   81  C   UNK     0      13.995  20.485   9.897  0.00  0.00     0.102 A 
HETATM   82  C   UNK     0      13.071  21.517   9.914  0.00  0.00     0.057 A 
BRANCH  79  83
HETATM   83  O   UNK     0      14.701  20.259   6.331  0.00  0.00    -0.358 OA
HETATM   84  H   UNK     0      14.257  19.518   5.805  0.00  0.00     0.217 HD
ENDBRANCH  79  83
BRANCH  80  85
HETATM   85  O   UNK     0      15.444  19.047   8.679  0.00  0.00    -0.356 OA
HETATM   86  H   UNK     0      15.697  18.580   9.542  0.00  0.00     0.218 HD
ENDBRANCH  80  85
BRANCH  81  87
HETATM   87  O   UNK     0      14.364  19.884  11.059  0.00  0.00    -0.358 OA
HETATM   88  H   UNK     0      14.096  20.290  11.946  0.00  0.00     0.217 HD
ENDBRANCH  81  87
ENDBRANCH  75  77
ENDBRANCH  74  75
ENDBRANCH  31  74
BRANCH  19  89
HETATM   89  O   UNK     0      15.494  31.037   2.452  0.00  0.00    -0.358 OA
HETATM   90  H   UNK     0      16.155  31.668   2.886  0.00  0.00     0.217 HD
ENDBRANCH  19  89
BRANCH  26  91
HETATM   91  O   UNK     0      16.464  21.453   4.246  0.00  0.00    -0.358 OA
HETATM   92  H   UNK     0      17.080  21.142   4.985  0.00  0.00     0.217 HD
ENDBRANCH  26  91
BRANCH  17  93
HETATM   93  O   UNK     0      17.192  29.276   1.214  0.00  0.00    -0.357 OA
HETATM   94  H   UNK     0      17.427  30.259   1.158  0.00  0.00     0.217 HD
ENDBRANCH  17  93
BRANCH  24  95
HETATM   95  O   UNK     0      18.385  23.158   3.274  0.00  0.00    -0.357 OA
HETATM   96  H   UNK     0      19.209  23.720   3.440  0.00  0.00     0.217 HD
ENDBRANCH  24  95
TORSDOF 21
ENDMDL
MODEL 4
REMARK VINA RESULT:      -9.2     11.585     17.308
REMARK  21 active torsions:
REMARK  status: ('A' for Active; 'I' for Inactive)
REMARK    1  A    between atoms: C_3  and  O_78 
REMARK    2  A    between atoms: C_5  and  O_77 
REMARK    3  A    between atoms: C_6  and  O_76 
REMARK    4  A    between atoms: C_7  and  O_15 
REMARK    5  A    between atoms: C_8  and  C_17 
REMARK    6  A    between atoms: C_9  and  O_13 
REMARK    7  A    between atoms: C_16  and  O_24 
REMARK    8  A    between atoms: C_18  and  O_22 
REMARK    9  A    between atoms: C_19  and  C_72 
REMARK   10  A    between atoms: C_20  and  O_23 
REMARK   11  A    between atoms: C_28  and  O_32 
REMARK   12  A    between atoms: C_30  and  O_33 
REMARK   13  A    between atoms: C_37  and  O_42 
REMARK   14  A    between atoms: C_39  and  O_43 
REMARK   15  A    between atoms: C_46  and  O_67 
REMARK   16  A    between atoms: C_48  and  O_65 
REMARK   17  A    between atoms: C_49  and  C_52 
REMARK   18  A    between atoms: C_50  and  O_66 
REMARK   19  A    between atoms: C_52  and  O_60 
REMARK   20  A    between atoms: C_54  and  O_60 
REMARK   21  A    between atoms: C_72  and  O_73 
ROOT
HETATM    1  C   UNK     0       4.797  30.099  11.396  0.00  0.00     0.058 A 
HETATM    2  C   UNK     0       5.687  30.030  10.334  0.00  0.00     0.060 A 
HETATM    3  C   UNK     0       3.833  29.123  11.577  0.00  0.00     0.102 A 
HETATM    4  C   UNK     0       5.612  28.959   9.432  0.00  0.00     0.127 A 
HETATM    5  C   UNK     0       3.756  28.065  10.692  0.00  0.00     0.135 A 
HETATM    6  C   UNK     0       4.641  27.987   9.631  0.00  0.00     0.137 A 
HETATM    7  C   UNK     0       9.380  29.091   6.227  0.00  0.00     0.114 A 
HETATM    8  C   UNK     0       9.850  30.366   6.535  0.00  0.00     0.030 A 
HETATM    9  C   UNK     0       8.247  28.565   6.828  0.00  0.00     0.134 A 
HETATM   10  C   UNK     0       9.135  31.110   7.483  0.00  0.00     0.059 A 
HETATM   11  C   UNK     0       7.545  29.305   7.760  0.00  0.00     0.116 A 
HETATM   12  C   UNK     0       8.005  30.567   8.067  0.00  0.00     0.329 A 
HETATM   13  O   UNK     0       6.413  28.763   8.324  0.00  0.00    -0.304 OA
HETATM   14  C   UNK     0       9.475  32.463   7.940  0.00  0.00     0.295 C 
HETATM   15  C   UNK     0      15.586  37.854   7.943  0.00  0.00     0.026 A 
HETATM   16  C   UNK     0      14.353  37.591   8.533  0.00  0.00     0.006 A 
HETATM   17  C   UNK     0      16.054  37.125   6.866  0.00  0.00     0.111 A 
HETATM   18  C   UNK     0      13.583  36.541   8.000  0.00  0.00     0.054 A 
HETATM   19  C   UNK     0      15.291  36.098   6.351  0.00  0.00     0.100 A 
HETATM   20  C   UNK     0      14.064  35.813   6.919  0.00  0.00     0.058 A 
HETATM   21  O   UNK     0      16.350  38.867   8.435  0.00  0.00     0.000 OA
HETATM   22  C   UNK     0      14.635  39.774   9.651  0.00  0.00     0.026 A 
HETATM   23  C   UNK     0      14.005  38.531   9.693  0.00  0.00     0.006 A 
HETATM   24  C   UNK     0      14.451  40.722  10.643  0.00  0.00     0.111 A 
HETATM   25  C   UNK     0      13.162  38.270  10.782  0.00  0.00     0.054 A 
HETATM   26  C   UNK     0      13.622  40.447  11.711  0.00  0.00     0.100 A 
HETATM   27  C   UNK     0      12.984  39.224  11.773  0.00  0.00     0.058 A 
HETATM   28  C   UNK     0      12.437  37.025  10.976  0.00  0.00     0.294 C 
HETATM   29  O   UNK     0      15.459  40.062   8.609  0.00  0.00     0.000 OA
HETATM   30  O   UNK     0      13.029  36.040  11.356  0.00  0.00    -0.259 OA
HETATM   31  C   UNK     0       9.107  35.684  11.291  0.00  0.00     0.302 C 
HETATM   32  C   UNK     0      10.577  35.660  10.951  0.00  0.00     0.220 C 
HETATM   33  O   UNK     0       8.688  34.344  11.585  0.00  0.00    -0.348 OA
HETATM   34  C   UNK     0      10.729  34.869   9.695  0.00  0.00     0.198 C 
HETATM   35  C   UNK     0       8.919  33.343  10.571  0.00  0.00     0.181 C 
HETATM   36  C   UNK     0      10.386  33.421  10.018  0.00  0.00     0.195 C 
HETATM   37  C   UNK     0       8.702  31.951  11.184  0.00  0.00     0.212 C 
HETATM   38  O   UNK     0      12.061  35.001   9.216  0.00  0.00    -0.306 OA
HETATM   39  O   UNK     0      10.494  32.622   8.837  0.00  0.00    -0.307 OA
HETATM   40  O   UNK     0      11.092  36.962  10.757  0.00  0.00    -0.304 OA
HETATM   41  O   UNK     0       7.332  31.586  11.308  0.00  0.00    -0.328 OA
HETATM   42  C   UNK     0      12.253  36.140   8.480  0.00  0.00     0.294 C 
HETATM   43  O   UNK     0      11.295  36.818   8.192  0.00  0.00    -0.259 OA
HETATM   44  O   UNK     0       8.826  33.417   7.577  0.00  0.00    -0.259 OA
HETATM   45  C   UNK     0       6.675  31.107  10.216  0.00  0.00     0.179 C 
HETATM   46  O   UNK     0       6.941  31.550   9.122  0.00  0.00    -0.383 OA
HETATM   47  H   UNK     0      17.246  39.076   8.013  0.00  0.00     0.000 HD
HETATM   48  H   UNK     0      15.929  40.958   8.568  0.00  0.00     0.000 HD
ENDROOT
BRANCH   3  49
HETATM   49  O   UNK     0       2.964  29.205  12.620  0.00  0.00    -0.358 OA
HETATM   50  H   UNK     0       2.953  28.481  13.328  0.00  0.00     0.217 HD
ENDBRANCH   3  49
BRANCH   5  51
HETATM   51  O   UNK     0       2.809  27.102  10.864  0.00  0.00    -0.356 OA
HETATM   52  H   UNK     0       2.649  26.415  10.138  0.00  0.00     0.218 HD
ENDBRANCH   5  51
BRANCH   6  53
HETATM   53  O   UNK     0       4.554  26.941   8.764  0.00  0.00    -0.356 OA
HETATM   54  H   UNK     0       3.786  26.287   8.835  0.00  0.00     0.218 HD
ENDBRANCH   6  53
BRANCH   9  55
HETATM   55  O   UNK     0       7.820  27.319   6.486  0.00  0.00    -0.356 OA
HETATM   56  H   UNK     0       6.859  27.173   6.204  0.00  0.00     0.218 HD
ENDBRANCH   9  55
BRANCH   7  57
HETATM   57  O   UNK     0      10.045  28.348   5.302  0.00  0.00    -0.357 OA
HETATM   58  H   UNK     0      10.051  28.637   4.332  0.00  0.00     0.217 HD
ENDBRANCH   7  57
BRANCH   8  59
HETATM   59  C   UNK     0      11.084  30.808   5.765  0.00  0.00     0.023 A 
HETATM   60  C   UNK     0      10.828  31.419   4.542  0.00  0.00     0.113 A 
HETATM   61  C   UNK     0      11.852  31.868   3.727  0.00  0.00     0.133 A 
HETATM   62  C   UNK     0      13.164  31.715   4.126  0.00  0.00     0.102 A 
HETATM   63  C   UNK     0      13.441  31.104   5.334  0.00  0.00     0.049 A 
HETATM   64  C   UNK     0      12.419  30.646   6.154  0.00  0.00    -0.018 A 
BRANCH  60  65
HETATM   65  O   UNK     0       9.539  31.572   4.135  0.00  0.00    -0.357 OA
HETATM   66  H   UNK     0       8.813  30.982   4.521  0.00  0.00     0.217 HD
ENDBRANCH  60  65
BRANCH  61  67
HETATM   67  O   UNK     0      11.566  32.454   2.535  0.00  0.00    -0.356 OA
HETATM   68  H   UNK     0      11.498  31.891   1.696  0.00  0.00     0.218 HD
ENDBRANCH  61  67
BRANCH  62  69
HETATM   69  O   UNK     0      14.176  32.157   3.331  0.00  0.00    -0.358 OA
HETATM   70  H   UNK     0      15.074  31.693   3.350  0.00  0.00     0.217 HD
ENDBRANCH  62  69
BRANCH  64  71
HETATM   71  C   UNK     0      12.844  29.981   7.434  0.00  0.00     0.203 C 
BRANCH  71  72
HETATM   72  O   UNK     0      12.795  30.943   8.479  0.00  0.00    -0.396 OA
HETATM   73  H   UNK     0      12.271  30.747   9.323  0.00  0.00     0.209 HD
ENDBRANCH  71  72
ENDBRANCH  64  71
ENDBRANCH   8  59
BRANCH  31  74
HETATM   74  O   UNK     0       8.884  36.516  12.419  0.00  0.00    -0.283 OA
BRANCH  74  75
HETATM   75  C   UNK     0       7.613  36.917  12.669  0.00  0.00     0.295 C 
HETATM   76  O   UNK     0       6.969  36.356  13.525  0.00  0.00    -0.259 OA
BRANCH  75  77
HETATM   77  C   UNK     0       7.014  38.028  11.917  0.00  0.00     0.045 A 
HETATM   78  C   UNK     0       7.552  39.302  11.999  0.00  0.00     0.057 A 
HETATM   79  C   UNK     0       6.974  40.344  11.290  0.00  0.00     0.102 A 
HETATM   80  C   UNK     0       5.857  40.112  10.503  0.00  0.00     0.132 A 
HETATM   81  C   UNK     0       5.320  38.838  10.420  0.00  0.00     0.102 A 
HETATM   82  C   UNK     0       5.899  37.796  11.126  0.00  0.00     0.057 A 
BRANCH  79  83
HETATM   83  O   UNK     0       7.501  41.597  11.366  0.00  0.00    -0.358 OA
HETATM   84  H   UNK     0       7.300  42.276  10.644  0.00  0.00     0.217 HD
ENDBRANCH  79  83
BRANCH  80  85
HETATM   85  O   UNK     0       5.286  41.136   9.813  0.00  0.00    -0.356 OA
HETATM   86  H   UNK     0       5.828  41.962   9.591  0.00  0.00     0.218 HD
ENDBRANCH  80  85
BRANCH  81  87
HETATM   87  O   UNK     0       4.223  38.611   9.651  0.00  0.00    -0.358 OA
HETATM   88  H   UNK     0       4.073  37.699   9.239  0.00  0.00     0.217 HD
ENDBRANCH  81  87
ENDBRANCH  75  77
ENDBRANCH  74  75
ENDBRANCH  31  74
BRANCH  19  89
HETATM   89  O   UNK     0      15.744  35.377   5.290  0.00  0.00    -0.358 OA
HETATM   90  H   UNK     0      15.095  34.843   4.726  0.00  0.00     0.217 HD
ENDBRANCH  19  89
BRANCH  26  91
HETATM   91  O   UNK     0      13.440  41.369  12.694  0.00  0.00    -0.358 OA
HETATM   92  H   UNK     0      14.030  41.356  13.515  0.00  0.00     0.217 HD
ENDBRANCH  26  91
BRANCH  17  93
HETATM   93  O   UNK     0      17.261  37.421   6.312  0.00  0.00    -0.357 OA
HETATM   94  H   UNK     0      17.750  36.726   5.761  0.00  0.00     0.217 HD
ENDBRANCH  17  93
BRANCH  24  95
HETATM   95  O   UNK     0      15.090  41.921  10.570  0.00  0.00    -0.357 OA
HETATM   96  H   UNK     0      14.582  42.777  10.755  0.00  0.00     0.217 HD
ENDBRANCH  24  95
TORSDOF 21
ENDMDL
MODEL 5
REMARK VINA RESULT:      -8.5      2.059     12.121
REMARK  21 active torsions:
REMARK  status: ('A' for Active; 'I' for Inactive)
REMARK    1  A    between atoms: C_3  and  O_78 
REMARK    2  A    between atoms: C_5  and  O_77 
REMARK    3  A    between atoms: C_6  and  O_76 
REMARK    4  A    between atoms: C_7  and  O_15 
REMARK    5  A    between atoms: C_8  and  C_17 
REMARK    6  A    between atoms: C_9  and  O_13 
REMARK    7  A    between atoms: C_16  and  O_24 
REMARK    8  A    between atoms: C_18  and  O_22 
REMARK    9  A    between atoms: C_19  and  C_72 
REMARK   10  A    between atoms: C_20  and  O_23 
REMARK   11  A    between atoms: C_28  and  O_32 
REMARK   12  A    between atoms: C_30  and  O_33 
REMARK   13  A    between atoms: C_37  and  O_42 
REMARK   14  A    between atoms: C_39  and  O_43 
REMARK   15  A    between atoms: C_46  and  O_67 
REMARK   16  A    between atoms: C_48  and  O_65 
REMARK   17  A    between atoms: C_49  and  C_52 
REMARK   18  A    between atoms: C_50  and  O_66 
REMARK   19  A    between atoms: C_52  and  O_60 
REMARK   20  A    between atoms: C_54  and  O_60 
REMARK   21  A    between atoms: C_72  and  O_73 
ROOT
HETATM    1  C   UNK     0      19.689  30.616  21.684  0.00  0.00     0.058 A 
HETATM    2  C   UNK     0      19.051  30.956  20.500  0.00  0.00     0.060 A 
HETATM    3  C   UNK     0      19.788  29.295  22.082  0.00  0.00     0.102 A 
HETATM    4  C   UNK     0      18.498  29.951  19.694  0.00  0.00     0.127 A 
HETATM    5  C   UNK     0      19.247  28.300  21.292  0.00  0.00     0.135 A 
HETATM    6  C   UNK     0      18.609  28.629  20.108  0.00  0.00     0.137 A 
HETATM    7  C   UNK     0      16.846  31.827  15.424  0.00  0.00     0.114 A 
HETATM    8  C   UNK     0      16.941  33.176  15.757  0.00  0.00     0.030 A 
HETATM    9  C   UNK     0      17.145  30.826  16.336  0.00  0.00     0.134 A 
HETATM   10  C   UNK     0      17.355  33.497  17.057  0.00  0.00     0.059 A 
HETATM   11  C   UNK     0      17.551  31.148  17.617  0.00  0.00     0.116 A 
HETATM   12  C   UNK     0      17.645  32.482  17.951  0.00  0.00     0.329 A 
HETATM   13  O   UNK     0      17.822  30.133  18.505  0.00  0.00    -0.304 OA
HETATM   14  C   UNK     0      17.520  34.854  17.590  0.00  0.00     0.295 C 
HETATM   15  C   UNK     0      18.147  42.620  15.203  0.00  0.00     0.026 A 
HETATM   16  C   UNK     0      18.333  41.792  16.307  0.00  0.00     0.006 A 
HETATM   17  C   UNK     0      17.529  42.177  14.049  0.00  0.00     0.111 A 
HETATM   18  C   UNK     0      17.872  40.466  16.213  0.00  0.00     0.054 A 
HETATM   19  C   UNK     0      17.081  40.875  13.969  0.00  0.00     0.100 A 
HETATM   20  C   UNK     0      17.255  40.030  15.048  0.00  0.00     0.058 A 
HETATM   21  O   UNK     0      18.578  43.910  15.266  0.00  0.00     0.000 OA
HETATM   22  C   UNK     0      18.852  43.867  17.539  0.00  0.00     0.026 A 
HETATM   23  C   UNK     0      19.010  42.482  17.496  0.00  0.00     0.006 A 
HETATM   24  C   UNK     0      19.431  44.638  18.532  0.00  0.00     0.111 A 
HETATM   25  C   UNK     0      19.778  41.886  18.507  0.00  0.00     0.054 A 
HETATM   26  C   UNK     0      20.189  44.037  19.516  0.00  0.00     0.100 A 
HETATM   27  C   UNK     0      20.356  42.667  19.497  0.00  0.00     0.058 A 
HETATM   28  C   UNK     0      20.041  40.460  18.602  0.00  0.00     0.294 C 
HETATM   29  O   UNK     0      18.114  44.478  16.575  0.00  0.00     0.000 OA
HETATM   30  O   UNK     0      20.847  39.948  17.858  0.00  0.00    -0.259 OA
HETATM   31  C   UNK     0      19.558  37.609  20.753  0.00  0.00     0.302 C 
HETATM   32  C   UNK     0      19.755  38.330  19.442  0.00  0.00     0.220 C 
HETATM   33  O   UNK     0      20.039  36.266  20.608  0.00  0.00    -0.348 OA
HETATM   34  C   UNK     0      18.885  37.660  18.432  0.00  0.00     0.198 C 
HETATM   35  C   UNK     0      19.471  35.472  19.545  0.00  0.00     0.181 C 
HETATM   36  C   UNK     0      19.447  36.266  18.191  0.00  0.00     0.195 C 
HETATM   37  C   UNK     0      20.323  34.208  19.355  0.00  0.00     0.212 C 
HETATM   38  O   UNK     0      18.867  38.434  17.239  0.00  0.00    -0.306 OA
HETATM   39  O   UNK     0      18.632  35.571  17.244  0.00  0.00    -0.307 OA
HETATM   40  O   UNK     0      19.405  39.696  19.537  0.00  0.00    -0.304 OA
HETATM   41  O   UNK     0      20.069  33.194  20.321  0.00  0.00    -0.328 OA
HETATM   42  C   UNK     0      17.964  39.463  17.284  0.00  0.00     0.294 C 
HETATM   43  O   UNK     0      17.198  39.527  18.217  0.00  0.00    -0.259 OA
HETATM   44  O   UNK     0      16.718  35.310  18.372  0.00  0.00    -0.259 OA
HETATM   45  C   UNK     0      18.991  32.381  20.156  0.00  0.00     0.179 C 
HETATM   46  O   UNK     0      17.974  32.832  19.678  0.00  0.00    -0.383 OA
HETATM   47  H   UNK     0      18.445  44.527  14.476  0.00  0.00     0.000 HD
HETATM   48  H   UNK     0      17.996  45.484  16.590  0.00  0.00     0.000 HD
ENDROOT
BRANCH   3  49
HETATM   49  O   UNK     0      20.413  28.976  23.247  0.00  0.00    -0.358 OA
HETATM   50  H   UNK     0      19.875  28.867  24.097  0.00  0.00     0.217 HD
ENDBRANCH   3  49
BRANCH   5  51
HETATM   51  O   UNK     0      19.339  26.998  21.677  0.00  0.00    -0.356 OA
HETATM   52  H   UNK     0      20.201  26.487  21.531  0.00  0.00     0.218 HD
ENDBRANCH   5  51
BRANCH   6  53
HETATM   53  O   UNK     0      18.078  27.642  19.337  0.00  0.00    -0.356 OA
HETATM   54  H   UNK     0      17.436  26.973  19.743  0.00  0.00     0.218 HD
ENDBRANCH   6  53
BRANCH   9  55
HETATM   55  O   UNK     0      17.026  29.521  15.968  0.00  0.00    -0.356 OA
HETATM   56  H   UNK     0      16.556  29.279  15.104  0.00  0.00     0.218 HD
ENDBRANCH   9  55
BRANCH   7  57
HETATM   57  O   UNK     0      16.435  31.483  14.174  0.00  0.00    -0.357 OA
HETATM   58  H   UNK     0      15.518  31.762  13.849  0.00  0.00     0.217 HD
ENDBRANCH   7  57
BRANCH   8  59
HETATM   59  C   UNK     0      16.546  34.147  14.657  0.00  0.00     0.023 A 
HETATM   60  C   UNK     0      15.176  34.334  14.499  0.00  0.00     0.113 A 
HETATM   61  C   UNK     0      14.665  35.182  13.534  0.00  0.00     0.133 A 
HETATM   62  C   UNK     0      15.525  35.870  12.701  0.00  0.00     0.102 A 
HETATM   63  C   UNK     0      16.889  35.694  12.835  0.00  0.00     0.049 A 
HETATM   64  C   UNK     0      17.408  34.840  13.798  0.00  0.00    -0.018 A 
BRANCH  60  65
HETATM   65  O   UNK     0      14.318  33.658  15.311  0.00  0.00    -0.357 OA
HETATM   66  H   UNK     0      14.643  33.286  16.193  0.00  0.00     0.217 HD
ENDBRANCH  60  65
BRANCH  61  67
HETATM   67  O   UNK     0      13.321  35.335  13.403  0.00  0.00    -0.356 OA
HETATM   68  H   UNK     0      12.912  35.458  12.485  0.00  0.00     0.218 HD
ENDBRANCH  61  67
BRANCH  62  69
HETATM   69  O   UNK     0      15.030  36.710  11.752  0.00  0.00    -0.358 OA
HETATM   70  H   UNK     0      15.247  36.555  10.776  0.00  0.00     0.217 HD
ENDBRANCH  62  69
BRANCH  64  71
HETATM   71  C   UNK     0      18.905  34.715  13.835  0.00  0.00     0.203 C 
BRANCH  71  72
HETATM   72  O   UNK     0      19.433  35.835  14.533  0.00  0.00    -0.396 OA
HETATM   73  H   UNK     0      19.307  35.913  15.535  0.00  0.00     0.209 HD
ENDBRANCH  71  72
ENDBRANCH  64  71
ENDBRANCH   8  59
BRANCH  31  74
HETATM   74  O   UNK     0      20.277  38.270  21.782  0.00  0.00    -0.283 OA
BRANCH  74  75
HETATM   75  C   UNK     0      20.883  37.505  22.724  0.00  0.00     0.295 C 
HETATM   76  O   UNK     0      20.229  37.049  23.632  0.00  0.00    -0.259 OA
BRANCH  75  77
HETATM   77  C   UNK     0      22.322  37.220  22.648  0.00  0.00     0.045 A 
HETATM   78  C   UNK     0      22.917  36.360  23.558  0.00  0.00     0.057 A 
HETATM   79  C   UNK     0      24.277  36.104  23.481  0.00  0.00     0.102 A 
HETATM   80  C   UNK     0      25.042  36.709  22.496  0.00  0.00     0.132 A 
HETATM   81  C   UNK     0      24.447  37.568  21.586  0.00  0.00     0.102 A 
HETATM   82  C   UNK     0      23.088  37.821  21.660  0.00  0.00     0.057 A 
BRANCH  79  83
HETATM   83  O   UNK     0      24.864  35.259  24.372  0.00  0.00    -0.358 OA
HETATM   84  H   UNK     0      25.572  35.605  25.006  0.00  0.00     0.217 HD
ENDBRANCH  79  83
BRANCH  80  85
HETATM   85  O   UNK     0      26.378  36.463  22.425  0.00  0.00    -0.356 OA
HETATM   86  H   UNK     0      26.998  37.149  22.011  0.00  0.00     0.218 HD
ENDBRANCH  80  85
BRANCH  81  87
HETATM   87  O   UNK     0      25.198  38.163  20.622  0.00  0.00    -0.358 OA
HETATM   88  H   UNK     0      25.131  37.850  19.662  0.00  0.00     0.217 HD
ENDBRANCH  81  87
ENDBRANCH  75  77
ENDBRANCH  74  75
ENDBRANCH  31  74
BRANCH  19  89
HETATM   89  O   UNK     0      16.470  40.433  12.837  0.00  0.00    -0.358 OA
HETATM   90  H   UNK     0      16.722  40.826  11.939  0.00  0.00     0.217 HD
ENDBRANCH  19  89
BRANCH  26  91
HETATM   91  O   UNK     0      20.768  44.787  20.492  0.00  0.00    -0.358 OA
HETATM   92  H   UNK     0      20.195  45.368  21.089  0.00  0.00     0.217 HD
ENDBRANCH  26  91
BRANCH  17  93
HETATM   93  O   UNK     0      17.358  43.022  12.996  0.00  0.00    -0.357 OA
HETATM   94  H   UNK     0      16.528  43.600  12.941  0.00  0.00     0.217 HD
ENDBRANCH  17  93
BRANCH  24  95
HETATM   95  O   UNK     0      19.261  45.988  18.535  0.00  0.00    -0.357 OA
HETATM   96  H   UNK     0      20.067  46.600  18.563  0.00  0.00     0.217 HD
ENDBRANCH  24  95
TORSDOF 21
ENDMDL
MODEL 6
REMARK VINA RESULT:      -8.2     10.141     16.872
REMARK  21 active torsions:
REMARK  status: ('A' for Active; 'I' for Inactive)
REMARK    1  A    between atoms: C_3  and  O_78 
REMARK    2  A    between atoms: C_5  and  O_77 
REMARK    3  A    between atoms: C_6  and  O_76 
REMARK    4  A    between atoms: C_7  and  O_15 
REMARK    5  A    between atoms: C_8  and  C_17 
REMARK    6  A    between atoms: C_9  and  O_13 
REMARK    7  A    between atoms: C_16  and  O_24 
REMARK    8  A    between atoms: C_18  and  O_22 
REMARK    9  A    between atoms: C_19  and  C_72 
REMARK   10  A    between atoms: C_20  and  O_23 
REMARK   11  A    between atoms: C_28  and  O_32 
REMARK   12  A    between atoms: C_30  and  O_33 
REMARK   13  A    between atoms: C_37  and  O_42 
REMARK   14  A    between atoms: C_39  and  O_43 
REMARK   15  A    between atoms: C_46  and  O_67 
REMARK   16  A    between atoms: C_48  and  O_65 
REMARK   17  A    between atoms: C_49  and  C_52 
REMARK   18  A    between atoms: C_50  and  O_66 
REMARK   19  A    between atoms: C_52  and  O_60 
REMARK   20  A    between atoms: C_54  and  O_60 
REMARK   21  A    between atoms: C_72  and  O_73 
ROOT
HETATM    1  C   UNK     0       4.904  30.069  11.502  0.00  0.00     0.058 A 
HETATM    2  C   UNK     0       5.776  30.011  10.425  0.00  0.00     0.060 A 
HETATM    3  C   UNK     0       3.951  29.086  11.695  0.00  0.00     0.102 A 
HETATM    4  C   UNK     0       5.695  28.944   9.520  0.00  0.00     0.127 A 
HETATM    5  C   UNK     0       3.866  28.030  10.808  0.00  0.00     0.135 A 
HETATM    6  C   UNK     0       4.734  27.963   9.732  0.00  0.00     0.137 A 
HETATM    7  C   UNK     0       9.407  29.117   6.253  0.00  0.00     0.114 A 
HETATM    8  C   UNK     0       9.872  30.394   6.558  0.00  0.00     0.030 A 
HETATM    9  C   UNK     0       8.288  28.580   6.870  0.00  0.00     0.134 A 
HETATM   10  C   UNK     0       9.168  31.129   7.520  0.00  0.00     0.059 A 
HETATM   11  C   UNK     0       7.596  29.311   7.817  0.00  0.00     0.116 A 
HETATM   12  C   UNK     0       8.051  30.576   8.121  0.00  0.00     0.329 A 
HETATM   13  O   UNK     0       6.478  28.758   8.399  0.00  0.00    -0.304 OA
HETATM   14  C   UNK     0       9.505  32.483   7.977  0.00  0.00     0.295 C 
HETATM   15  C   UNK     0      15.574  37.921   7.899  0.00  0.00     0.026 A 
HETATM   16  C   UNK     0      14.353  37.646   8.509  0.00  0.00     0.006 A 
HETATM   17  C   UNK     0      16.029  37.199   6.811  0.00  0.00     0.111 A 
HETATM   18  C   UNK     0      13.582  36.592   7.984  0.00  0.00     0.054 A 
HETATM   19  C   UNK     0      15.265  36.168   6.305  0.00  0.00     0.100 A 
HETATM   20  C   UNK     0      14.050  35.872   6.893  0.00  0.00     0.058 A 
HETATM   21  O   UNK     0      16.339  38.938   8.382  0.00  0.00     0.000 OA
HETATM   22  C   UNK     0      14.637  39.827   9.630  0.00  0.00     0.026 A 
HETATM   23  C   UNK     0      14.017  38.579   9.677  0.00  0.00     0.006 A 
HETATM   24  C   UNK     0      14.462  40.769  10.629  0.00  0.00     0.111 A 
HETATM   25  C   UNK     0      13.195  38.307  10.780  0.00  0.00     0.054 A 
HETATM   26  C   UNK     0      13.654  40.483  11.709  0.00  0.00     0.100 A 
HETATM   27  C   UNK     0      13.026  39.256  11.778  0.00  0.00     0.058 A 
HETATM   28  C   UNK     0      12.483  37.055  10.981  0.00  0.00     0.294 C 
HETATM   29  O   UNK     0      15.442  40.125   8.575  0.00  0.00     0.000 OA
HETATM   30  O   UNK     0      13.089  36.074  11.347  0.00  0.00    -0.259 OA
HETATM   31  C   UNK     0       9.169  35.688  11.347  0.00  0.00     0.302 C 
HETATM   32  C   UNK     0      10.633  35.677  10.982  0.00  0.00     0.220 C 
HETATM   33  O   UNK     0       8.765  34.344  11.642  0.00  0.00    -0.348 OA
HETATM   34  C   UNK     0      10.770  34.892   9.721  0.00  0.00     0.198 C 
HETATM   35  C   UNK     0       8.987  33.348  10.621  0.00  0.00     0.181 C 
HETATM   36  C   UNK     0      10.443  33.440  10.043  0.00  0.00     0.195 C 
HETATM   37  C   UNK     0       8.790  31.953  11.232  0.00  0.00     0.212 C 
HETATM   38  O   UNK     0      12.093  35.035   9.220  0.00  0.00    -0.306 OA
HETATM   39  O   UNK     0      10.538  32.647   8.858  0.00  0.00    -0.307 OA
HETATM   40  O   UNK     0      11.135  36.983  10.785  0.00  0.00    -0.304 OA
HETATM   41  O   UNK     0       7.425  31.577  11.378  0.00  0.00    -0.328 OA
HETATM   42  C   UNK     0      12.264  36.179   8.485  0.00  0.00     0.294 C 
HETATM   43  O   UNK     0      11.295  36.850   8.216  0.00  0.00    -0.259 OA
HETATM   44  O   UNK     0       8.842  33.433   7.629  0.00  0.00    -0.259 OA
HETATM   45  C   UNK     0       6.755  31.097  10.295  0.00  0.00     0.179 C 
HETATM   46  O   UNK     0       6.998  31.546   9.198  0.00  0.00    -0.383 OA
HETATM   47  H   UNK     0      17.226  39.155   7.946  0.00  0.00     0.000 HD
HETATM   48  H   UNK     0      15.904  41.025   8.530  0.00  0.00     0.000 HD
ENDROOT
BRANCH   3  49
HETATM   49  O   UNK     0       3.099  29.157  12.753  0.00  0.00    -0.358 OA
HETATM   50  H   UNK     0       2.470  28.388  12.949  0.00  0.00     0.217 HD
ENDBRANCH   3  49
BRANCH   5  51
HETATM   51  O   UNK     0       2.930  27.060  10.992  0.00  0.00    -0.356 OA
HETATM   52  H   UNK     0       1.951  27.268  10.847  0.00  0.00     0.218 HD
ENDBRANCH   5  51
BRANCH   6  53
HETATM   53  O   UNK     0       4.641  26.921   8.862  0.00  0.00    -0.356 OA
HETATM   54  H   UNK     0       4.618  27.093   7.865  0.00  0.00     0.218 HD
ENDBRANCH   6  53
BRANCH   9  55
HETATM   55  O   UNK     0       7.864  27.332   6.531  0.00  0.00    -0.356 OA
HETATM   56  H   UNK     0       8.015  26.557   7.164  0.00  0.00     0.218 HD
ENDBRANCH   9  55
BRANCH   7  57
HETATM   57  O   UNK     0      10.062  28.383   5.314  0.00  0.00    -0.357 OA
HETATM   58  H   UNK     0      10.943  27.941   5.543  0.00  0.00     0.217 HD
ENDBRANCH   7  57
BRANCH   8  59
HETATM   59  C   UNK     0      11.089  30.848   5.769  0.00  0.00     0.023 A 
HETATM   60  C   UNK     0      10.813  31.391   4.518  0.00  0.00     0.113 A 
HETATM   61  C   UNK     0      11.820  31.841   3.684  0.00  0.00     0.133 A 
HETATM   62  C   UNK     0      13.136  31.760   4.091  0.00  0.00     0.102 A 
HETATM   63  C   UNK     0      13.434  31.218   5.327  0.00  0.00     0.049 A 
HETATM   64  C   UNK     0      12.429  30.759   6.167  0.00  0.00    -0.018 A 
BRANCH  60  65
HETATM   65  O   UNK     0       9.519  31.472   4.103  0.00  0.00    -0.357 OA
HETATM   66  H   UNK     0       9.023  32.351   4.162  0.00  0.00     0.217 HD
ENDBRANCH  60  65
BRANCH  61  67
HETATM   67  O   UNK     0      11.514  32.359   2.465  0.00  0.00    -0.356 OA
HETATM   68  H   UNK     0      11.407  33.359   2.351  0.00  0.00     0.218 HD
ENDBRANCH  61  67
BRANCH  62  69
HETATM   69  O   UNK     0      14.131  32.205   3.277  0.00  0.00    -0.358 OA
HETATM   70  H   UNK     0      13.915  32.816   2.501  0.00  0.00     0.217 HD
ENDBRANCH  62  69
BRANCH  64  71
HETATM   71  C   UNK     0      12.877  30.173   7.476  0.00  0.00     0.203 C 
BRANCH  71  72
HETATM   72  O   UNK     0      13.094  31.235   8.395  0.00  0.00    -0.396 OA
HETATM   73  H   UNK     0      13.280  31.032   9.369  0.00  0.00     0.209 HD
ENDBRANCH  71  72
ENDBRANCH  64  71
ENDBRANCH   8  59
BRANCH  31  74
HETATM   74  O   UNK     0       8.959  36.514  12.482  0.00  0.00    -0.283 OA
BRANCH  74  75
HETATM   75  C   UNK     0       8.139  36.052  13.459  0.00  0.00     0.295 C 
HETATM   76  O   UNK     0       6.944  36.199  13.353  0.00  0.00    -0.259 OA
BRANCH  75  77
HETATM   77  C   UNK     0       8.688  35.371  14.639  0.00  0.00     0.045 A 
HETATM   78  C   UNK     0       8.003  34.318  15.224  0.00  0.00     0.057 A 
HETATM   79  C   UNK     0       8.527  33.687  16.342  0.00  0.00     0.102 A 
HETATM   80  C   UNK     0       9.734  34.112  16.876  0.00  0.00     0.132 A 
HETATM   81  C   UNK     0      10.419  35.164  16.291  0.00  0.00     0.102 A 
HETATM   82  C   UNK     0       9.897  35.792  15.172  0.00  0.00     0.057 A 
BRANCH  79  83
HETATM   83  O   UNK     0       7.858  32.651  16.917  0.00  0.00    -0.358 OA
HETATM   84  H   UNK     0       7.043  32.260  16.463  0.00  0.00     0.217 HD
ENDBRANCH  79  83
BRANCH  80  85
HETATM   85  O   UNK     0      10.244  33.498  17.977  0.00  0.00    -0.356 OA
HETATM   86  H   UNK     0       9.689  33.429  18.822  0.00  0.00     0.218 HD
ENDBRANCH  80  85
BRANCH  81  87
HETATM   87  O   UNK     0      11.600  35.582  16.816  0.00  0.00    -0.358 OA
HETATM   88  H   UNK     0      12.338  35.911  16.206  0.00  0.00     0.217 HD
ENDBRANCH  81  87
ENDBRANCH  75  77
ENDBRANCH  74  75
ENDBRANCH  31  74
BRANCH  19  89
HETATM   89  O   UNK     0      15.706  35.455   5.234  0.00  0.00    -0.358 OA
HETATM   90  H   UNK     0      15.877  35.921   4.351  0.00  0.00     0.217 HD
ENDBRANCH  19  89
BRANCH  26  91
HETATM   91  O   UNK     0      13.481  41.400  12.699  0.00  0.00    -0.358 OA
HETATM   92  H   UNK     0      12.813  41.227  13.438  0.00  0.00     0.217 HD
ENDBRANCH  26  91
BRANCH  17  93
HETATM   93  O   UNK     0      17.224  37.507   6.238  0.00  0.00    -0.357 OA
HETATM   94  H   UNK     0      18.081  37.409   6.769  0.00  0.00     0.217 HD
ENDBRANCH  17  93
BRANCH  24  95
HETATM   95  O   UNK     0      15.091  41.974  10.550  0.00  0.00    -0.357 OA
HETATM   96  H   UNK     0      16.070  42.017  10.299  0.00  0.00     0.217 HD
ENDBRANCH  24  95
TORSDOF 21
ENDMDL
MODEL 7
REMARK VINA RESULT:      -8.2      2.185     12.097
REMARK  21 active torsions:
REMARK  status: ('A' for Active; 'I' for Inactive)
REMARK    1  A    between atoms: C_3  and  O_78 
REMARK    2  A    between atoms: C_5  and  O_77 
REMARK    3  A    between atoms: C_6  and  O_76 
REMARK    4  A    between atoms: C_7  and  O_15 
REMARK    5  A    between atoms: C_8  and  C_17 
REMARK    6  A    between atoms: C_9  and  O_13 
REMARK    7  A    between atoms: C_16  and  O_24 
REMARK    8  A    between atoms: C_18  and  O_22 
REMARK    9  A    between atoms: C_19  and  C_72 
REMARK   10  A    between atoms: C_20  and  O_23 
REMARK   11  A    between atoms: C_28  and  O_32 
REMARK   12  A    between atoms: C_30  and  O_33 
REMARK   13  A    between atoms: C_37  and  O_42 
REMARK   14  A    between atoms: C_39  and  O_43 
REMARK   15  A    between atoms: C_46  and  O_67 
REMARK   16  A    between atoms: C_48  and  O_65 
REMARK   17  A    between atoms: C_49  and  C_52 
REMARK   18  A    between atoms: C_50  and  O_66 
REMARK   19  A    between atoms: C_52  and  O_60 
REMARK   20  A    between atoms: C_54  and  O_60 
REMARK   21  A    between atoms: C_72  and  O_73 
ROOT
HETATM    1  C   UNK     0      19.916  30.861  21.839  0.00  0.00     0.058 A 
HETATM    2  C   UNK     0      19.263  31.159  20.652  0.00  0.00     0.060 A 
HETATM    3  C   UNK     0      20.036  29.553  22.272  0.00  0.00     0.102 A 
HETATM    4  C   UNK     0      18.717  30.125  19.879  0.00  0.00     0.127 A 
HETATM    5  C   UNK     0      19.501  28.529  21.514  0.00  0.00     0.135 A 
HETATM    6  C   UNK     0      18.849  28.817  20.328  0.00  0.00     0.137 A 
HETATM    7  C   UNK     0      17.002  31.861  15.575  0.00  0.00     0.114 A 
HETATM    8  C   UNK     0      17.083  33.220  15.869  0.00  0.00     0.030 A 
HETATM    9  C   UNK     0      17.322  30.890  16.510  0.00  0.00     0.134 A 
HETATM   10  C   UNK     0      17.504  33.582  17.155  0.00  0.00     0.059 A 
HETATM   11  C   UNK     0      17.735  31.253  17.778  0.00  0.00     0.116 A 
HETATM   12  C   UNK     0      17.815  32.596  18.075  0.00  0.00     0.329 A 
HETATM   13  O   UNK     0      18.028  30.266  18.691  0.00  0.00    -0.304 OA
HETATM   14  C   UNK     0      17.656  34.955  17.650  0.00  0.00     0.295 C 
HETATM   15  C   UNK     0      18.159  42.661  15.044  0.00  0.00     0.026 A 
HETATM   16  C   UNK     0      18.366  41.865  16.168  0.00  0.00     0.006 A 
HETATM   17  C   UNK     0      17.537  42.177  13.908  0.00  0.00     0.111 A 
HETATM   18  C   UNK     0      17.922  40.531  16.116  0.00  0.00     0.054 A 
HETATM   19  C   UNK     0      17.106  40.868  13.868  0.00  0.00     0.100 A 
HETATM   20  C   UNK     0      17.300  40.056  14.969  0.00  0.00     0.058 A 
HETATM   21  O   UNK     0      18.574  43.957  15.068  0.00  0.00     0.000 OA
HETATM   22  C   UNK     0      18.869  43.980  17.338  0.00  0.00     0.026 A 
HETATM   23  C   UNK     0      19.044  42.596  17.332  0.00  0.00     0.006 A 
HETATM   24  C   UNK     0      19.447  44.786  18.304  0.00  0.00     0.111 A 
HETATM   25  C   UNK     0      19.829  42.039  18.351  0.00  0.00     0.054 A 
HETATM   26  C   UNK     0      20.220  44.222  19.298  0.00  0.00     0.100 A 
HETATM   27  C   UNK     0      20.406  42.854  19.314  0.00  0.00     0.058 A 
HETATM   28  C   UNK     0      20.112  40.619  18.483  0.00  0.00     0.294 C 
HETATM   29  O   UNK     0      18.114  44.555  16.365  0.00  0.00     0.000 OA
HETATM   30  O   UNK     0      20.918  40.098  17.746  0.00  0.00    -0.259 OA
HETATM   31  C   UNK     0      19.685  37.823  20.716  0.00  0.00     0.302 C 
HETATM   32  C   UNK     0      19.861  38.510  19.385  0.00  0.00     0.220 C 
HETATM   33  O   UNK     0      20.183  36.483  20.604  0.00  0.00    -0.348 OA
HETATM   34  C   UNK     0      18.991  37.802  18.401  0.00  0.00     0.198 C 
HETATM   35  C   UNK     0      19.616  35.652  19.569  0.00  0.00     0.181 C 
HETATM   36  C   UNK     0      19.569  36.408  18.194  0.00  0.00     0.195 C 
HETATM   37  C   UNK     0      20.483  34.394  19.406  0.00  0.00     0.212 C 
HETATM   38  O   UNK     0      18.953  38.542  17.188  0.00  0.00    -0.306 OA
HETATM   39  O   UNK     0      18.755  35.677  17.274  0.00  0.00    -0.307 OA
HETATM   40  O   UNK     0      19.494  39.874  19.445  0.00  0.00    -0.304 OA
HETATM   41  O   UNK     0      20.251  33.404  20.402  0.00  0.00    -0.328 OA
HETATM   42  C   UNK     0      18.036  39.560  17.213  0.00  0.00     0.294 C 
HETATM   43  O   UNK     0      17.278  39.640  18.151  0.00  0.00    -0.259 OA
HETATM   44  O   UNK     0      16.855  35.423  18.426  0.00  0.00    -0.259 OA
HETATM   45  C   UNK     0      19.181  32.574  20.269  0.00  0.00     0.179 C 
HETATM   46  O   UNK     0      18.155  32.998  19.788  0.00  0.00    -0.383 OA
HETATM   47  H   UNK     0      18.426  44.550  14.262  0.00  0.00     0.000 HD
HETATM   48  H   UNK     0      17.983  45.559  16.352  0.00  0.00     0.000 HD
ENDROOT
BRANCH   3  49
HETATM   49  O   UNK     0      20.676  29.274  23.439  0.00  0.00    -0.358 OA
HETATM   50  H   UNK     0      20.445  28.434  23.955  0.00  0.00     0.217 HD
ENDBRANCH   3  49
BRANCH   5  51
HETATM   51  O   UNK     0      19.614  27.240  21.935  0.00  0.00    -0.356 OA
HETATM   52  H   UNK     0      20.070  26.554  21.346  0.00  0.00     0.218 HD
ENDBRANCH   5  51
BRANCH   6  53
HETATM   53  O   UNK     0      18.324  27.802  19.590  0.00  0.00    -0.356 OA
HETATM   54  H   UNK     0      17.568  27.242  19.964  0.00  0.00     0.218 HD
ENDBRANCH   6  53
BRANCH   9  55
HETATM   55  O   UNK     0      17.217  29.574  16.180  0.00  0.00    -0.356 OA
HETATM   56  H   UNK     0      17.381  29.277  15.226  0.00  0.00     0.218 HD
ENDBRANCH   9  55
BRANCH   7  57
HETATM   57  O   UNK     0      16.585  31.478  14.338  0.00  0.00    -0.357 OA
HETATM   58  H   UNK     0      17.147  30.838  13.791  0.00  0.00     0.217 HD
ENDBRANCH   7  57
BRANCH   8  59
HETATM   59  C   UNK     0      16.664  34.155  14.746  0.00  0.00     0.023 A 
HETATM   60  C   UNK     0      17.713  34.731  14.036  0.00  0.00     0.113 A 
HETATM   61  C   UNK     0      17.488  35.608  12.991  0.00  0.00     0.133 A 
HETATM   62  C   UNK     0      16.194  35.927  12.630  0.00  0.00     0.102 A 
HETATM   63  C   UNK     0      15.137  35.372  13.325  0.00  0.00     0.049 A 
HETATM   64  C   UNK     0      15.356  34.495  14.379  0.00  0.00    -0.018 A 
BRANCH  60  65
HETATM   65  O   UNK     0      18.993  34.429  14.386  0.00  0.00    -0.357 OA
HETATM   66  H   UNK     0      19.188  34.026  15.293  0.00  0.00     0.217 HD
ENDBRANCH  60  65
BRANCH  61  67
HETATM   67  O   UNK     0      18.537  36.158  12.325  0.00  0.00    -0.356 OA
HETATM   68  H   UNK     0      18.700  35.923  11.354  0.00  0.00     0.218 HD
ENDBRANCH  61  67
BRANCH  62  69
HETATM   69  O   UNK     0      15.964  36.785  11.600  0.00  0.00    -0.358 OA
HETATM   70  H   UNK     0      15.130  37.356  11.594  0.00  0.00     0.217 HD
ENDBRANCH  62  69
BRANCH  64  71
HETATM   71  C   UNK     0      14.129  33.971  15.072  0.00  0.00     0.203 C 
BRANCH  71  72
HETATM   72  O   UNK     0      13.192  35.033  15.191  0.00  0.00    -0.396 OA
HETATM   73  H   UNK     0      12.199  34.836  15.169  0.00  0.00     0.209 HD
ENDBRANCH  71  72
ENDBRANCH  64  71
ENDBRANCH   8  59
BRANCH  31  74
HETATM   74  O   UNK     0      20.405  38.522  21.721  0.00  0.00    -0.283 OA
BRANCH  74  75
HETATM   75  C   UNK     0      21.723  38.240  21.868  0.00  0.00     0.295 C 
HETATM   76  O   UNK     0      22.060  37.316  22.571  0.00  0.00    -0.259 OA
BRANCH  75  77
HETATM   77  C   UNK     0      22.744  39.040  21.177  0.00  0.00     0.045 A 
HETATM   78  C   UNK     0      22.656  40.423  21.157  0.00  0.00     0.057 A 
HETATM   79  C   UNK     0      23.622  41.167  20.496  0.00  0.00     0.102 A 
HETATM   80  C   UNK     0      24.671  40.529  19.854  0.00  0.00     0.132 A 
HETATM   81  C   UNK     0      24.758  39.146  19.875  0.00  0.00     0.102 A 
HETATM   82  C   UNK     0      23.796  38.402  20.538  0.00  0.00     0.057 A 
BRANCH  79  83
HETATM   83  O   UNK     0      23.540  42.526  20.476  0.00  0.00    -0.358 OA
HETATM   84  H   UNK     0      24.017  43.050  19.754  0.00  0.00     0.217 HD
ENDBRANCH  79  83
BRANCH  80  85
HETATM   85  O   UNK     0      25.614  41.259  19.199  0.00  0.00    -0.356 OA
HETATM   86  H   UNK     0      26.550  40.889  19.083  0.00  0.00     0.218 HD
ENDBRANCH  80  85
BRANCH  81  87
HETATM   87  O   UNK     0      25.785  38.520  19.243  0.00  0.00    -0.358 OA
HETATM   88  H   UNK     0      26.315  39.008  18.532  0.00  0.00     0.217 HD
ENDBRANCH  81  87
ENDBRANCH  75  77
ENDBRANCH  74  75
ENDBRANCH  31  74
BRANCH  19  89
HETATM   89  O   UNK     0      16.491  40.387  12.755  0.00  0.00    -0.358 OA
HETATM   90  H   UNK     0      16.870  39.579  12.276  0.00  0.00     0.217 HD
ENDBRANCH  19  89
BRANCH  26  91
HETATM   91  O   UNK     0      20.798  45.006  20.247  0.00  0.00    -0.358 OA
HETATM   92  H   UNK     0      20.437  45.006  21.191  0.00  0.00     0.217 HD
ENDBRANCH  26  91
BRANCH  17  93
HETATM   93  O   UNK     0      17.345  42.991  12.835  0.00  0.00    -0.357 OA
HETATM   94  H   UNK     0      16.489  43.526  12.751  0.00  0.00     0.217 HD
ENDBRANCH  17  93
BRANCH  24  95
HETATM   95  O   UNK     0      19.258  46.133  18.272  0.00  0.00    -0.357 OA
HETATM   96  H   UNK     0      19.900  46.721  17.755  0.00  0.00     0.217 HD
ENDBRANCH  24  95
TORSDOF 21
ENDMDL
MODEL 8
REMARK VINA RESULT:      -8.0      1.974     12.078
REMARK  21 active torsions:
REMARK  status: ('A' for Active; 'I' for Inactive)
REMARK    1  A    between atoms: C_3  and  O_78 
REMARK    2  A    between atoms: C_5  and  O_77 
REMARK    3  A    between atoms: C_6  and  O_76 
REMARK    4  A    between atoms: C_7  and  O_15 
REMARK    5  A    between atoms: C_8  and  C_17 
REMARK    6  A    between atoms: C_9  and  O_13 
REMARK    7  A    between atoms: C_16  and  O_24 
REMARK    8  A    between atoms: C_18  and  O_22 
REMARK    9  A    between atoms: C_19  and  C_72 
REMARK   10  A    between atoms: C_20  and  O_23 
REMARK   11  A    between atoms: C_28  and  O_32 
REMARK   12  A    between atoms: C_30  and  O_33 
REMARK   13  A    between atoms: C_37  and  O_42 
REMARK   14  A    between atoms: C_39  and  O_43 
REMARK   15  A    between atoms: C_46  and  O_67 
REMARK   16  A    between atoms: C_48  and  O_65 
REMARK   17  A    between atoms: C_49  and  C_52 
REMARK   18  A    between atoms: C_50  and  O_66 
REMARK   19  A    between atoms: C_52  and  O_60 
REMARK   20  A    between atoms: C_54  and  O_60 
REMARK   21  A    between atoms: C_72  and  O_73 
ROOT
HETATM    1  C   UNK     0      21.734  30.551  20.674  0.00  0.00     0.058 A 
HETATM    2  C   UNK     0      20.720  30.822  19.767  0.00  0.00     0.060 A 
HETATM    3  C   UNK     0      21.989  29.255  21.085  0.00  0.00     0.102 A 
HETATM    4  C   UNK     0      19.942  29.773  19.258  0.00  0.00     0.127 A 
HETATM    5  C   UNK     0      21.227  28.216  20.585  0.00  0.00     0.135 A 
HETATM    6  C   UNK     0      20.214  28.477  19.679  0.00  0.00     0.137 A 
HETATM    7  C   UNK     0      16.882  31.401  15.727  0.00  0.00     0.114 A 
HETATM    8  C   UNK     0      17.061  32.767  15.932  0.00  0.00     0.030 A 
HETATM    9  C   UNK     0      17.496  30.454  16.532  0.00  0.00     0.134 A 
HETATM   10  C   UNK     0      17.892  33.162  16.988  0.00  0.00     0.059 A 
HETATM   11  C   UNK     0      18.313  30.849  17.574  0.00  0.00     0.116 A 
HETATM   12  C   UNK     0      18.492  32.200  17.781  0.00  0.00     0.329 A 
HETATM   13  O   UNK     0      18.893  29.887  18.367  0.00  0.00    -0.304 OA
HETATM   14  C   UNK     0      18.206  34.547  17.356  0.00  0.00     0.295 C 
HETATM   15  C   UNK     0      17.824  42.162  14.479  0.00  0.00     0.026 A 
HETATM   16  C   UNK     0      18.395  41.398  15.493  0.00  0.00     0.006 A 
HETATM   17  C   UNK     0      16.854  41.653  13.636  0.00  0.00     0.111 A 
HETATM   18  C   UNK     0      17.955  40.070  15.638  0.00  0.00     0.054 A 
HETATM   19  C   UNK     0      16.430  40.349  13.787  0.00  0.00     0.100 A 
HETATM   20  C   UNK     0      16.982  39.568  14.784  0.00  0.00     0.058 A 
HETATM   21  O   UNK     0      18.226  43.452  14.318  0.00  0.00     0.000 OA
HETATM   22  C   UNK     0      19.269  43.540  16.355  0.00  0.00     0.026 A 
HETATM   23  C   UNK     0      19.428  42.155  16.336  0.00  0.00     0.006 A 
HETATM   24  C   UNK     0      20.140  44.367  17.042  0.00  0.00     0.111 A 
HETATM   25  C   UNK     0      20.509  41.618  17.050  0.00  0.00     0.054 A 
HETATM   26  C   UNK     0      21.202  43.823  17.736  0.00  0.00     0.100 A 
HETATM   27  C   UNK     0      21.378  42.454  17.735  0.00  0.00     0.058 A 
HETATM   28  C   UNK     0      20.815  40.199  17.126  0.00  0.00     0.294 C 
HETATM   29  O   UNK     0      18.232  44.096  15.674  0.00  0.00     0.000 OA
HETATM   30  O   UNK     0      21.324  39.645  16.178  0.00  0.00    -0.259 OA
HETATM   31  C   UNK     0      21.158  37.478  19.464  0.00  0.00     0.302 C 
HETATM   32  C   UNK     0      20.876  38.122  18.129  0.00  0.00     0.220 C 
HETATM   33  O   UNK     0      21.585  36.129  19.235  0.00  0.00    -0.348 OA
HETATM   34  C   UNK     0      19.724  37.396  17.519  0.00  0.00     0.198 C 
HETATM   35  C   UNK     0      20.700  35.275  18.479  0.00  0.00     0.181 C 
HETATM   36  C   UNK     0      20.195  35.989  17.176  0.00  0.00     0.195 C 
HETATM   37  C   UNK     0      21.457  34.001  18.076  0.00  0.00     0.212 C 
HETATM   38  O   UNK     0      19.281  38.100  16.366  0.00  0.00    -0.306 OA
HETATM   39  O   UNK     0      19.116  35.242  16.609  0.00  0.00    -0.307 OA
HETATM   40  O   UNK     0      20.556  39.492  18.263  0.00  0.00    -0.304 OA
HETATM   41  O   UNK     0      21.572  33.045  19.124  0.00  0.00    -0.328 OA
HETATM   42  C   UNK     0      18.430  39.131  16.664  0.00  0.00     0.294 C 
HETATM   43  O   UNK     0      18.032  39.250  17.799  0.00  0.00    -0.259 OA
HETATM   44  O   UNK     0      17.714  35.049  18.341  0.00  0.00    -0.259 OA
HETATM   45  C   UNK     0      20.518  32.225  19.387  0.00  0.00     0.179 C 
HETATM   46  O   UNK     0      19.391  32.649  19.266  0.00  0.00    -0.383 OA
HETATM   47  H   UNK     0      17.817  44.023  13.590  0.00  0.00     0.000 HD
HETATM   48  H   UNK     0      18.107  45.101  15.673  0.00  0.00     0.000 HD
ENDROOT
BRANCH   3  49
HETATM   49  O   UNK     0      22.984  29.003  21.977  0.00  0.00    -0.358 OA
HETATM   50  H   UNK     0      23.152  28.056  22.293  0.00  0.00     0.217 HD
ENDBRANCH   3  49
BRANCH   5  51
HETATM   51  O   UNK     0      21.471  26.939  20.986  0.00  0.00    -0.356 OA
HETATM   52  H   UNK     0      22.075  26.765  21.780  0.00  0.00     0.218 HD
ENDBRANCH   5  51
BRANCH   6  53
HETATM   53  O   UNK     0      19.468  27.448  19.195  0.00  0.00    -0.356 OA
HETATM   54  H   UNK     0      19.646  27.085  18.267  0.00  0.00     0.218 HD
ENDBRANCH   6  53
BRANCH   9  55
HETATM   55  O   UNK     0      17.282  29.131  16.300  0.00  0.00    -0.356 OA
HETATM   56  H   UNK     0      17.114  28.802  15.357  0.00  0.00     0.218 HD
ENDBRANCH   9  55
BRANCH   7  57
HETATM   57  O   UNK     0      16.071  30.986  14.716  0.00  0.00    -0.357 OA
HETATM   58  H   UNK     0      16.415  30.322  14.034  0.00  0.00     0.217 HD
ENDBRANCH   7  57
BRANCH   8  59
HETATM   59  C   UNK     0      16.292  33.673  14.985  0.00  0.00     0.023 A 
HETATM   60  C   UNK     0      16.891  33.877  13.746  0.00  0.00     0.113 A 
HETATM   61  C   UNK     0      16.312  34.683  12.783  0.00  0.00     0.133 A 
HETATM   62  C   UNK     0      15.107  35.304  13.042  0.00  0.00     0.102 A 
HETATM   63  C   UNK     0      14.497  35.121  14.268  0.00  0.00     0.049 A 
HETATM   64  C   UNK     0      15.076  34.318  15.242  0.00  0.00    -0.018 A 
BRANCH  60  65
HETATM   65  O   UNK     0      18.082  33.274  13.480  0.00  0.00    -0.357 OA
HETATM   66  H   UNK     0      18.113  32.284  13.275  0.00  0.00     0.217 HD
ENDBRANCH  60  65
BRANCH  61  67
HETATM   67  O   UNK     0      16.929  34.866  11.586  0.00  0.00    -0.356 OA
HETATM   68  H   UNK     0      16.390  34.851  10.729  0.00  0.00     0.218 HD
ENDBRANCH  61  67
BRANCH  62  69
HETATM   69  O   UNK     0      14.529  36.095  12.098  0.00  0.00    -0.358 OA
HETATM   70  H   UNK     0      14.644  35.878  11.117  0.00  0.00     0.217 HD
ENDBRANCH  62  69
BRANCH  64  71
HETATM   71  C   UNK     0      14.329  34.211  16.542  0.00  0.00     0.203 C 
BRANCH  71  72
HETATM   72  O   UNK     0      14.783  35.242  17.409  0.00  0.00    -0.396 OA
HETATM   73  H   UNK     0      14.436  36.186  17.299  0.00  0.00     0.209 HD
ENDBRANCH  71  72
ENDBRANCH  64  71
ENDBRANCH   8  59
BRANCH  31  74
HETATM   74  O   UNK     0      22.176  38.197  20.143  0.00  0.00    -0.283 OA
BRANCH  74  75
HETATM   75  C   UNK     0      23.442  37.716  20.078  0.00  0.00     0.295 C 
HETATM   76  O   UNK     0      24.088  37.874  19.068  0.00  0.00    -0.259 OA
BRANCH  75  77
HETATM   77  C   UNK     0      24.038  37.012  21.222  0.00  0.00     0.045 A 
HETATM   78  C   UNK     0      25.341  37.283  21.611  0.00  0.00     0.057 A 
HETATM   79  C   UNK     0      25.895  36.607  22.687  0.00  0.00     0.102 A 
HETATM   80  C   UNK     0      25.149  35.660  23.371  0.00  0.00     0.132 A 
HETATM   81  C   UNK     0      23.846  35.392  22.983  0.00  0.00     0.102 A 
HETATM   82  C   UNK     0      23.291  36.069  21.910  0.00  0.00     0.057 A 
BRANCH  79  83
HETATM   83  O   UNK     0      27.173  36.871  23.073  0.00  0.00    -0.358 OA
HETATM   84  H   UNK     0      27.881  36.151  23.005  0.00  0.00     0.217 HD
ENDBRANCH  79  83
BRANCH  80  85
HETATM   85  O   UNK     0      25.695  34.993  24.423  0.00  0.00    -0.356 OA
HETATM   86  H   UNK     0      26.324  34.216  24.258  0.00  0.00     0.218 HD
ENDBRANCH  80  85
BRANCH  81  87
HETATM   87  O   UNK     0      23.115  34.462  23.652  0.00  0.00    -0.358 OA
HETATM   88  H   UNK     0      22.882  34.606  24.626  0.00  0.00     0.217 HD
ENDBRANCH  81  87
ENDBRANCH  75  77
ENDBRANCH  74  75
ENDBRANCH  31  74
BRANCH  19  89
HETATM   89  O   UNK     0      15.475  39.843  12.962  0.00  0.00    -0.358 OA
HETATM   90  H   UNK     0      15.736  39.448  12.067  0.00  0.00     0.217 HD
ENDBRANCH  19  89
BRANCH  26  91
HETATM   91  O   UNK     0      22.068  44.628  18.408  0.00  0.00    -0.358 OA
HETATM   92  H   UNK     0      22.976  44.277  18.681  0.00  0.00     0.217 HD
ENDBRANCH  26  91
BRANCH  17  93
HETATM   93  O   UNK     0      16.314  42.437  12.663  0.00  0.00    -0.357 OA
HETATM   94  H   UNK     0      15.481  42.981  12.854  0.00  0.00     0.217 HD
ENDBRANCH  17  93
BRANCH  24  95
HETATM   95  O   UNK     0      19.956  45.716  17.030  0.00  0.00    -0.357 OA
HETATM   96  H   UNK     0      20.388  46.279  16.309  0.00  0.00     0.217 HD
ENDBRANCH  24  95
TORSDOF 21
ENDMDL
MODEL 9
REMARK VINA RESULT:      -8.0      2.273      4.908
REMARK  21 active torsions:
REMARK  status: ('A' for Active; 'I' for Inactive)
REMARK    1  A    between atoms: C_3  and  O_78 
REMARK    2  A    between atoms: C_5  and  O_77 
REMARK    3  A    between atoms: C_6  and  O_76 
REMARK    4  A    between atoms: C_7  and  O_15 
REMARK    5  A    between atoms: C_8  and  C_17 
REMARK    6  A    between atoms: C_9  and  O_13 
REMARK    7  A    between atoms: C_16  and  O_24 
REMARK    8  A    between atoms: C_18  and  O_22 
REMARK    9  A    between atoms: C_19  and  C_72 
REMARK   10  A    between atoms: C_20  and  O_23 
REMARK   11  A    between atoms: C_28  and  O_32 
REMARK   12  A    between atoms: C_30  and  O_33 
REMARK   13  A    between atoms: C_37  and  O_42 
REMARK   14  A    between atoms: C_39  and  O_43 
REMARK   15  A    between atoms: C_46  and  O_67 
REMARK   16  A    between atoms: C_48  and  O_65 
REMARK   17  A    between atoms: C_49  and  C_52 
REMARK   18  A    between atoms: C_50  and  O_66 
REMARK   19  A    between atoms: C_52  and  O_60 
REMARK   20  A    between atoms: C_54  and  O_60 
REMARK   21  A    between atoms: C_72  and  O_73 
ROOT
HETATM    1  C   UNK     0      19.997  40.108  19.024  0.00  0.00     0.058 A 
HETATM    2  C   UNK     0      20.546  38.988  19.631  0.00  0.00     0.060 A 
HETATM    3  C   UNK     0      20.604  41.345  19.139  0.00  0.00     0.102 A 
HETATM    4  C   UNK     0      21.731  39.107  20.370  0.00  0.00     0.127 A 
HETATM    5  C   UNK     0      21.773  41.469  19.865  0.00  0.00     0.135 A 
HETATM    6  C   UNK     0      22.329  40.357  20.472  0.00  0.00     0.137 A 
HETATM    7  C   UNK     0      23.365  34.664  21.808  0.00  0.00     0.114 A 
HETATM    8  C   UNK     0      22.232  33.926  21.475  0.00  0.00     0.030 A 
HETATM    9  C   UNK     0      23.411  36.041  21.656  0.00  0.00     0.134 A 
HETATM   10  C   UNK     0      21.126  34.623  20.974  0.00  0.00     0.059 A 
HETATM   11  C   UNK     0      22.316  36.725  21.163  0.00  0.00     0.116 A 
HETATM   12  C   UNK     0      21.192  35.998  20.833  0.00  0.00     0.329 A 
HETATM   13  O   UNK     0      22.384  38.093  21.041  0.00  0.00    -0.304 OA
HETATM   14  C   UNK     0      19.851  34.023  20.564  0.00  0.00     0.295 C 
HETATM   15  C   UNK     0      16.481  26.841  18.700  0.00  0.00     0.026 A 
HETATM   16  C   UNK     0      16.256  28.213  18.624  0.00  0.00     0.006 A 
HETATM   17  C   UNK     0      17.535  26.310  19.420  0.00  0.00     0.111 A 
HETATM   18  C   UNK     0      17.148  29.061  19.306  0.00  0.00     0.054 A 
HETATM   19  C   UNK     0      18.404  27.150  20.084  0.00  0.00     0.100 A 
HETATM   20  C   UNK     0      18.205  28.516  20.023  0.00  0.00     0.058 A 
HETATM   21  O   UNK     0      15.632  25.996  18.054  0.00  0.00     0.000 OA
HETATM   22  C   UNK     0      14.039  27.608  17.723  0.00  0.00     0.026 A 
HETATM   23  C   UNK     0      15.019  28.596  17.805  0.00  0.00     0.006 A 
HETATM   24  C   UNK     0      12.878  27.787  16.992  0.00  0.00     0.111 A 
HETATM   25  C   UNK     0      14.786  29.796  17.118  0.00  0.00     0.054 A 
HETATM   26  C   UNK     0      12.666  28.973  16.318  0.00  0.00     0.100 A 
HETATM   27  C   UNK     0      13.620  29.968  16.386  0.00  0.00     0.058 A 
HETATM   28  C   UNK     0      15.708  30.921  17.099  0.00  0.00     0.294 C 
HETATM   29  O   UNK     0      14.232  26.431  18.376  0.00  0.00     0.000 OA
HETATM   30  O   UNK     0      16.704  30.866  16.414  0.00  0.00    -0.259 OA
HETATM   31  C   UNK     0      15.979  34.401  17.994  0.00  0.00     0.302 C 
HETATM   32  C   UNK     0      16.480  33.005  17.717  0.00  0.00     0.220 C 
HETATM   33  O   UNK     0      17.050  35.323  17.752  0.00  0.00    -0.348 OA
HETATM   34  C   UNK     0      17.546  32.709  18.718  0.00  0.00     0.198 C 
HETATM   35  C   UNK     0      18.279  35.113  18.478  0.00  0.00     0.181 C 
HETATM   36  C   UNK     0      18.732  33.612  18.408  0.00  0.00     0.195 C 
HETATM   37  C   UNK     0      19.381  35.986  17.860  0.00  0.00     0.212 C 
HETATM   38  O   UNK     0      17.896  31.334  18.640  0.00  0.00    -0.306 OA
HETATM   39  O   UNK     0      19.777  33.384  19.358  0.00  0.00    -0.307 OA
HETATM   40  O   UNK     0      15.448  32.045  17.826  0.00  0.00    -0.304 OA
HETATM   41  O   UNK     0      19.320  37.353  18.253  0.00  0.00    -0.328 OA
HETATM   42  C   UNK     0      17.050  30.526  19.354  0.00  0.00     0.294 C 
HETATM   43  O   UNK     0      16.220  31.038  20.069  0.00  0.00    -0.259 OA
HETATM   44  O   UNK     0      18.864  34.144  21.253  0.00  0.00    -0.259 OA
HETATM   45  C   UNK     0      19.836  37.716  19.458  0.00  0.00     0.179 C 
HETATM   46  O   UNK     0      19.743  36.958  20.397  0.00  0.00    -0.383 OA
HETATM   47  H   UNK     0      15.777  24.996  18.105  0.00  0.00     0.000 HD
HETATM   48  H   UNK     0      13.532  25.701  18.320  0.00  0.00     0.000 HD
ENDROOT
BRANCH   3  49
HETATM   49  O   UNK     0      20.054  42.436  18.542  0.00  0.00    -0.358 OA
HETATM   50  H   UNK     0      19.234  42.874  18.943  0.00  0.00     0.217 HD
ENDBRANCH   3  49
BRANCH   5  51
HETATM   51  O   UNK     0      22.376  42.684  19.983  0.00  0.00    -0.356 OA
HETATM   52  H   UNK     0      21.992  43.488  19.501  0.00  0.00     0.218 HD
ENDBRANCH   5  51
BRANCH   6  53
HETATM   53  O   UNK     0      23.480  40.490  21.187  0.00  0.00    -0.356 OA
HETATM   54  H   UNK     0      24.063  41.307  21.060  0.00  0.00     0.218 HD
ENDBRANCH   6  53
BRANCH   9  55
HETATM   55  O   UNK     0      24.536  36.721  22.006  0.00  0.00    -0.356 OA
HETATM   56  H   UNK     0      24.827  36.754  22.975  0.00  0.00     0.218 HD
ENDBRANCH   9  55
BRANCH   7  57
HETATM   57  O   UNK     0      24.451  34.016  22.309  0.00  0.00    -0.357 OA
HETATM   58  H   UNK     0      24.540  33.876  23.308  0.00  0.00     0.217 HD
ENDBRANCH   7  57
BRANCH   8  59
HETATM   59  C   UNK     0      22.331  32.431  21.733  0.00  0.00     0.023 A 
HETATM   60  C   UNK     0      22.150  32.048  23.058  0.00  0.00     0.113 A 
HETATM   61  C   UNK     0      22.219  30.722  23.447  0.00  0.00     0.133 A 
HETATM   62  C   UNK     0      22.469  29.743  22.506  0.00  0.00     0.102 A 
HETATM   63  C   UNK     0      22.659  30.102  21.185  0.00  0.00     0.049 A 
HETATM   64  C   UNK     0      22.598  31.431  20.789  0.00  0.00    -0.018 A 
BRANCH  60  65
HETATM   65  O   UNK     0      21.908  33.003  23.996  0.00  0.00    -0.357 OA
HETATM   66  H   UNK     0      21.040  33.523  23.977  0.00  0.00     0.217 HD
ENDBRANCH  60  65
BRANCH  61  67
HETATM   67  O   UNK     0      22.044  30.384  24.752  0.00  0.00    -0.356 OA
HETATM   68  H   UNK     0      22.765  29.873  25.244  0.00  0.00     0.218 HD
ENDBRANCH  61  67
BRANCH  62  69
HETATM   69  O   UNK     0      22.534  28.437  22.880  0.00  0.00    -0.358 OA
HETATM   70  H   UNK     0      23.428  28.017  23.099  0.00  0.00     0.217 HD
ENDBRANCH  62  69
BRANCH  64  71
HETATM   71  C   UNK     0      22.840  31.700  19.330  0.00  0.00     0.203 C 
BRANCH  71  72
HETATM   72  O   UNK     0      21.696  31.281  18.599  0.00  0.00    -0.396 OA
HETATM   73  H   UNK     0      21.752  30.474  17.990  0.00  0.00     0.209 HD
ENDBRANCH  71  72
ENDBRANCH  64  71
ENDBRANCH   8  59
BRANCH  31  74
HETATM   74  O   UNK     0      14.884  34.700  17.141  0.00  0.00    -0.283 OA
BRANCH  74  75
HETATM   75  C   UNK     0      13.668  34.886  17.713  0.00  0.00     0.295 C 
HETATM   76  O   UNK     0      13.466  35.880  18.371  0.00  0.00    -0.259 OA
BRANCH  75  77
HETATM   77  C   UNK     0      12.596  33.898  17.536  0.00  0.00     0.045 A 
HETATM   78  C   UNK     0      12.129  33.168  18.618  0.00  0.00     0.057 A 
HETATM   79  C   UNK     0      11.121  32.233  18.438  0.00  0.00     0.102 A 
HETATM   80  C   UNK     0      10.583  32.027  17.177  0.00  0.00     0.132 A 
HETATM   81  C   UNK     0      11.049  32.758  16.096  0.00  0.00     0.102 A 
HETATM   82  C   UNK     0      12.054  33.694  16.277  0.00  0.00     0.057 A 
BRANCH  79  83
HETATM   83  O   UNK     0      10.659  31.515  19.498  0.00  0.00    -0.358 OA
HETATM   84  H   UNK     0      10.331  31.992  20.328  0.00  0.00     0.217 HD
ENDBRANCH  79  83
BRANCH  80  85
HETATM   85  O   UNK     0       9.599  31.104  16.999  0.00  0.00    -0.356 OA
HETATM   86  H   UNK     0       9.141  31.020  16.100  0.00  0.00     0.218 HD
ENDBRANCH  80  85
BRANCH  81  87
HETATM   87  O   UNK     0      10.524  32.554  14.860  0.00  0.00    -0.358 OA
HETATM   88  H   UNK     0       9.944  31.744  14.684  0.00  0.00     0.217 HD
ENDBRANCH  81  87
ENDBRANCH  75  77
ENDBRANCH  74  75
ENDBRANCH  31  74
BRANCH  19  89
HETATM   89  O   UNK     0      19.442  26.634  20.795  0.00  0.00    -0.358 OA
HETATM   90  H   UNK     0      20.137  26.061  20.333  0.00  0.00     0.217 HD
ENDBRANCH  19  89
BRANCH  26  91
HETATM   91  O   UNK     0      11.531  29.156  15.591  0.00  0.00    -0.358 OA
HETATM   92  H   UNK     0      11.065  28.362  15.173  0.00  0.00     0.217 HD
ENDBRANCH  26  91
BRANCH  17  93
HETATM   93  O   UNK     0      17.714  24.962  19.476  0.00  0.00    -0.357 OA
HETATM   94  H   UNK     0      17.026  24.379  19.937  0.00  0.00     0.217 HD
ENDBRANCH  17  93
BRANCH  24  95
HETATM   95  O   UNK     0      11.948  26.795  16.930  0.00  0.00    -0.357 OA
HETATM   96  H   UNK     0      12.140  25.955  16.401  0.00  0.00     0.217 HD
ENDBRANCH  24  95
TORSDOF 21
ENDMDL
MODEL 10
REMARK VINA RESULT:      -7.8     10.505     17.366
REMARK  21 active torsions:
REMARK  status: ('A' for Active; 'I' for Inactive)
REMARK    1  A    between atoms: C_3  and  O_78 
REMARK    2  A    between atoms: C_5  and  O_77 
REMARK    3  A    between atoms: C_6  and  O_76 
REMARK    4  A    between atoms: C_7  and  O_15 
REMARK    5  A    between atoms: C_8  and  C_17 
REMARK    6  A    between atoms: C_9  and  O_13 
REMARK    7  A    between atoms: C_16  and  O_24 
REMARK    8  A    between atoms: C_18  and  O_22 
REMARK    9  A    between atoms: C_19  and  C_72 
REMARK   10  A    between atoms: C_20  and  O_23 
REMARK   11  A    between atoms: C_28  and  O_32 
REMARK   12  A    between atoms: C_30  and  O_33 
REMARK   13  A    between atoms: C_37  and  O_42 
REMARK   14  A    between atoms: C_39  and  O_43 
REMARK   15  A    between atoms: C_46  and  O_67 
REMARK   16  A    between atoms: C_48  and  O_65 
REMARK   17  A    between atoms: C_49  and  C_52 
REMARK   18  A    between atoms: C_50  and  O_66 
REMARK   19  A    between atoms: C_52  and  O_60 
REMARK   20  A    between atoms: C_54  and  O_60 
REMARK   21  A    between atoms: C_72  and  O_73 
ROOT
HETATM    1  C   UNK     0      17.728  22.010  16.664  0.00  0.00     0.058 A 
HETATM    2  C   UNK     0      16.815  23.040  16.485  0.00  0.00     0.060 A 
HETATM    3  C   UNK     0      18.369  21.835  17.877  0.00  0.00     0.102 A 
HETATM    4  C   UNK     0      16.536  23.914  17.545  0.00  0.00     0.127 A 
HETATM    5  C   UNK     0      18.097  22.693  18.925  0.00  0.00     0.135 A 
HETATM    6  C   UNK     0      17.187  23.722  18.756  0.00  0.00     0.137 A 
HETATM    7  C   UNK     0      12.849  26.994  16.361  0.00  0.00     0.114 A 
HETATM    8  C   UNK     0      12.787  26.706  15.000  0.00  0.00     0.030 A 
HETATM    9  C   UNK     0      13.801  26.418  17.187  0.00  0.00     0.134 A 
HETATM   10  C   UNK     0      13.725  25.803  14.483  0.00  0.00     0.059 A 
HETATM   11  C   UNK     0      14.726  25.530  16.672  0.00  0.00     0.116 A 
HETATM   12  C   UNK     0      14.669  25.242  15.325  0.00  0.00     0.329 A 
HETATM   13  O   UNK     0      15.670  24.989  17.514  0.00  0.00    -0.304 OA
HETATM   14  C   UNK     0      13.816  25.372  13.083  0.00  0.00     0.295 C 
HETATM   15  C   UNK     0       9.562  25.311   6.133  0.00  0.00     0.026 A 
HETATM   16  C   UNK     0      10.686  24.755   6.738  0.00  0.00     0.006 A 
HETATM   17  C   UNK     0       8.858  26.352   6.709  0.00  0.00     0.111 A 
HETATM   18  C   UNK     0      11.092  25.285   7.976  0.00  0.00     0.054 A 
HETATM   19  C   UNK     0       9.265  26.864   7.924  0.00  0.00     0.100 A 
HETATM   20  C   UNK     0      10.376  26.329   8.547  0.00  0.00     0.058 A 
HETATM   21  O   UNK     0       9.149  24.821   4.932  0.00  0.00     0.000 OA
HETATM   22  C   UNK     0      11.102  23.688   4.551  0.00  0.00     0.026 A 
HETATM   23  C   UNK     0      11.341  23.634   5.923  0.00  0.00     0.006 A 
HETATM   24  C   UNK     0      11.595  22.729   3.683  0.00  0.00     0.111 A 
HETATM   25  C   UNK     0      12.112  22.566   6.403  0.00  0.00     0.054 A 
HETATM   26  C   UNK     0      12.349  21.682   4.173  0.00  0.00     0.100 A 
HETATM   27  C   UNK     0      12.602  21.608   5.528  0.00  0.00     0.058 A 
HETATM   28  C   UNK     0      12.447  22.362   7.804  0.00  0.00     0.294 C 
HETATM   29  O   UNK     0      10.357  24.710   4.050  0.00  0.00     0.000 OA
HETATM   30  O   UNK     0      11.607  21.937   8.564  0.00  0.00    -0.259 OA
HETATM   31  C   UNK     0      15.246  22.122  10.060  0.00  0.00     0.302 C 
HETATM   32  C   UNK     0      13.822  22.412   9.655  0.00  0.00     0.220 C 
HETATM   33  O   UNK     0      15.265  21.807  11.459  0.00  0.00    -0.348 OA
HETATM   34  C   UNK     0      13.394  23.641  10.386  0.00  0.00     0.198 C 
HETATM   35  C   UNK     0      14.710  22.784  12.364  0.00  0.00     0.181 C 
HETATM   36  C   UNK     0      13.310  23.291  11.866  0.00  0.00     0.195 C 
HETATM   37  C   UNK     0      14.533  22.142  13.748  0.00  0.00     0.212 C 
HETATM   38  O   UNK     0      12.142  24.079   9.877  0.00  0.00    -0.306 OA
HETATM   39  O   UNK     0      12.925  24.445  12.617  0.00  0.00    -0.307 OA
HETATM   40  O   UNK     0      13.704  22.624   8.263  0.00  0.00    -0.304 OA
HETATM   41  O   UNK     0      15.740  22.054  14.498  0.00  0.00    -0.328 OA
HETATM   42  C   UNK     0      12.263  24.838   8.743  0.00  0.00     0.294 C 
HETATM   43  O   UNK     0      13.366  25.176   8.382  0.00  0.00    -0.259 OA
HETATM   44  O   UNK     0      14.701  25.782  12.369  0.00  0.00    -0.259 OA
HETATM   45  C   UNK     0      16.182  23.153  15.166  0.00  0.00     0.179 C 
HETATM   46  O   UNK     0      16.015  24.250  14.682  0.00  0.00    -0.383 OA
HETATM   47  H   UNK     0       8.338  25.218   4.475  0.00  0.00     0.000 HD
HETATM   48  H   UNK     0      10.170  24.759   3.056  0.00  0.00     0.000 HD
ENDROOT
BRANCH   3  49
HETATM   49  O   UNK     0      19.264  20.824  18.038  0.00  0.00    -0.358 OA
HETATM   50  H   UNK     0      20.234  20.960  17.779  0.00  0.00     0.217 HD
ENDBRANCH   3  49
BRANCH   5  51
HETATM   51  O   UNK     0      18.725  22.527  20.121  0.00  0.00    -0.356 OA
HETATM   52  H   UNK     0      19.215  21.664  20.319  0.00  0.00     0.218 HD
ENDBRANCH   5  51
BRANCH   6  53
HETATM   53  O   UNK     0      16.928  24.562  19.795  0.00  0.00    -0.356 OA
HETATM   54  H   UNK     0      17.676  25.105  20.206  0.00  0.00     0.218 HD
ENDBRANCH   6  53
BRANCH   9  55
HETATM   55  O   UNK     0      13.829  26.740  18.509  0.00  0.00    -0.356 OA
HETATM   56  H   UNK     0      13.218  26.263  19.160  0.00  0.00     0.218 HD
ENDBRANCH   9  55
BRANCH   7  57
HETATM   57  O   UNK     0      11.958  27.876  16.890  0.00  0.00    -0.357 OA
HETATM   58  H   UNK     0      12.241  28.831  17.071  0.00  0.00     0.217 HD
ENDBRANCH   7  57
BRANCH   8  59
HETATM   59  C   UNK     0      11.707  27.446  14.226  0.00  0.00     0.023 A 
HETATM   60  C   UNK     0      10.555  26.710  13.971  0.00  0.00     0.113 A 
HETATM   61  C   UNK     0       9.490  27.248  13.271  0.00  0.00     0.133 A 
HETATM   62  C   UNK     0       9.556  28.548  12.813  0.00  0.00     0.102 A 
HETATM   63  C   UNK     0      10.695  29.296  13.049  0.00  0.00     0.049 A 
HETATM   64  C   UNK     0      11.770  28.760  13.745  0.00  0.00    -0.018 A 
BRANCH  60  65
HETATM   65  O   UNK     0      10.478  25.425  14.413  0.00  0.00    -0.357 OA
HETATM   66  H   UNK     0       9.768  25.162  15.082  0.00  0.00     0.217 HD
ENDBRANCH  60  65
BRANCH  61  67
HETATM   67  O   UNK     0       8.382  26.497  13.033  0.00  0.00    -0.356 OA
HETATM   68  H   UNK     0       7.475  26.940  12.962  0.00  0.00     0.218 HD
ENDBRANCH  61  67
BRANCH  62  69
HETATM   69  O   UNK     0       8.511  29.086  12.128  0.00  0.00    -0.358 OA
HETATM   70  H   UNK     0       8.257  28.717  11.221  0.00  0.00     0.217 HD
ENDBRANCH  62  69
BRANCH  64  71
HETATM   71  C   UNK     0      12.959  29.661  13.924  0.00  0.00     0.203 C 
BRANCH  71  72
HETATM   72  O   UNK     0      12.856  30.298  15.190  0.00  0.00    -0.396 OA
HETATM   73  H   UNK     0      12.857  29.744  16.037  0.00  0.00     0.209 HD
ENDBRANCH  71  72
ENDBRANCH  64  71
ENDBRANCH   8  59
BRANCH  31  74
HETATM   74  O   UNK     0      15.748  21.025   9.312  0.00  0.00    -0.283 OA
BRANCH  74  75
HETATM   75  C   UNK     0      16.786  21.255   8.470  0.00  0.00     0.295 C 
HETATM   76  O   UNK     0      17.906  20.952   8.808  0.00  0.00    -0.259 OA
BRANCH  75  77
HETATM   77  C   UNK     0      16.562  21.861   7.150  0.00  0.00     0.045 A 
HETATM   78  C   UNK     0      16.638  23.235   6.987  0.00  0.00     0.057 A 
HETATM   79  C   UNK     0      16.418  23.796   5.738  0.00  0.00     0.102 A 
HETATM   80  C   UNK     0      16.119  22.985   4.655  0.00  0.00     0.132 A 
HETATM   81  C   UNK     0      16.045  21.611   4.819  0.00  0.00     0.102 A 
HETATM   82  C   UNK     0      16.268  21.049   6.065  0.00  0.00     0.057 A 
BRANCH  79  83
HETATM   83  O   UNK     0      16.494  25.146   5.574  0.00  0.00    -0.358 OA
HETATM   84  H   UNK     0      17.358  25.632   5.773  0.00  0.00     0.217 HD
ENDBRANCH  79  83
BRANCH  80  85
HETATM   85  O   UNK     0      15.896  23.536   3.432  0.00  0.00    -0.356 OA
HETATM   86  H   UNK     0      15.204  23.132   2.813  0.00  0.00     0.218 HD
ENDBRANCH  80  85
BRANCH  81  87
HETATM   87  O   UNK     0      15.749  20.815   3.758  0.00  0.00    -0.358 OA
HETATM   88  H   UNK     0      16.307  19.991   3.572  0.00  0.00     0.217 HD
ENDBRANCH  81  87
ENDBRANCH  75  77
ENDBRANCH  74  75
ENDBRANCH  31  74
BRANCH  19  89
HETATM   89  O   UNK     0       8.578  27.889   8.496  0.00  0.00    -0.358 OA
HETATM   90  H   UNK     0       8.606  28.019   9.499  0.00  0.00     0.217 HD
ENDBRANCH  19  89
BRANCH  26  91
HETATM   91  O   UNK     0      12.832  20.730   3.330  0.00  0.00    -0.358 OA
HETATM   92  H   UNK     0      13.597  20.137   3.622  0.00  0.00     0.217 HD
ENDBRANCH  26  91
BRANCH  17  93
HETATM   93  O   UNK     0       7.770  26.873   6.080  0.00  0.00    -0.357 OA
HETATM   94  H   UNK     0       6.896  26.362   6.073  0.00  0.00     0.217 HD
ENDBRANCH  17  93
BRANCH  24  95
HETATM   95  O   UNK     0      11.334  22.813   2.350  0.00  0.00    -0.357 OA
HETATM   96  H   UNK     0      11.039  23.693   1.947  0.00  0.00     0.217 HD
ENDBRANCH  24  95
TORSDOF 21
ENDMDL
MODEL 11
REMARK VINA RESULT:      -7.7     24.573     27.924
REMARK  21 active torsions:
REMARK  status: ('A' for Active; 'I' for Inactive)
REMARK    1  A    between atoms: C_3  and  O_78 
REMARK    2  A    between atoms: C_5  and  O_77 
REMARK    3  A    between atoms: C_6  and  O_76 
REMARK    4  A    between atoms: C_7  and  O_15 
REMARK    5  A    between atoms: C_8  and  C_17 
REMARK    6  A    between atoms: C_9  and  O_13 
REMARK    7  A    between atoms: C_16  and  O_24 
REMARK    8  A    between atoms: C_18  and  O_22 
REMARK    9  A    between atoms: C_19  and  C_72 
REMARK   10  A    between atoms: C_20  and  O_23 
REMARK   11  A    between atoms: C_28  and  O_32 
REMARK   12  A    between atoms: C_30  and  O_33 
REMARK   13  A    between atoms: C_37  and  O_42 
REMARK   14  A    between atoms: C_39  and  O_43 
REMARK   15  A    between atoms: C_46  and  O_67 
REMARK   16  A    between atoms: C_48  and  O_65 
REMARK   17  A    between atoms: C_49  and  C_52 
REMARK   18  A    between atoms: C_50  and  O_66 
REMARK   19  A    between atoms: C_52  and  O_60 
REMARK   20  A    between atoms: C_54  and  O_60 
REMARK   21  A    between atoms: C_72  and  O_73 
ROOT
HETATM    1  C   UNK     0      11.120  58.809  11.624  0.00  0.00     0.058 A 
HETATM    2  C   UNK     0      10.900  58.029  10.499  0.00  0.00     0.060 A 
HETATM    3  C   UNK     0      12.357  59.382  11.859  0.00  0.00     0.102 A 
HETATM    4  C   UNK     0      11.942  57.817   9.584  0.00  0.00     0.127 A 
HETATM    5  C   UNK     0      13.387  59.178  10.961  0.00  0.00     0.135 A 
HETATM    6  C   UNK     0      13.176  58.402   9.834  0.00  0.00     0.137 A 
HETATM    7  C   UNK     0      10.315  55.385   5.594  0.00  0.00     0.114 A 
HETATM    8  C   UNK     0       9.063  55.024   6.086  0.00  0.00     0.030 A 
HETATM    9  C   UNK     0      11.239  56.063   6.374  0.00  0.00     0.134 A 
HETATM   10  C   UNK     0       8.760  55.371   7.409  0.00  0.00     0.059 A 
HETATM   11  C   UNK     0      10.936  56.401   7.679  0.00  0.00     0.116 A 
HETATM   12  C   UNK     0       9.698  56.044   8.171  0.00  0.00     0.329 A 
HETATM   13  O   UNK     0      11.880  57.055   8.434  0.00  0.00    -0.304 OA
HETATM   14  C   UNK     0       7.497  55.084   8.100  0.00  0.00     0.295 C 
HETATM   15  C   UNK     0      -0.204  52.842   6.660  0.00  0.00     0.026 A 
HETATM   16  C   UNK     0       0.621  53.365   7.653  0.00  0.00     0.006 A 
HETATM   17  C   UNK     0       0.300  52.355   5.469  0.00  0.00     0.111 A 
HETATM   18  C   UNK     0       2.006  53.389   7.406  0.00  0.00     0.054 A 
HETATM   19  C   UNK     0       1.660  52.384   5.238  0.00  0.00     0.100 A 
HETATM   20  C   UNK     0       2.501  52.899   6.205  0.00  0.00     0.058 A 
HETATM   21  O   UNK     0      -1.548  52.802   6.873  0.00  0.00     0.000 OA
HETATM   22  C   UNK     0      -1.358  53.197   9.120  0.00  0.00     0.026 A 
HETATM   23  C   UNK     0      -0.130  53.823   8.908  0.00  0.00     0.006 A 
HETATM   24  C   UNK     0      -2.171  53.525  10.190  0.00  0.00     0.111 A 
HETATM   25  C   UNK     0       0.263  54.804   9.829  0.00  0.00     0.054 A 
HETATM   26  C   UNK     0      -1.771  54.497  11.085  0.00  0.00     0.100 A 
HETATM   27  C   UNK     0      -0.558  55.128  10.899  0.00  0.00     0.058 A 
HETATM   28  C   UNK     0       1.508  55.551   9.748  0.00  0.00     0.294 C 
HETATM   29  O   UNK     0      -1.771  52.241   8.246  0.00  0.00     0.000 OA
HETATM   30  O   UNK     0       1.620  56.443   8.937  0.00  0.00    -0.259 OA
HETATM   31  C   UNK     0       4.562  56.206  11.545  0.00  0.00     0.302 C 
HETATM   32  C   UNK     0       3.680  56.068  10.329  0.00  0.00     0.220 C 
HETATM   33  O   UNK     0       5.626  57.116  11.233  0.00  0.00    -0.348 OA
HETATM   34  C   UNK     0       4.499  55.432   9.256  0.00  0.00     0.198 C 
HETATM   35  C   UNK     0       6.449  56.802  10.090  0.00  0.00     0.181 C 
HETATM   36  C   UNK     0       5.573  56.430   8.842  0.00  0.00     0.195 C 
HETATM   37  C   UNK     0       7.305  58.028   9.738  0.00  0.00     0.212 C 
HETATM   38  O   UNK     0       3.657  55.082   8.166  0.00  0.00    -0.306 OA
HETATM   39  O   UNK     0       6.403  55.857   7.829  0.00  0.00    -0.307 OA
HETATM   40  O   UNK     0       2.543  55.272  10.592  0.00  0.00    -0.304 OA
HETATM   41  O   UNK     0       8.442  58.195  10.577  0.00  0.00    -0.328 OA
HETATM   42  C   UNK     0       3.022  53.881   8.347  0.00  0.00     0.294 C 
HETATM   43  O   UNK     0       3.332  53.193   9.291  0.00  0.00    -0.259 OA
HETATM   44  O   UNK     0       7.440  54.217   8.942  0.00  0.00    -0.259 OA
HETATM   45  C   UNK     0       9.559  57.459  10.329  0.00  0.00     0.179 C 
HETATM   46  O   UNK     0       9.444  56.325   9.922  0.00  0.00    -0.383 OA
HETATM   47  H   UNK     0      -2.161  52.419   6.164  0.00  0.00     0.000 HD
HETATM   48  H   UNK     0      -2.664  51.783   8.383  0.00  0.00     0.000 HD
ENDROOT
BRANCH   3  49
HETATM   49  O   UNK     0      12.561  60.142  12.968  0.00  0.00    -0.358 OA
HETATM   50  H   UNK     0      13.336  60.791  13.002  0.00  0.00     0.217 HD
ENDBRANCH   3  49
BRANCH   5  51
HETATM   51  O   UNK     0      14.607  59.738  11.186  0.00  0.00    -0.356 OA
HETATM   52  H   UNK     0      15.424  59.148  11.278  0.00  0.00     0.218 HD
ENDBRANCH   5  51
BRANCH   6  53
HETATM   53  O   UNK     0      14.198  58.206   8.957  0.00  0.00    -0.356 OA
HETATM   54  H   UNK     0      15.104  58.619   9.134  0.00  0.00     0.218 HD
ENDBRANCH   6  53
BRANCH   9  55
HETATM   55  O   UNK     0      12.454  56.384   5.853  0.00  0.00    -0.356 OA
HETATM   56  H   UNK     0      12.516  56.802   4.933  0.00  0.00     0.218 HD
ENDBRANCH   9  55
BRANCH   7  57
HETATM   57  O   UNK     0      10.643  55.052   4.317  0.00  0.00    -0.357 OA
HETATM   58  H   UNK     0      11.603  54.829   4.084  0.00  0.00     0.217 HD
ENDBRANCH   7  57
BRANCH   8  59
HETATM   59  C   UNK     0       8.179  54.257   5.116  0.00  0.00     0.023 A 
HETATM   60  C   UNK     0       7.532  55.037   4.163  0.00  0.00     0.113 A 
HETATM   61  C   UNK     0       6.690  54.479   3.218  0.00  0.00     0.133 A 
HETATM   62  C   UNK     0       6.480  53.115   3.206  0.00  0.00     0.102 A 
HETATM   63  C   UNK     0       7.107  52.321   4.147  0.00  0.00     0.049 A 
HETATM   64  C   UNK     0       7.949  52.875   5.102  0.00  0.00    -0.018 A 
BRANCH  60  65
HETATM   65  O   UNK     0       7.727  56.384   4.168  0.00  0.00    -0.357 OA
HETATM   66  H   UNK     0       6.945  57.008   4.022  0.00  0.00     0.217 HD
ENDBRANCH  60  65
BRANCH  61  67
HETATM   67  O   UNK     0       6.068  55.273   2.307  0.00  0.00    -0.356 OA
HETATM   68  H   UNK     0       5.180  55.703   2.532  0.00  0.00     0.218 HD
ENDBRANCH  61  67
BRANCH  62  69
HETATM   69  O   UNK     0       5.657  52.559   2.277  0.00  0.00    -0.358 OA
HETATM   70  H   UNK     0       5.881  52.631   1.293  0.00  0.00     0.217 HD
ENDBRANCH  62  69
BRANCH  64  71
HETATM   71  C   UNK     0       8.558  51.915   6.085  0.00  0.00     0.203 C 
BRANCH  71  72
HETATM   72  O   UNK     0       8.292  50.590   5.645  0.00  0.00    -0.396 OA
HETATM   73  H   UNK     0       7.506  50.078   6.025  0.00  0.00     0.209 HD
ENDBRANCH  71  72
ENDBRANCH  64  71
ENDBRANCH   8  59
BRANCH  31  74
HETATM   74  O   UNK     0       3.806  56.706  12.638  0.00  0.00    -0.283 OA
BRANCH  74  75
HETATM   75  C   UNK     0       3.972  56.115  13.847  0.00  0.00     0.295 C 
HETATM   76  O   UNK     0       5.089  55.921  14.266  0.00  0.00    -0.259 OA
BRANCH  75  77
HETATM   77  C   UNK     0       2.811  55.715  14.653  0.00  0.00     0.045 A 
HETATM   78  C   UNK     0       1.532  55.783  14.123  0.00  0.00     0.057 A 
HETATM   79  C   UNK     0       0.443  55.409  14.896  0.00  0.00     0.102 A 
HETATM   80  C   UNK     0       0.633  54.971  16.197  0.00  0.00     0.132 A 
HETATM   81  C   UNK     0       1.912  54.902  16.725  0.00  0.00     0.102 A 
HETATM   82  C   UNK     0       3.001  55.272  15.953  0.00  0.00     0.057 A 
BRANCH  79  83
HETATM   83  O   UNK     0      -0.814  55.473  14.379  0.00  0.00    -0.358 OA
HETATM   84  H   UNK     0      -0.956  55.387  13.381  0.00  0.00     0.217 HD
ENDBRANCH  79  83
BRANCH  80  85
HETATM   85  O   UNK     0      -0.436  54.611  16.957  0.00  0.00    -0.356 OA
HETATM   86  H   UNK     0      -0.552  55.002  17.884  0.00  0.00     0.218 HD
ENDBRANCH  80  85
BRANCH  81  87
HETATM   87  O   UNK     0       2.098  54.474  18.002  0.00  0.00    -0.358 OA
HETATM   88  H   UNK     0       3.000  54.118  18.290  0.00  0.00     0.217 HD
ENDBRANCH  81  87
ENDBRANCH  75  77
ENDBRANCH  74  75
ENDBRANCH  31  74
BRANCH  19  89
HETATM   89  O   UNK     0       2.163  51.904   4.069  0.00  0.00    -0.358 OA
HETATM   90  H   UNK     0       2.211  52.503   3.254  0.00  0.00     0.217 HD
ENDBRANCH  19  89
BRANCH  26  91
HETATM   91  O   UNK     0      -2.566  54.831  12.137  0.00  0.00    -0.358 OA
HETATM   92  H   UNK     0      -2.307  54.556  13.075  0.00  0.00     0.217 HD
ENDBRANCH  26  91
BRANCH  17  93
HETATM   93  O   UNK     0      -0.540  51.843   4.528  0.00  0.00    -0.357 OA
HETATM   94  H   UNK     0      -0.372  52.026   3.547  0.00  0.00     0.217 HD
ENDBRANCH  17  93
BRANCH  24  95
HETATM   95  O   UNK     0      -3.366  52.897  10.359  0.00  0.00    -0.357 OA
HETATM   96  H   UNK     0      -3.565  52.044   9.852  0.00  0.00     0.217 HD
ENDBRANCH  24  95
TORSDOF 21
ENDMDL
MODEL 12
REMARK VINA RESULT:      -7.6     15.329     21.795
REMARK  21 active torsions:
REMARK  status: ('A' for Active; 'I' for Inactive)
REMARK    1  A    between atoms: C_3  and  O_78 
REMARK    2  A    between atoms: C_5  and  O_77 
REMARK    3  A    between atoms: C_6  and  O_76 
REMARK    4  A    between atoms: C_7  and  O_15 
REMARK    5  A    between atoms: C_8  and  C_17 
REMARK    6  A    between atoms: C_9  and  O_13 
REMARK    7  A    between atoms: C_16  and  O_24 
REMARK    8  A    between atoms: C_18  and  O_22 
REMARK    9  A    between atoms: C_19  and  C_72 
REMARK   10  A    between atoms: C_20  and  O_23 
REMARK   11  A    between atoms: C_28  and  O_32 
REMARK   12  A    between atoms: C_30  and  O_33 
REMARK   13  A    between atoms: C_37  and  O_42 
REMARK   14  A    between atoms: C_39  and  O_43 
REMARK   15  A    between atoms: C_46  and  O_67 
REMARK   16  A    between atoms: C_48  and  O_65 
REMARK   17  A    between atoms: C_49  and  C_52 
REMARK   18  A    between atoms: C_50  and  O_66 
REMARK   19  A    between atoms: C_52  and  O_60 
REMARK   20  A    between atoms: C_54  and  O_60 
REMARK   21  A    between atoms: C_72  and  O_73 
ROOT
HETATM    1  C   UNK     0      -4.374  29.443  16.997  0.00  0.00     0.058 A 
HETATM    2  C   UNK     0      -3.226  29.396  16.221  0.00  0.00     0.060 A 
HETATM    3  C   UNK     0      -5.138  28.309  17.201  0.00  0.00     0.102 A 
HETATM    4  C   UNK     0      -2.831  28.186  15.634  0.00  0.00     0.127 A 
HETATM    5  C   UNK     0      -4.754  27.112  16.628  0.00  0.00     0.135 A 
HETATM    6  C   UNK     0      -3.608  27.056  15.852  0.00  0.00     0.137 A 
HETATM    7  C   UNK     0       1.583  28.645  13.446  0.00  0.00     0.114 A 
HETATM    8  C   UNK     0       1.687  30.033  13.512  0.00  0.00     0.030 A 
HETATM    9  C   UNK     0       0.453  27.975  13.889  0.00  0.00     0.134 A 
HETATM   10  C   UNK     0       0.603  30.741  14.046  0.00  0.00     0.059 A 
HETATM   11  C   UNK     0      -0.614  28.679  14.413  0.00  0.00     0.116 A 
HETATM   12  C   UNK     0      -0.517  30.052  14.479  0.00  0.00     0.329 A 
HETATM   13  O   UNK     0      -1.729  27.987  14.827  0.00  0.00    -0.304 OA
HETATM   14  C   UNK     0       0.527  32.198  14.202  0.00  0.00     0.295 C 
HETATM   15  C   UNK     0       5.204  38.872  14.196  0.00  0.00     0.026 A 
HETATM   16  C   UNK     0       3.932  38.422  14.539  0.00  0.00     0.006 A 
HETATM   17  C   UNK     0       6.090  38.089  13.480  0.00  0.00     0.111 A 
HETATM   18  C   UNK     0       3.566  37.125  14.134  0.00  0.00     0.054 A 
HETATM   19  C   UNK     0       5.721  36.818  13.089  0.00  0.00     0.100 A 
HETATM   20  C   UNK     0       4.464  36.346  13.418  0.00  0.00     0.058 A 
HETATM   21  O   UNK     0       5.584  40.124  14.569  0.00  0.00     0.000 OA
HETATM   22  C   UNK     0       3.452  40.781  15.086  0.00  0.00     0.026 A 
HETATM   23  C   UNK     0       3.093  39.452  15.304  0.00  0.00     0.006 A 
HETATM   24  C   UNK     0       2.814  41.827  15.730  0.00  0.00     0.111 A 
HETATM   25  C   UNK     0       2.047  39.204  16.204  0.00  0.00     0.054 A 
HETATM   26  C   UNK     0       1.789  41.565  16.616  0.00  0.00     0.100 A 
HETATM   27  C   UNK     0       1.413  40.257  16.846  0.00  0.00     0.058 A 
HETATM   28  C   UNK     0       1.557  37.878  16.544  0.00  0.00     0.294 C 
HETATM   29  O   UNK     0       4.463  41.059  14.220  0.00  0.00     0.000 OA
HETATM   30  O   UNK     0       2.200  37.174  17.289  0.00  0.00    -0.259 OA
HETATM   31  C   UNK     0      -1.396  35.815  16.431  0.00  0.00     0.302 C 
HETATM   32  C   UNK     0       0.085  36.104  16.452  0.00  0.00     0.220 C 
HETATM   33  O   UNK     0      -1.608  34.498  16.959  0.00  0.00    -0.348 OA
HETATM   34  C   UNK     0       0.737  35.146  15.512  0.00  0.00     0.198 C 
HETATM   35  C   UNK     0      -0.909  33.410  16.319  0.00  0.00     0.181 C 
HETATM   36  C   UNK     0       0.609  33.752  16.112  0.00  0.00     0.195 C 
HETATM   37  C   UNK     0      -1.012  32.159  17.205  0.00  0.00     0.212 C 
HETATM   38  O   UNK     0       2.097  35.518  15.330  0.00  0.00    -0.306 OA
HETATM   39  O   UNK     0       1.200  32.790  15.235  0.00  0.00    -0.307 OA
HETATM   40  O   UNK     0       0.367  37.428  16.049  0.00  0.00    -0.304 OA
HETATM   41  O   UNK     0      -2.261  31.486  17.105  0.00  0.00    -0.328 OA
HETATM   42  C   UNK     0       2.260  36.499  14.388  0.00  0.00     0.294 C 
HETATM   43  O   UNK     0       1.308  36.835  13.725  0.00  0.00    -0.259 OA
HETATM   44  O   UNK     0      -0.169  32.861  13.467  0.00  0.00    -0.259 OA
HETATM   45  C   UNK     0      -2.476  30.647  16.055  0.00  0.00     0.179 C 
HETATM   46  O   UNK     0      -2.006  30.917  14.974  0.00  0.00    -0.383 OA
HETATM   47  H   UNK     0       6.503  40.469  14.322  0.00  0.00     0.000 HD
HETATM   48  H   UNK     0       4.740  42.019  14.057  0.00  0.00     0.000 HD
ENDROOT
BRANCH   3  49
HETATM   49  O   UNK     0      -6.264  28.369  17.962  0.00  0.00    -0.358 OA
HETATM   50  H   UNK     0      -6.272  28.919  18.812  0.00  0.00     0.217 HD
ENDBRANCH   3  49
BRANCH   5  51
HETATM   51  O   UNK     0      -5.501  25.992  16.823  0.00  0.00    -0.356 OA
HETATM   52  H   UNK     0      -5.221  25.312  17.519  0.00  0.00     0.218 HD
ENDBRANCH   5  51
BRANCH   6  53
HETATM   53  O   UNK     0      -3.240  25.873  15.289  0.00  0.00    -0.356 OA
HETATM   54  H   UNK     0      -3.759  25.502  14.504  0.00  0.00     0.218 HD
ENDBRANCH   6  53
BRANCH   9  55
HETATM   55  O   UNK     0       0.393  26.619  13.794  0.00  0.00    -0.356 OA
HETATM   56  H   UNK     0       1.247  26.076  13.758  0.00  0.00     0.218 HD
ENDBRANCH   9  55
BRANCH   7  57
HETATM   57  O   UNK     0       2.614  27.931  12.921  0.00  0.00    -0.357 OA
HETATM   58  H   UNK     0       2.504  26.940  12.746  0.00  0.00     0.217 HD
ENDBRANCH   7  57
BRANCH   8  59
HETATM   59  C   UNK     0       2.975  30.616  12.954  0.00  0.00     0.023 A 
HETATM   60  C   UNK     0       3.023  30.724  11.568  0.00  0.00     0.113 A 
HETATM   61  C   UNK     0       4.133  31.230  10.917  0.00  0.00     0.133 A 
HETATM   62  C   UNK     0       5.228  31.645  11.649  0.00  0.00     0.102 A 
HETATM   63  C   UNK     0       5.205  31.539  13.026  0.00  0.00     0.049 A 
HETATM   64  C   UNK     0       4.096  31.027  13.686  0.00  0.00    -0.018 A 
BRANCH  60  65
HETATM   65  O   UNK     0       1.952  30.314  10.835  0.00  0.00    -0.357 OA
HETATM   66  H   UNK     0       2.094  29.847   9.950  0.00  0.00     0.217 HD
ENDBRANCH  60  65
BRANCH  61  67
HETATM   67  O   UNK     0       4.148  31.315   9.561  0.00  0.00    -0.356 OA
HETATM   68  H   UNK     0       3.951  32.197   9.105  0.00  0.00     0.218 HD
ENDBRANCH  61  67
BRANCH  62  69
HETATM   69  O   UNK     0       6.322  32.147  11.015  0.00  0.00    -0.358 OA
HETATM   70  H   UNK     0       7.197  32.241  11.514  0.00  0.00     0.217 HD
ENDBRANCH  62  69
BRANCH  64  71
HETATM   71  C   UNK     0       4.196  30.944  15.183  0.00  0.00     0.203 C 
BRANCH  71  72
HETATM   72  O   UNK     0       3.919  32.228  15.726  0.00  0.00    -0.396 OA
HETATM   73  H   UNK     0       3.001  32.430  16.104  0.00  0.00     0.209 HD
ENDBRANCH  71  72
ENDBRANCH  64  71
ENDBRANCH   8  59
BRANCH  31  74
HETATM   74  O   UNK     0      -2.086  36.768  17.224  0.00  0.00    -0.283 OA
BRANCH  74  75
HETATM   75  C   UNK     0      -2.913  37.638  16.592  0.00  0.00     0.295 C 
HETATM   76  O   UNK     0      -3.631  37.239  15.705  0.00  0.00    -0.259 OA
BRANCH  75  77
HETATM   77  C   UNK     0      -2.951  39.055  16.979  0.00  0.00     0.045 A 
HETATM   78  C   UNK     0      -3.941  39.890  16.488  0.00  0.00     0.057 A 
HETATM   79  C   UNK     0      -3.962  41.227  16.855  0.00  0.00     0.102 A 
HETATM   80  C   UNK     0      -2.992  41.728  17.708  0.00  0.00     0.132 A 
HETATM   81  C   UNK     0      -2.002  40.892  18.200  0.00  0.00     0.102 A 
HETATM   82  C   UNK     0      -1.983  39.556  17.837  0.00  0.00     0.057 A 
BRANCH  79  83
HETATM   83  O   UNK     0      -4.935  42.051  16.376  0.00  0.00    -0.358 OA
HETATM   84  H   UNK     0      -5.626  41.695  15.728  0.00  0.00     0.217 HD
ENDBRANCH  79  83
BRANCH  80  85
HETATM   85  O   UNK     0      -3.008  43.042  18.062  0.00  0.00    -0.356 OA
HETATM   86  H   UNK     0      -3.380  43.319  18.963  0.00  0.00     0.218 HD
ENDBRANCH  80  85
BRANCH  81  87
HETATM   87  O   UNK     0      -1.050  41.384  19.035  0.00  0.00    -0.358 OA
HETATM   88  H   UNK     0      -1.011  41.073  19.997  0.00  0.00     0.217 HD
ENDBRANCH  81  87
ENDBRANCH  75  77
ENDBRANCH  74  75
ENDBRANCH  31  74
BRANCH  19  89
HETATM   89  O   UNK     0       6.587  36.043  12.383  0.00  0.00    -0.358 OA
HETATM   90  H   UNK     0       7.457  35.744  12.804  0.00  0.00     0.217 HD
ENDBRANCH  19  89
BRANCH  26  91
HETATM   91  O   UNK     0       1.160  42.585  17.259  0.00  0.00    -0.358 OA
HETATM   92  H   UNK     0       0.512  42.387  18.010  0.00  0.00     0.217 HD
ENDBRANCH  26  91
BRANCH  17  93
HETATM   93  O   UNK     0       7.322  38.570  13.157  0.00  0.00    -0.357 OA
HETATM   94  H   UNK     0       7.926  38.939  13.880  0.00  0.00     0.217 HD
ENDBRANCH  17  93
BRANCH  24  95
HETATM   95  O   UNK     0       3.199  43.111  15.496  0.00  0.00    -0.357 OA
HETATM   96  H   UNK     0       2.997  43.545  14.605  0.00  0.00     0.217 HD
ENDBRANCH  24  95
TORSDOF 21
ENDMDL
MODEL 13
REMARK VINA RESULT:      -7.4     26.607     32.176
REMARK  21 active torsions:
REMARK  status: ('A' for Active; 'I' for Inactive)
REMARK    1  A    between atoms: C_3  and  O_78 
REMARK    2  A    between atoms: C_5  and  O_77 
REMARK    3  A    between atoms: C_6  and  O_76 
REMARK    4  A    between atoms: C_7  and  O_15 
REMARK    5  A    between atoms: C_8  and  C_17 
REMARK    6  A    between atoms: C_9  and  O_13 
REMARK    7  A    between atoms: C_16  and  O_24 
REMARK    8  A    between atoms: C_18  and  O_22 
REMARK    9  A    between atoms: C_19  and  C_72 
REMARK   10  A    between atoms: C_20  and  O_23 
REMARK   11  A    between atoms: C_28  and  O_32 
REMARK   12  A    between atoms: C_30  and  O_33 
REMARK   13  A    between atoms: C_37  and  O_42 
REMARK   14  A    between atoms: C_39  and  O_43 
REMARK   15  A    between atoms: C_46  and  O_67 
REMARK   16  A    between atoms: C_48  and  O_65 
REMARK   17  A    between atoms: C_49  and  C_52 
REMARK   18  A    between atoms: C_50  and  O_66 
REMARK   19  A    between atoms: C_52  and  O_60 
REMARK   20  A    between atoms: C_54  and  O_60 
REMARK   21  A    between atoms: C_72  and  O_73 
ROOT
HETATM    1  C   UNK     0       7.980  20.538  -7.609  0.00  0.00     0.058 A 
HETATM    2  C   UNK     0       6.923  20.214  -6.771  0.00  0.00     0.060 A 
HETATM    3  C   UNK     0       8.793  19.552  -8.138  0.00  0.00     0.102 A 
HETATM    4  C   UNK     0       6.671  18.871  -6.456  0.00  0.00     0.127 A 
HETATM    5  C   UNK     0       8.549  18.227  -7.833  0.00  0.00     0.135 A 
HETATM    6  C   UNK     0       7.495  17.894  -7.000  0.00  0.00     0.137 A 
HETATM    7  C   UNK     0       2.483  18.427  -3.860  0.00  0.00     0.114 A 
HETATM    8  C   UNK     0       2.282  19.777  -3.587  0.00  0.00     0.030 A 
HETATM    9  C   UNK     0       3.603  17.977  -4.541  0.00  0.00     0.134 A 
HETATM   10  C   UNK     0       3.256  20.682  -4.028  0.00  0.00     0.059 A 
HETATM   11  C   UNK     0       4.563  18.874  -4.973  0.00  0.00     0.116 A 
HETATM   12  C   UNK     0       4.368  20.212  -4.703  0.00  0.00     0.329 A 
HETATM   13  O   UNK     0       5.673  18.397  -5.629  0.00  0.00    -0.304 OA
HETATM   14  C   UNK     0       3.219  22.137  -3.841  0.00  0.00     0.295 C 
HETATM   15  C   UNK     0      -1.864  28.193  -1.865  0.00  0.00     0.026 A 
HETATM   16  C   UNK     0      -0.606  27.948  -2.410  0.00  0.00     0.006 A 
HETATM   17  C   UNK     0      -2.619  27.192  -1.283  0.00  0.00     0.111 A 
HETATM   18  C   UNK     0      -0.116  26.630  -2.356  0.00  0.00     0.054 A 
HETATM   19  C   UNK     0      -2.128  25.903  -1.236  0.00  0.00     0.100 A 
HETATM   20  C   UNK     0      -0.883  25.632  -1.771  0.00  0.00     0.058 A 
HETATM   21  O   UNK     0      -2.362  29.459  -1.899  0.00  0.00     0.000 OA
HETATM   22  C   UNK     0      -0.342  30.402  -2.423  0.00  0.00     0.026 A 
HETATM   23  C   UNK     0       0.079  29.195  -2.978  0.00  0.00     0.006 A 
HETATM   24  C   UNK     0       0.156  31.619  -2.853  0.00  0.00     0.111 A 
HETATM   25  C   UNK     0       1.043  29.253  -3.996  0.00  0.00     0.054 A 
HETATM   26  C   UNK     0       1.100  31.659  -3.858  0.00  0.00     0.100 A 
HETATM   27  C   UNK     0       1.537  30.477  -4.422  0.00  0.00     0.058 A 
HETATM   28  C   UNK     0       1.582  28.088  -4.679  0.00  0.00     0.294 C 
HETATM   29  O   UNK     0      -1.276  30.384  -1.434  0.00  0.00     0.000 OA
HETATM   30  O   UNK     0       0.914  27.521  -5.513  0.00  0.00    -0.259 OA
HETATM   31  C   UNK     0       4.660  26.323  -5.305  0.00  0.00     0.302 C 
HETATM   32  C   UNK     0       3.170  26.477  -5.133  0.00  0.00     0.220 C 
HETATM   33  O   UNK     0       4.904  25.186  -6.145  0.00  0.00    -0.348 OA
HETATM   34  C   UNK     0       2.681  25.276  -4.395  0.00  0.00     0.198 C 
HETATM   35  C   UNK     0       4.348  23.923  -5.724  0.00  0.00     0.181 C 
HETATM   36  C   UNK     0       2.840  24.073  -5.316  0.00  0.00     0.195 C 
HETATM   37  C   UNK     0       4.442  22.923  -6.886  0.00  0.00     0.212 C 
HETATM   38  O   UNK     0       1.326  25.475  -4.016  0.00  0.00    -0.306 OA
HETATM   39  O   UNK     0       2.406  22.888  -4.644  0.00  0.00    -0.307 OA
HETATM   40  O   UNK     0       2.843  27.644  -4.407  0.00  0.00    -0.304 OA
HETATM   41  O   UNK     0       5.737  22.357  -7.053  0.00  0.00    -0.328 OA
HETATM   42  C   UNK     0       1.195  26.196  -2.859  0.00  0.00     0.294 C 
HETATM   43  O   UNK     0       2.186  26.454  -2.217  0.00  0.00    -0.259 OA
HETATM   44  O   UNK     0       3.940  22.672  -3.031  0.00  0.00    -0.259 OA
HETATM   45  C   UNK     0       6.113  21.322  -6.253  0.00  0.00     0.179 C 
HETATM   46  O   UNK     0       5.739  21.295  -5.103  0.00  0.00    -0.383 OA
HETATM   47  H   UNK     0      -3.272  29.655  -1.501  0.00  0.00     0.000 HD
HETATM   48  H   UNK     0      -1.597  31.253  -1.026  0.00  0.00     0.000 HD
ENDROOT
BRANCH   3  49
HETATM   49  O   UNK     0       9.828  19.884  -8.955  0.00  0.00    -0.358 OA
HETATM   50  H   UNK     0      10.489  20.596  -8.671  0.00  0.00     0.217 HD
ENDBRANCH   3  49
BRANCH   5  51
HETATM   51  O   UNK     0       9.345  17.252  -8.350  0.00  0.00    -0.356 OA
HETATM   52  H   UNK     0      10.351  17.364  -8.343  0.00  0.00     0.218 HD
ENDBRANCH   5  51
BRANCH   6  53
HETATM   53  O   UNK     0       7.264  16.586  -6.704  0.00  0.00    -0.356 OA
HETATM   54  H   UNK     0       7.441  15.871  -7.398  0.00  0.00     0.218 HD
ENDBRANCH   6  53
BRANCH   9  55
HETATM   55  O   UNK     0       3.762  16.647  -4.775  0.00  0.00    -0.356 OA
HETATM   56  H   UNK     0       3.089  15.984  -4.410  0.00  0.00     0.218 HD
ENDBRANCH   9  55
BRANCH   7  57
HETATM   57  O   UNK     0       1.560  17.523  -3.434  0.00  0.00    -0.357 OA
HETATM   58  H   UNK     0       0.821  17.813  -2.805  0.00  0.00     0.217 HD
ENDBRANCH   7  57
BRANCH   8  59
HETATM   59  C   UNK     0       1.021  20.101  -2.801  0.00  0.00     0.023 A 
HETATM   60  C   UNK     0       1.108  19.884  -1.430  0.00  0.00     0.113 A 
HETATM   61  C   UNK     0       0.038  20.127  -0.587  0.00  0.00     0.133 A 
HETATM   62  C   UNK     0      -1.150  20.601  -1.105  0.00  0.00     0.102 A 
HETATM   63  C   UNK     0      -1.261  20.818  -2.466  0.00  0.00     0.049 A 
HETATM   64  C   UNK     0      -0.194  20.570  -3.318  0.00  0.00    -0.018 A 
BRANCH  60  65
HETATM   65  O   UNK     0       2.272  19.412  -0.907  0.00  0.00    -0.357 OA
HETATM   66  H   UNK     0       3.158  19.717  -1.287  0.00  0.00     0.217 HD
ENDBRANCH  60  65
BRANCH  61  67
HETATM   67  O   UNK     0       0.156  19.896   0.747  0.00  0.00    -0.356 OA
HETATM   68  H   UNK     0       0.781  19.175   1.084  0.00  0.00     0.218 HD
ENDBRANCH  61  67
BRANCH  62  69
HETATM   69  O   UNK     0      -2.204  20.847  -0.282  0.00  0.00    -0.358 OA
HETATM   70  H   UNK     0      -3.090  21.146  -0.668  0.00  0.00     0.217 HD
ENDBRANCH  62  69
BRANCH  64  71
HETATM   71  C   UNK     0      -0.440  20.825  -4.779  0.00  0.00     0.203 C 
BRANCH  71  72
HETATM   72  O   UNK     0      -0.314  22.220  -5.021  0.00  0.00    -0.396 OA
HETATM   73  H   UNK     0      -0.570  22.602  -5.922  0.00  0.00     0.209 HD
ENDBRANCH  71  72
ENDBRANCH  64  71
ENDBRANCH   8  59
BRANCH  31  74
HETATM   74  O   UNK     0       5.202  27.490  -5.905  0.00  0.00    -0.283 OA
BRANCH  74  75
HETATM   75  C   UNK     0       6.067  28.235  -5.174  0.00  0.00     0.295 C 
HETATM   76  O   UNK     0       7.256  28.053  -5.289  0.00  0.00    -0.259 OA
BRANCH  75  77
HETATM   77  C   UNK     0       5.574  29.265  -4.249  0.00  0.00     0.045 A 
HETATM   78  C   UNK     0       5.327  28.955  -2.921  0.00  0.00     0.057 A 
HETATM   79  C   UNK     0       4.856  29.934  -2.059  0.00  0.00     0.102 A 
HETATM   80  C   UNK     0       4.628  31.219  -2.525  0.00  0.00     0.132 A 
HETATM   81  C   UNK     0       4.875  31.528  -3.853  0.00  0.00     0.102 A 
HETATM   82  C   UNK     0       5.350  30.552  -4.714  0.00  0.00     0.057 A 
BRANCH  79  83
HETATM   83  O   UNK     0       4.614  29.634  -0.753  0.00  0.00    -0.358 OA
HETATM   84  H   UNK     0       3.835  29.037  -0.507  0.00  0.00     0.217 HD
ENDBRANCH  79  83
BRANCH  80  85
HETATM   85  O   UNK     0       4.158  32.177  -1.681  0.00  0.00    -0.356 OA
HETATM   86  H   UNK     0       3.313  32.011  -1.148  0.00  0.00     0.218 HD
ENDBRANCH  80  85
BRANCH  81  87
HETATM   87  O   UNK     0       4.650  32.787  -4.312  0.00  0.00    -0.358 OA
HETATM   88  H   UNK     0       5.426  33.366  -4.605  0.00  0.00     0.217 HD
ENDBRANCH  81  87
ENDBRANCH  75  77
ENDBRANCH  74  75
ENDBRANCH  31  74
BRANCH  19  89
HETATM   89  O   UNK     0      -2.864  24.914  -0.663  0.00  0.00    -0.358 OA
HETATM   90  H   UNK     0      -3.842  24.806  -0.903  0.00  0.00     0.217 HD
ENDBRANCH  19  89
BRANCH  26  91
HETATM   91  O   UNK     0       1.591  32.850  -4.293  0.00  0.00    -0.358 OA
HETATM   92  H   UNK     0       2.558  32.924  -4.582  0.00  0.00     0.217 HD
ENDBRANCH  26  91
BRANCH  17  93
HETATM   93  O   UNK     0      -3.840  27.475  -0.753  0.00  0.00    -0.357 OA
HETATM   94  H   UNK     0      -4.656  26.960  -1.058  0.00  0.00     0.217 HD
ENDBRANCH  17  93
BRANCH  24  95
HETATM   95  O   UNK     0      -0.287  32.777  -2.291  0.00  0.00    -0.357 OA
HETATM   96  H   UNK     0      -0.202  33.649  -2.796  0.00  0.00     0.217 HD
ENDBRANCH  24  95
TORSDOF 21
ENDMDL
