REMARK VINA RESULT:      -8.0      1.974     12.078
REMARK  21 active torsions:
REMARK  status: ('A' for Active; 'I' for Inactive)
REMARK    1  A    between atoms: C_3  and  O_78 
REMARK    2  A    between atoms: C_5  and  O_77 
REMARK    3  A    between atoms: C_6  and  O_76 
REMARK    4  A    between atoms: C_7  and  O_15 
REMARK    5  A    between atoms: C_8  and  C_17 
REMARK    6  A    between atoms: C_9  and  O_13 
REMARK    7  A    between atoms: C_16  and  O_24 
REMARK    8  A    between atoms: C_18  and  O_22 
REMARK    9  A    between atoms: C_19  and  C_72 
REMARK   10  A    between atoms: C_20  and  O_23 
REMARK   11  A    between atoms: C_28  and  O_32 
REMARK   12  A    between atoms: C_30  and  O_33 
REMARK   13  A    between atoms: C_37  and  O_42 
REMARK   14  A    between atoms: C_39  and  O_43 
REMARK   15  A    between atoms: C_46  and  O_67 
REMARK   16  A    between atoms: C_48  and  O_65 
REMARK   17  A    between atoms: C_49  and  C_52 
REMARK   18  A    between atoms: C_50  and  O_66 
REMARK   19  A    between atoms: C_52  and  O_60 
REMARK   20  A    between atoms: C_54  and  O_60 
REMARK   21  A    between atoms: C_72  and  O_73 
ROOT
HETATM    1  C   UNK     0      21.734  30.551  20.674  0.00  0.00     0.058 A 
HETATM    2  C   UNK     0      20.720  30.822  19.767  0.00  0.00     0.060 A 
HETATM    3  C   UNK     0      21.989  29.255  21.085  0.00  0.00     0.102 A 
HETATM    4  C   UNK     0      19.942  29.773  19.258  0.00  0.00     0.127 A 
HETATM    5  C   UNK     0      21.227  28.216  20.585  0.00  0.00     0.135 A 
HETATM    6  C   UNK     0      20.214  28.477  19.679  0.00  0.00     0.137 A 
HETATM    7  C   UNK     0      16.882  31.401  15.727  0.00  0.00     0.114 A 
HETATM    8  C   UNK     0      17.061  32.767  15.932  0.00  0.00     0.030 A 
HETATM    9  C   UNK     0      17.496  30.454  16.532  0.00  0.00     0.134 A 
HETATM   10  C   UNK     0      17.892  33.162  16.988  0.00  0.00     0.059 A 
HETATM   11  C   UNK     0      18.313  30.849  17.574  0.00  0.00     0.116 A 
HETATM   12  C   UNK     0      18.492  32.200  17.781  0.00  0.00     0.329 A 
HETATM   13  O   UNK     0      18.893  29.887  18.367  0.00  0.00    -0.304 OA
HETATM   14  C   UNK     0      18.206  34.547  17.356  0.00  0.00     0.295 C 
HETATM   15  C   UNK     0      17.824  42.162  14.479  0.00  0.00     0.026 A 
HETATM   16  C   UNK     0      18.395  41.398  15.493  0.00  0.00     0.006 A 
HETATM   17  C   UNK     0      16.854  41.653  13.636  0.00  0.00     0.111 A 
HETATM   18  C   UNK     0      17.955  40.070  15.638  0.00  0.00     0.054 A 
HETATM   19  C   UNK     0      16.430  40.349  13.787  0.00  0.00     0.100 A 
HETATM   20  C   UNK     0      16.982  39.568  14.784  0.00  0.00     0.058 A 
HETATM   21  O   UNK     0      18.226  43.452  14.318  0.00  0.00     0.000 OA
HETATM   22  C   UNK     0      19.269  43.540  16.355  0.00  0.00     0.026 A 
HETATM   23  C   UNK     0      19.428  42.155  16.336  0.00  0.00     0.006 A 
HETATM   24  C   UNK     0      20.140  44.367  17.042  0.00  0.00     0.111 A 
HETATM   25  C   UNK     0      20.509  41.618  17.050  0.00  0.00     0.054 A 
HETATM   26  C   UNK     0      21.202  43.823  17.736  0.00  0.00     0.100 A 
HETATM   27  C   UNK     0      21.378  42.454  17.735  0.00  0.00     0.058 A 
HETATM   28  C   UNK     0      20.815  40.199  17.126  0.00  0.00     0.294 C 
HETATM   29  O   UNK     0      18.232  44.096  15.674  0.00  0.00     0.000 OA
HETATM   30  O   UNK     0      21.324  39.645  16.178  0.00  0.00    -0.259 OA
HETATM   31  C   UNK     0      21.158  37.478  19.464  0.00  0.00     0.302 C 
HETATM   32  C   UNK     0      20.876  38.122  18.129  0.00  0.00     0.220 C 
HETATM   33  O   UNK     0      21.585  36.129  19.235  0.00  0.00    -0.348 OA
HETATM   34  C   UNK     0      19.724  37.396  17.519  0.00  0.00     0.198 C 
HETATM   35  C   UNK     0      20.700  35.275  18.479  0.00  0.00     0.181 C 
HETATM   36  C   UNK     0      20.195  35.989  17.176  0.00  0.00     0.195 C 
HETATM   37  C   UNK     0      21.457  34.001  18.076  0.00  0.00     0.212 C 
HETATM   38  O   UNK     0      19.281  38.100  16.366  0.00  0.00    -0.306 OA
HETATM   39  O   UNK     0      19.116  35.242  16.609  0.00  0.00    -0.307 OA
HETATM   40  O   UNK     0      20.556  39.492  18.263  0.00  0.00    -0.304 OA
HETATM   41  O   UNK     0      21.572  33.045  19.124  0.00  0.00    -0.328 OA
HETATM   42  C   UNK     0      18.430  39.131  16.664  0.00  0.00     0.294 C 
HETATM   43  O   UNK     0      18.032  39.250  17.799  0.00  0.00    -0.259 OA
HETATM   44  O   UNK     0      17.714  35.049  18.341  0.00  0.00    -0.259 OA
HETATM   45  C   UNK     0      20.518  32.225  19.387  0.00  0.00     0.179 C 
HETATM   46  O   UNK     0      19.391  32.649  19.266  0.00  0.00    -0.383 OA
HETATM   47  H   UNK     0      17.817  44.023  13.590  0.00  0.00     0.000 HD
HETATM   48  H   UNK     0      18.107  45.101  15.673  0.00  0.00     0.000 HD
ENDROOT
BRANCH   3  49
HETATM   49  O   UNK     0      22.984  29.003  21.977  0.00  0.00    -0.358 OA
HETATM   50  H   UNK     0      23.152  28.056  22.293  0.00  0.00     0.217 HD
ENDBRANCH   3  49
BRANCH   5  51
HETATM   51  O   UNK     0      21.471  26.939  20.986  0.00  0.00    -0.356 OA
HETATM   52  H   UNK     0      22.075  26.765  21.780  0.00  0.00     0.218 HD
ENDBRANCH   5  51
BRANCH   6  53
HETATM   53  O   UNK     0      19.468  27.448  19.195  0.00  0.00    -0.356 OA
HETATM   54  H   UNK     0      19.646  27.085  18.267  0.00  0.00     0.218 HD
ENDBRANCH   6  53
BRANCH   9  55
HETATM   55  O   UNK     0      17.282  29.131  16.300  0.00  0.00    -0.356 OA
HETATM   56  H   UNK     0      17.114  28.802  15.357  0.00  0.00     0.218 HD
ENDBRANCH   9  55
BRANCH   7  57
HETATM   57  O   UNK     0      16.071  30.986  14.716  0.00  0.00    -0.357 OA
HETATM   58  H   UNK     0      16.415  30.322  14.034  0.00  0.00     0.217 HD
ENDBRANCH   7  57
BRANCH   8  59
HETATM   59  C   UNK     0      16.292  33.673  14.985  0.00  0.00     0.023 A 
HETATM   60  C   UNK     0      16.891  33.877  13.746  0.00  0.00     0.113 A 
HETATM   61  C   UNK     0      16.312  34.683  12.783  0.00  0.00     0.133 A 
HETATM   62  C   UNK     0      15.107  35.304  13.042  0.00  0.00     0.102 A 
HETATM   63  C   UNK     0      14.497  35.121  14.268  0.00  0.00     0.049 A 
HETATM   64  C   UNK     0      15.076  34.318  15.242  0.00  0.00    -0.018 A 
BRANCH  60  65
HETATM   65  O   UNK     0      18.082  33.274  13.480  0.00  0.00    -0.357 OA
HETATM   66  H   UNK     0      18.113  32.284  13.275  0.00  0.00     0.217 HD
ENDBRANCH  60  65
BRANCH  61  67
HETATM   67  O   UNK     0      16.929  34.866  11.586  0.00  0.00    -0.356 OA
HETATM   68  H   UNK     0      16.390  34.851  10.729  0.00  0.00     0.218 HD
ENDBRANCH  61  67
BRANCH  62  69
HETATM   69  O   UNK     0      14.529  36.095  12.098  0.00  0.00    -0.358 OA
HETATM   70  H   UNK     0      14.644  35.878  11.117  0.00  0.00     0.217 HD
ENDBRANCH  62  69
BRANCH  64  71
HETATM   71  C   UNK     0      14.329  34.211  16.542  0.00  0.00     0.203 C 
BRANCH  71  72
HETATM   72  O   UNK     0      14.783  35.242  17.409  0.00  0.00    -0.396 OA
HETATM   73  H   UNK     0      14.436  36.186  17.299  0.00  0.00     0.209 HD
ENDBRANCH  71  72
ENDBRANCH  64  71
ENDBRANCH   8  59
BRANCH  31  74
HETATM   74  O   UNK     0      22.176  38.197  20.143  0.00  0.00    -0.283 OA
BRANCH  74  75
HETATM   75  C   UNK     0      23.442  37.716  20.078  0.00  0.00     0.295 C 
HETATM   76  O   UNK     0      24.088  37.874  19.068  0.00  0.00    -0.259 OA
BRANCH  75  77
HETATM   77  C   UNK     0      24.038  37.012  21.222  0.00  0.00     0.045 A 
HETATM   78  C   UNK     0      25.341  37.283  21.611  0.00  0.00     0.057 A 
HETATM   79  C   UNK     0      25.895  36.607  22.687  0.00  0.00     0.102 A 
HETATM   80  C   UNK     0      25.149  35.660  23.371  0.00  0.00     0.132 A 
HETATM   81  C   UNK     0      23.846  35.392  22.983  0.00  0.00     0.102 A 
HETATM   82  C   UNK     0      23.291  36.069  21.910  0.00  0.00     0.057 A 
BRANCH  79  83
HETATM   83  O   UNK     0      27.173  36.871  23.073  0.00  0.00    -0.358 OA
HETATM   84  H   UNK     0      27.881  36.151  23.005  0.00  0.00     0.217 HD
ENDBRANCH  79  83
BRANCH  80  85
HETATM   85  O   UNK     0      25.695  34.993  24.423  0.00  0.00    -0.356 OA
HETATM   86  H   UNK     0      26.324  34.216  24.258  0.00  0.00     0.218 HD
ENDBRANCH  80  85
BRANCH  81  87
HETATM   87  O   UNK     0      23.115  34.462  23.652  0.00  0.00    -0.358 OA
HETATM   88  H   UNK     0      22.882  34.606  24.626  0.00  0.00     0.217 HD
ENDBRANCH  81  87
ENDBRANCH  75  77
ENDBRANCH  74  75
ENDBRANCH  31  74
BRANCH  19  89
HETATM   89  O   UNK     0      15.475  39.843  12.962  0.00  0.00    -0.358 OA
HETATM   90  H   UNK     0      15.736  39.448  12.067  0.00  0.00     0.217 HD
ENDBRANCH  19  89
BRANCH  26  91
HETATM   91  O   UNK     0      22.068  44.628  18.408  0.00  0.00    -0.358 OA
HETATM   92  H   UNK     0      22.976  44.277  18.681  0.00  0.00     0.217 HD
ENDBRANCH  26  91
BRANCH  17  93
HETATM   93  O   UNK     0      16.314  42.437  12.663  0.00  0.00    -0.357 OA
HETATM   94  H   UNK     0      15.481  42.981  12.854  0.00  0.00     0.217 HD
ENDBRANCH  17  93
BRANCH  24  95
HETATM   95  O   UNK     0      19.956  45.716  17.030  0.00  0.00    -0.357 OA
HETATM   96  H   UNK     0      20.388  46.279  16.309  0.00  0.00     0.217 HD
ENDBRANCH  24  95
TORSDOF 21
