REMARK VINA RESULT:      -8.2     10.141     16.872
REMARK  21 active torsions:
REMARK  status: ('A' for Active; 'I' for Inactive)
REMARK    1  A    between atoms: C_3  and  O_78 
REMARK    2  A    between atoms: C_5  and  O_77 
REMARK    3  A    between atoms: C_6  and  O_76 
REMARK    4  A    between atoms: C_7  and  O_15 
REMARK    5  A    between atoms: C_8  and  C_17 
REMARK    6  A    between atoms: C_9  and  O_13 
REMARK    7  A    between atoms: C_16  and  O_24 
REMARK    8  A    between atoms: C_18  and  O_22 
REMARK    9  A    between atoms: C_19  and  C_72 
REMARK   10  A    between atoms: C_20  and  O_23 
REMARK   11  A    between atoms: C_28  and  O_32 
REMARK   12  A    between atoms: C_30  and  O_33 
REMARK   13  A    between atoms: C_37  and  O_42 
REMARK   14  A    between atoms: C_39  and  O_43 
REMARK   15  A    between atoms: C_46  and  O_67 
REMARK   16  A    between atoms: C_48  and  O_65 
REMARK   17  A    between atoms: C_49  and  C_52 
REMARK   18  A    between atoms: C_50  and  O_66 
REMARK   19  A    between atoms: C_52  and  O_60 
REMARK   20  A    between atoms: C_54  and  O_60 
REMARK   21  A    between atoms: C_72  and  O_73 
ROOT
HETATM    1  C   UNK     0       4.904  30.069  11.502  0.00  0.00     0.058 A 
HETATM    2  C   UNK     0       5.776  30.011  10.425  0.00  0.00     0.060 A 
HETATM    3  C   UNK     0       3.951  29.086  11.695  0.00  0.00     0.102 A 
HETATM    4  C   UNK     0       5.695  28.944   9.520  0.00  0.00     0.127 A 
HETATM    5  C   UNK     0       3.866  28.030  10.808  0.00  0.00     0.135 A 
HETATM    6  C   UNK     0       4.734  27.963   9.732  0.00  0.00     0.137 A 
HETATM    7  C   UNK     0       9.407  29.117   6.253  0.00  0.00     0.114 A 
HETATM    8  C   UNK     0       9.872  30.394   6.558  0.00  0.00     0.030 A 
HETATM    9  C   UNK     0       8.288  28.580   6.870  0.00  0.00     0.134 A 
HETATM   10  C   UNK     0       9.168  31.129   7.520  0.00  0.00     0.059 A 
HETATM   11  C   UNK     0       7.596  29.311   7.817  0.00  0.00     0.116 A 
HETATM   12  C   UNK     0       8.051  30.576   8.121  0.00  0.00     0.329 A 
HETATM   13  O   UNK     0       6.478  28.758   8.399  0.00  0.00    -0.304 OA
HETATM   14  C   UNK     0       9.505  32.483   7.977  0.00  0.00     0.295 C 
HETATM   15  C   UNK     0      15.574  37.921   7.899  0.00  0.00     0.026 A 
HETATM   16  C   UNK     0      14.353  37.646   8.509  0.00  0.00     0.006 A 
HETATM   17  C   UNK     0      16.029  37.199   6.811  0.00  0.00     0.111 A 
HETATM   18  C   UNK     0      13.582  36.592   7.984  0.00  0.00     0.054 A 
HETATM   19  C   UNK     0      15.265  36.168   6.305  0.00  0.00     0.100 A 
HETATM   20  C   UNK     0      14.050  35.872   6.893  0.00  0.00     0.058 A 
HETATM   21  O   UNK     0      16.339  38.938   8.382  0.00  0.00     0.000 OA
HETATM   22  C   UNK     0      14.637  39.827   9.630  0.00  0.00     0.026 A 
HETATM   23  C   UNK     0      14.017  38.579   9.677  0.00  0.00     0.006 A 
HETATM   24  C   UNK     0      14.462  40.769  10.629  0.00  0.00     0.111 A 
HETATM   25  C   UNK     0      13.195  38.307  10.780  0.00  0.00     0.054 A 
HETATM   26  C   UNK     0      13.654  40.483  11.709  0.00  0.00     0.100 A 
HETATM   27  C   UNK     0      13.026  39.256  11.778  0.00  0.00     0.058 A 
HETATM   28  C   UNK     0      12.483  37.055  10.981  0.00  0.00     0.294 C 
HETATM   29  O   UNK     0      15.442  40.125   8.575  0.00  0.00     0.000 OA
HETATM   30  O   UNK     0      13.089  36.074  11.347  0.00  0.00    -0.259 OA
HETATM   31  C   UNK     0       9.169  35.688  11.347  0.00  0.00     0.302 C 
HETATM   32  C   UNK     0      10.633  35.677  10.982  0.00  0.00     0.220 C 
HETATM   33  O   UNK     0       8.765  34.344  11.642  0.00  0.00    -0.348 OA
HETATM   34  C   UNK     0      10.770  34.892   9.721  0.00  0.00     0.198 C 
HETATM   35  C   UNK     0       8.987  33.348  10.621  0.00  0.00     0.181 C 
HETATM   36  C   UNK     0      10.443  33.440  10.043  0.00  0.00     0.195 C 
HETATM   37  C   UNK     0       8.790  31.953  11.232  0.00  0.00     0.212 C 
HETATM   38  O   UNK     0      12.093  35.035   9.220  0.00  0.00    -0.306 OA
HETATM   39  O   UNK     0      10.538  32.647   8.858  0.00  0.00    -0.307 OA
HETATM   40  O   UNK     0      11.135  36.983  10.785  0.00  0.00    -0.304 OA
HETATM   41  O   UNK     0       7.425  31.577  11.378  0.00  0.00    -0.328 OA
HETATM   42  C   UNK     0      12.264  36.179   8.485  0.00  0.00     0.294 C 
HETATM   43  O   UNK     0      11.295  36.850   8.216  0.00  0.00    -0.259 OA
HETATM   44  O   UNK     0       8.842  33.433   7.629  0.00  0.00    -0.259 OA
HETATM   45  C   UNK     0       6.755  31.097  10.295  0.00  0.00     0.179 C 
HETATM   46  O   UNK     0       6.998  31.546   9.198  0.00  0.00    -0.383 OA
HETATM   47  H   UNK     0      17.226  39.155   7.946  0.00  0.00     0.000 HD
HETATM   48  H   UNK     0      15.904  41.025   8.530  0.00  0.00     0.000 HD
ENDROOT
BRANCH   3  49
HETATM   49  O   UNK     0       3.099  29.157  12.753  0.00  0.00    -0.358 OA
HETATM   50  H   UNK     0       2.470  28.388  12.949  0.00  0.00     0.217 HD
ENDBRANCH   3  49
BRANCH   5  51
HETATM   51  O   UNK     0       2.930  27.060  10.992  0.00  0.00    -0.356 OA
HETATM   52  H   UNK     0       1.951  27.268  10.847  0.00  0.00     0.218 HD
ENDBRANCH   5  51
BRANCH   6  53
HETATM   53  O   UNK     0       4.641  26.921   8.862  0.00  0.00    -0.356 OA
HETATM   54  H   UNK     0       4.618  27.093   7.865  0.00  0.00     0.218 HD
ENDBRANCH   6  53
BRANCH   9  55
HETATM   55  O   UNK     0       7.864  27.332   6.531  0.00  0.00    -0.356 OA
HETATM   56  H   UNK     0       8.015  26.557   7.164  0.00  0.00     0.218 HD
ENDBRANCH   9  55
BRANCH   7  57
HETATM   57  O   UNK     0      10.062  28.383   5.314  0.00  0.00    -0.357 OA
HETATM   58  H   UNK     0      10.943  27.941   5.543  0.00  0.00     0.217 HD
ENDBRANCH   7  57
BRANCH   8  59
HETATM   59  C   UNK     0      11.089  30.848   5.769  0.00  0.00     0.023 A 
HETATM   60  C   UNK     0      10.813  31.391   4.518  0.00  0.00     0.113 A 
HETATM   61  C   UNK     0      11.820  31.841   3.684  0.00  0.00     0.133 A 
HETATM   62  C   UNK     0      13.136  31.760   4.091  0.00  0.00     0.102 A 
HETATM   63  C   UNK     0      13.434  31.218   5.327  0.00  0.00     0.049 A 
HETATM   64  C   UNK     0      12.429  30.759   6.167  0.00  0.00    -0.018 A 
BRANCH  60  65
HETATM   65  O   UNK     0       9.519  31.472   4.103  0.00  0.00    -0.357 OA
HETATM   66  H   UNK     0       9.023  32.351   4.162  0.00  0.00     0.217 HD
ENDBRANCH  60  65
BRANCH  61  67
HETATM   67  O   UNK     0      11.514  32.359   2.465  0.00  0.00    -0.356 OA
HETATM   68  H   UNK     0      11.407  33.359   2.351  0.00  0.00     0.218 HD
ENDBRANCH  61  67
BRANCH  62  69
HETATM   69  O   UNK     0      14.131  32.205   3.277  0.00  0.00    -0.358 OA
HETATM   70  H   UNK     0      13.915  32.816   2.501  0.00  0.00     0.217 HD
ENDBRANCH  62  69
BRANCH  64  71
HETATM   71  C   UNK     0      12.877  30.173   7.476  0.00  0.00     0.203 C 
BRANCH  71  72
HETATM   72  O   UNK     0      13.094  31.235   8.395  0.00  0.00    -0.396 OA
HETATM   73  H   UNK     0      13.280  31.032   9.369  0.00  0.00     0.209 HD
ENDBRANCH  71  72
ENDBRANCH  64  71
ENDBRANCH   8  59
BRANCH  31  74
HETATM   74  O   UNK     0       8.959  36.514  12.482  0.00  0.00    -0.283 OA
BRANCH  74  75
HETATM   75  C   UNK     0       8.139  36.052  13.459  0.00  0.00     0.295 C 
HETATM   76  O   UNK     0       6.944  36.199  13.353  0.00  0.00    -0.259 OA
BRANCH  75  77
HETATM   77  C   UNK     0       8.688  35.371  14.639  0.00  0.00     0.045 A 
HETATM   78  C   UNK     0       8.003  34.318  15.224  0.00  0.00     0.057 A 
HETATM   79  C   UNK     0       8.527  33.687  16.342  0.00  0.00     0.102 A 
HETATM   80  C   UNK     0       9.734  34.112  16.876  0.00  0.00     0.132 A 
HETATM   81  C   UNK     0      10.419  35.164  16.291  0.00  0.00     0.102 A 
HETATM   82  C   UNK     0       9.897  35.792  15.172  0.00  0.00     0.057 A 
BRANCH  79  83
HETATM   83  O   UNK     0       7.858  32.651  16.917  0.00  0.00    -0.358 OA
HETATM   84  H   UNK     0       7.043  32.260  16.463  0.00  0.00     0.217 HD
ENDBRANCH  79  83
BRANCH  80  85
HETATM   85  O   UNK     0      10.244  33.498  17.977  0.00  0.00    -0.356 OA
HETATM   86  H   UNK     0       9.689  33.429  18.822  0.00  0.00     0.218 HD
ENDBRANCH  80  85
BRANCH  81  87
HETATM   87  O   UNK     0      11.600  35.582  16.816  0.00  0.00    -0.358 OA
HETATM   88  H   UNK     0      12.338  35.911  16.206  0.00  0.00     0.217 HD
ENDBRANCH  81  87
ENDBRANCH  75  77
ENDBRANCH  74  75
ENDBRANCH  31  74
BRANCH  19  89
HETATM   89  O   UNK     0      15.706  35.455   5.234  0.00  0.00    -0.358 OA
HETATM   90  H   UNK     0      15.877  35.921   4.351  0.00  0.00     0.217 HD
ENDBRANCH  19  89
BRANCH  26  91
HETATM   91  O   UNK     0      13.481  41.400  12.699  0.00  0.00    -0.358 OA
HETATM   92  H   UNK     0      12.813  41.227  13.438  0.00  0.00     0.217 HD
ENDBRANCH  26  91
BRANCH  17  93
HETATM   93  O   UNK     0      17.224  37.507   6.238  0.00  0.00    -0.357 OA
HETATM   94  H   UNK     0      18.081  37.409   6.769  0.00  0.00     0.217 HD
ENDBRANCH  17  93
BRANCH  24  95
HETATM   95  O   UNK     0      15.091  41.974  10.550  0.00  0.00    -0.357 OA
HETATM   96  H   UNK     0      16.070  42.017  10.299  0.00  0.00     0.217 HD
ENDBRANCH  24  95
TORSDOF 21
