REMARK VINA RESULT:      -8.2      2.185     12.097
REMARK  21 active torsions:
REMARK  status: ('A' for Active; 'I' for Inactive)
REMARK    1  A    between atoms: C_3  and  O_78 
REMARK    2  A    between atoms: C_5  and  O_77 
REMARK    3  A    between atoms: C_6  and  O_76 
REMARK    4  A    between atoms: C_7  and  O_15 
REMARK    5  A    between atoms: C_8  and  C_17 
REMARK    6  A    between atoms: C_9  and  O_13 
REMARK    7  A    between atoms: C_16  and  O_24 
REMARK    8  A    between atoms: C_18  and  O_22 
REMARK    9  A    between atoms: C_19  and  C_72 
REMARK   10  A    between atoms: C_20  and  O_23 
REMARK   11  A    between atoms: C_28  and  O_32 
REMARK   12  A    between atoms: C_30  and  O_33 
REMARK   13  A    between atoms: C_37  and  O_42 
REMARK   14  A    between atoms: C_39  and  O_43 
REMARK   15  A    between atoms: C_46  and  O_67 
REMARK   16  A    between atoms: C_48  and  O_65 
REMARK   17  A    between atoms: C_49  and  C_52 
REMARK   18  A    between atoms: C_50  and  O_66 
REMARK   19  A    between atoms: C_52  and  O_60 
REMARK   20  A    between atoms: C_54  and  O_60 
REMARK   21  A    between atoms: C_72  and  O_73 
ROOT
HETATM    1  C   UNK     0      19.916  30.861  21.839  0.00  0.00     0.058 A 
HETATM    2  C   UNK     0      19.263  31.159  20.652  0.00  0.00     0.060 A 
HETATM    3  C   UNK     0      20.036  29.553  22.272  0.00  0.00     0.102 A 
HETATM    4  C   UNK     0      18.717  30.125  19.879  0.00  0.00     0.127 A 
HETATM    5  C   UNK     0      19.501  28.529  21.514  0.00  0.00     0.135 A 
HETATM    6  C   UNK     0      18.849  28.817  20.328  0.00  0.00     0.137 A 
HETATM    7  C   UNK     0      17.002  31.861  15.575  0.00  0.00     0.114 A 
HETATM    8  C   UNK     0      17.083  33.220  15.869  0.00  0.00     0.030 A 
HETATM    9  C   UNK     0      17.322  30.890  16.510  0.00  0.00     0.134 A 
HETATM   10  C   UNK     0      17.504  33.582  17.155  0.00  0.00     0.059 A 
HETATM   11  C   UNK     0      17.735  31.253  17.778  0.00  0.00     0.116 A 
HETATM   12  C   UNK     0      17.815  32.596  18.075  0.00  0.00     0.329 A 
HETATM   13  O   UNK     0      18.028  30.266  18.691  0.00  0.00    -0.304 OA
HETATM   14  C   UNK     0      17.656  34.955  17.650  0.00  0.00     0.295 C 
HETATM   15  C   UNK     0      18.159  42.661  15.044  0.00  0.00     0.026 A 
HETATM   16  C   UNK     0      18.366  41.865  16.168  0.00  0.00     0.006 A 
HETATM   17  C   UNK     0      17.537  42.177  13.908  0.00  0.00     0.111 A 
HETATM   18  C   UNK     0      17.922  40.531  16.116  0.00  0.00     0.054 A 
HETATM   19  C   UNK     0      17.106  40.868  13.868  0.00  0.00     0.100 A 
HETATM   20  C   UNK     0      17.300  40.056  14.969  0.00  0.00     0.058 A 
HETATM   21  O   UNK     0      18.574  43.957  15.068  0.00  0.00     0.000 OA
HETATM   22  C   UNK     0      18.869  43.980  17.338  0.00  0.00     0.026 A 
HETATM   23  C   UNK     0      19.044  42.596  17.332  0.00  0.00     0.006 A 
HETATM   24  C   UNK     0      19.447  44.786  18.304  0.00  0.00     0.111 A 
HETATM   25  C   UNK     0      19.829  42.039  18.351  0.00  0.00     0.054 A 
HETATM   26  C   UNK     0      20.220  44.222  19.298  0.00  0.00     0.100 A 
HETATM   27  C   UNK     0      20.406  42.854  19.314  0.00  0.00     0.058 A 
HETATM   28  C   UNK     0      20.112  40.619  18.483  0.00  0.00     0.294 C 
HETATM   29  O   UNK     0      18.114  44.555  16.365  0.00  0.00     0.000 OA
HETATM   30  O   UNK     0      20.918  40.098  17.746  0.00  0.00    -0.259 OA
HETATM   31  C   UNK     0      19.685  37.823  20.716  0.00  0.00     0.302 C 
HETATM   32  C   UNK     0      19.861  38.510  19.385  0.00  0.00     0.220 C 
HETATM   33  O   UNK     0      20.183  36.483  20.604  0.00  0.00    -0.348 OA
HETATM   34  C   UNK     0      18.991  37.802  18.401  0.00  0.00     0.198 C 
HETATM   35  C   UNK     0      19.616  35.652  19.569  0.00  0.00     0.181 C 
HETATM   36  C   UNK     0      19.569  36.408  18.194  0.00  0.00     0.195 C 
HETATM   37  C   UNK     0      20.483  34.394  19.406  0.00  0.00     0.212 C 
HETATM   38  O   UNK     0      18.953  38.542  17.188  0.00  0.00    -0.306 OA
HETATM   39  O   UNK     0      18.755  35.677  17.274  0.00  0.00    -0.307 OA
HETATM   40  O   UNK     0      19.494  39.874  19.445  0.00  0.00    -0.304 OA
HETATM   41  O   UNK     0      20.251  33.404  20.402  0.00  0.00    -0.328 OA
HETATM   42  C   UNK     0      18.036  39.560  17.213  0.00  0.00     0.294 C 
HETATM   43  O   UNK     0      17.278  39.640  18.151  0.00  0.00    -0.259 OA
HETATM   44  O   UNK     0      16.855  35.423  18.426  0.00  0.00    -0.259 OA
HETATM   45  C   UNK     0      19.181  32.574  20.269  0.00  0.00     0.179 C 
HETATM   46  O   UNK     0      18.155  32.998  19.788  0.00  0.00    -0.383 OA
HETATM   47  H   UNK     0      18.426  44.550  14.262  0.00  0.00     0.000 HD
HETATM   48  H   UNK     0      17.983  45.559  16.352  0.00  0.00     0.000 HD
ENDROOT
BRANCH   3  49
HETATM   49  O   UNK     0      20.676  29.274  23.439  0.00  0.00    -0.358 OA
HETATM   50  H   UNK     0      20.445  28.434  23.955  0.00  0.00     0.217 HD
ENDBRANCH   3  49
BRANCH   5  51
HETATM   51  O   UNK     0      19.614  27.240  21.935  0.00  0.00    -0.356 OA
HETATM   52  H   UNK     0      20.070  26.554  21.346  0.00  0.00     0.218 HD
ENDBRANCH   5  51
BRANCH   6  53
HETATM   53  O   UNK     0      18.324  27.802  19.590  0.00  0.00    -0.356 OA
HETATM   54  H   UNK     0      17.568  27.242  19.964  0.00  0.00     0.218 HD
ENDBRANCH   6  53
BRANCH   9  55
HETATM   55  O   UNK     0      17.217  29.574  16.180  0.00  0.00    -0.356 OA
HETATM   56  H   UNK     0      17.381  29.277  15.226  0.00  0.00     0.218 HD
ENDBRANCH   9  55
BRANCH   7  57
HETATM   57  O   UNK     0      16.585  31.478  14.338  0.00  0.00    -0.357 OA
HETATM   58  H   UNK     0      17.147  30.838  13.791  0.00  0.00     0.217 HD
ENDBRANCH   7  57
BRANCH   8  59
HETATM   59  C   UNK     0      16.664  34.155  14.746  0.00  0.00     0.023 A 
HETATM   60  C   UNK     0      17.713  34.731  14.036  0.00  0.00     0.113 A 
HETATM   61  C   UNK     0      17.488  35.608  12.991  0.00  0.00     0.133 A 
HETATM   62  C   UNK     0      16.194  35.927  12.630  0.00  0.00     0.102 A 
HETATM   63  C   UNK     0      15.137  35.372  13.325  0.00  0.00     0.049 A 
HETATM   64  C   UNK     0      15.356  34.495  14.379  0.00  0.00    -0.018 A 
BRANCH  60  65
HETATM   65  O   UNK     0      18.993  34.429  14.386  0.00  0.00    -0.357 OA
HETATM   66  H   UNK     0      19.188  34.026  15.293  0.00  0.00     0.217 HD
ENDBRANCH  60  65
BRANCH  61  67
HETATM   67  O   UNK     0      18.537  36.158  12.325  0.00  0.00    -0.356 OA
HETATM   68  H   UNK     0      18.700  35.923  11.354  0.00  0.00     0.218 HD
ENDBRANCH  61  67
BRANCH  62  69
HETATM   69  O   UNK     0      15.964  36.785  11.600  0.00  0.00    -0.358 OA
HETATM   70  H   UNK     0      15.130  37.356  11.594  0.00  0.00     0.217 HD
ENDBRANCH  62  69
BRANCH  64  71
HETATM   71  C   UNK     0      14.129  33.971  15.072  0.00  0.00     0.203 C 
BRANCH  71  72
HETATM   72  O   UNK     0      13.192  35.033  15.191  0.00  0.00    -0.396 OA
HETATM   73  H   UNK     0      12.199  34.836  15.169  0.00  0.00     0.209 HD
ENDBRANCH  71  72
ENDBRANCH  64  71
ENDBRANCH   8  59
BRANCH  31  74
HETATM   74  O   UNK     0      20.405  38.522  21.721  0.00  0.00    -0.283 OA
BRANCH  74  75
HETATM   75  C   UNK     0      21.723  38.240  21.868  0.00  0.00     0.295 C 
HETATM   76  O   UNK     0      22.060  37.316  22.571  0.00  0.00    -0.259 OA
BRANCH  75  77
HETATM   77  C   UNK     0      22.744  39.040  21.177  0.00  0.00     0.045 A 
HETATM   78  C   UNK     0      22.656  40.423  21.157  0.00  0.00     0.057 A 
HETATM   79  C   UNK     0      23.622  41.167  20.496  0.00  0.00     0.102 A 
HETATM   80  C   UNK     0      24.671  40.529  19.854  0.00  0.00     0.132 A 
HETATM   81  C   UNK     0      24.758  39.146  19.875  0.00  0.00     0.102 A 
HETATM   82  C   UNK     0      23.796  38.402  20.538  0.00  0.00     0.057 A 
BRANCH  79  83
HETATM   83  O   UNK     0      23.540  42.526  20.476  0.00  0.00    -0.358 OA
HETATM   84  H   UNK     0      24.017  43.050  19.754  0.00  0.00     0.217 HD
ENDBRANCH  79  83
BRANCH  80  85
HETATM   85  O   UNK     0      25.614  41.259  19.199  0.00  0.00    -0.356 OA
HETATM   86  H   UNK     0      26.550  40.889  19.083  0.00  0.00     0.218 HD
ENDBRANCH  80  85
BRANCH  81  87
HETATM   87  O   UNK     0      25.785  38.520  19.243  0.00  0.00    -0.358 OA
HETATM   88  H   UNK     0      26.315  39.008  18.532  0.00  0.00     0.217 HD
ENDBRANCH  81  87
ENDBRANCH  75  77
ENDBRANCH  74  75
ENDBRANCH  31  74
BRANCH  19  89
HETATM   89  O   UNK     0      16.491  40.387  12.755  0.00  0.00    -0.358 OA
HETATM   90  H   UNK     0      16.870  39.579  12.276  0.00  0.00     0.217 HD
ENDBRANCH  19  89
BRANCH  26  91
HETATM   91  O   UNK     0      20.798  45.006  20.247  0.00  0.00    -0.358 OA
HETATM   92  H   UNK     0      20.437  45.006  21.191  0.00  0.00     0.217 HD
ENDBRANCH  26  91
BRANCH  17  93
HETATM   93  O   UNK     0      17.345  42.991  12.835  0.00  0.00    -0.357 OA
HETATM   94  H   UNK     0      16.489  43.526  12.751  0.00  0.00     0.217 HD
ENDBRANCH  17  93
BRANCH  24  95
HETATM   95  O   UNK     0      19.258  46.133  18.272  0.00  0.00    -0.357 OA
HETATM   96  H   UNK     0      19.900  46.721  17.755  0.00  0.00     0.217 HD
ENDBRANCH  24  95
TORSDOF 21
