REMARK VINA RESULT:      -8.5      2.059     12.121
REMARK  21 active torsions:
REMARK  status: ('A' for Active; 'I' for Inactive)
REMARK    1  A    between atoms: C_3  and  O_78 
REMARK    2  A    between atoms: C_5  and  O_77 
REMARK    3  A    between atoms: C_6  and  O_76 
REMARK    4  A    between atoms: C_7  and  O_15 
REMARK    5  A    between atoms: C_8  and  C_17 
REMARK    6  A    between atoms: C_9  and  O_13 
REMARK    7  A    between atoms: C_16  and  O_24 
REMARK    8  A    between atoms: C_18  and  O_22 
REMARK    9  A    between atoms: C_19  and  C_72 
REMARK   10  A    between atoms: C_20  and  O_23 
REMARK   11  A    between atoms: C_28  and  O_32 
REMARK   12  A    between atoms: C_30  and  O_33 
REMARK   13  A    between atoms: C_37  and  O_42 
REMARK   14  A    between atoms: C_39  and  O_43 
REMARK   15  A    between atoms: C_46  and  O_67 
REMARK   16  A    between atoms: C_48  and  O_65 
REMARK   17  A    between atoms: C_49  and  C_52 
REMARK   18  A    between atoms: C_50  and  O_66 
REMARK   19  A    between atoms: C_52  and  O_60 
REMARK   20  A    between atoms: C_54  and  O_60 
REMARK   21  A    between atoms: C_72  and  O_73 
ROOT
HETATM    1  C   UNK     0      19.689  30.616  21.684  0.00  0.00     0.058 A 
HETATM    2  C   UNK     0      19.051  30.956  20.500  0.00  0.00     0.060 A 
HETATM    3  C   UNK     0      19.788  29.295  22.082  0.00  0.00     0.102 A 
HETATM    4  C   UNK     0      18.498  29.951  19.694  0.00  0.00     0.127 A 
HETATM    5  C   UNK     0      19.247  28.300  21.292  0.00  0.00     0.135 A 
HETATM    6  C   UNK     0      18.609  28.629  20.108  0.00  0.00     0.137 A 
HETATM    7  C   UNK     0      16.846  31.827  15.424  0.00  0.00     0.114 A 
HETATM    8  C   UNK     0      16.941  33.176  15.757  0.00  0.00     0.030 A 
HETATM    9  C   UNK     0      17.145  30.826  16.336  0.00  0.00     0.134 A 
HETATM   10  C   UNK     0      17.355  33.497  17.057  0.00  0.00     0.059 A 
HETATM   11  C   UNK     0      17.551  31.148  17.617  0.00  0.00     0.116 A 
HETATM   12  C   UNK     0      17.645  32.482  17.951  0.00  0.00     0.329 A 
HETATM   13  O   UNK     0      17.822  30.133  18.505  0.00  0.00    -0.304 OA
HETATM   14  C   UNK     0      17.520  34.854  17.590  0.00  0.00     0.295 C 
HETATM   15  C   UNK     0      18.147  42.620  15.203  0.00  0.00     0.026 A 
HETATM   16  C   UNK     0      18.333  41.792  16.307  0.00  0.00     0.006 A 
HETATM   17  C   UNK     0      17.529  42.177  14.049  0.00  0.00     0.111 A 
HETATM   18  C   UNK     0      17.872  40.466  16.213  0.00  0.00     0.054 A 
HETATM   19  C   UNK     0      17.081  40.875  13.969  0.00  0.00     0.100 A 
HETATM   20  C   UNK     0      17.255  40.030  15.048  0.00  0.00     0.058 A 
HETATM   21  O   UNK     0      18.578  43.910  15.266  0.00  0.00     0.000 OA
HETATM   22  C   UNK     0      18.852  43.867  17.539  0.00  0.00     0.026 A 
HETATM   23  C   UNK     0      19.010  42.482  17.496  0.00  0.00     0.006 A 
HETATM   24  C   UNK     0      19.431  44.638  18.532  0.00  0.00     0.111 A 
HETATM   25  C   UNK     0      19.778  41.886  18.507  0.00  0.00     0.054 A 
HETATM   26  C   UNK     0      20.189  44.037  19.516  0.00  0.00     0.100 A 
HETATM   27  C   UNK     0      20.356  42.667  19.497  0.00  0.00     0.058 A 
HETATM   28  C   UNK     0      20.041  40.460  18.602  0.00  0.00     0.294 C 
HETATM   29  O   UNK     0      18.114  44.478  16.575  0.00  0.00     0.000 OA
HETATM   30  O   UNK     0      20.847  39.948  17.858  0.00  0.00    -0.259 OA
HETATM   31  C   UNK     0      19.558  37.609  20.753  0.00  0.00     0.302 C 
HETATM   32  C   UNK     0      19.755  38.330  19.442  0.00  0.00     0.220 C 
HETATM   33  O   UNK     0      20.039  36.266  20.608  0.00  0.00    -0.348 OA
HETATM   34  C   UNK     0      18.885  37.660  18.432  0.00  0.00     0.198 C 
HETATM   35  C   UNK     0      19.471  35.472  19.545  0.00  0.00     0.181 C 
HETATM   36  C   UNK     0      19.447  36.266  18.191  0.00  0.00     0.195 C 
HETATM   37  C   UNK     0      20.323  34.208  19.355  0.00  0.00     0.212 C 
HETATM   38  O   UNK     0      18.867  38.434  17.239  0.00  0.00    -0.306 OA
HETATM   39  O   UNK     0      18.632  35.571  17.244  0.00  0.00    -0.307 OA
HETATM   40  O   UNK     0      19.405  39.696  19.537  0.00  0.00    -0.304 OA
HETATM   41  O   UNK     0      20.069  33.194  20.321  0.00  0.00    -0.328 OA
HETATM   42  C   UNK     0      17.964  39.463  17.284  0.00  0.00     0.294 C 
HETATM   43  O   UNK     0      17.198  39.527  18.217  0.00  0.00    -0.259 OA
HETATM   44  O   UNK     0      16.718  35.310  18.372  0.00  0.00    -0.259 OA
HETATM   45  C   UNK     0      18.991  32.381  20.156  0.00  0.00     0.179 C 
HETATM   46  O   UNK     0      17.974  32.832  19.678  0.00  0.00    -0.383 OA
HETATM   47  H   UNK     0      18.445  44.527  14.476  0.00  0.00     0.000 HD
HETATM   48  H   UNK     0      17.996  45.484  16.590  0.00  0.00     0.000 HD
ENDROOT
BRANCH   3  49
HETATM   49  O   UNK     0      20.413  28.976  23.247  0.00  0.00    -0.358 OA
HETATM   50  H   UNK     0      19.875  28.867  24.097  0.00  0.00     0.217 HD
ENDBRANCH   3  49
BRANCH   5  51
HETATM   51  O   UNK     0      19.339  26.998  21.677  0.00  0.00    -0.356 OA
HETATM   52  H   UNK     0      20.201  26.487  21.531  0.00  0.00     0.218 HD
ENDBRANCH   5  51
BRANCH   6  53
HETATM   53  O   UNK     0      18.078  27.642  19.337  0.00  0.00    -0.356 OA
HETATM   54  H   UNK     0      17.436  26.973  19.743  0.00  0.00     0.218 HD
ENDBRANCH   6  53
BRANCH   9  55
HETATM   55  O   UNK     0      17.026  29.521  15.968  0.00  0.00    -0.356 OA
HETATM   56  H   UNK     0      16.556  29.279  15.104  0.00  0.00     0.218 HD
ENDBRANCH   9  55
BRANCH   7  57
HETATM   57  O   UNK     0      16.435  31.483  14.174  0.00  0.00    -0.357 OA
HETATM   58  H   UNK     0      15.518  31.762  13.849  0.00  0.00     0.217 HD
ENDBRANCH   7  57
BRANCH   8  59
HETATM   59  C   UNK     0      16.546  34.147  14.657  0.00  0.00     0.023 A 
HETATM   60  C   UNK     0      15.176  34.334  14.499  0.00  0.00     0.113 A 
HETATM   61  C   UNK     0      14.665  35.182  13.534  0.00  0.00     0.133 A 
HETATM   62  C   UNK     0      15.525  35.870  12.701  0.00  0.00     0.102 A 
HETATM   63  C   UNK     0      16.889  35.694  12.835  0.00  0.00     0.049 A 
HETATM   64  C   UNK     0      17.408  34.840  13.798  0.00  0.00    -0.018 A 
BRANCH  60  65
HETATM   65  O   UNK     0      14.318  33.658  15.311  0.00  0.00    -0.357 OA
HETATM   66  H   UNK     0      14.643  33.286  16.193  0.00  0.00     0.217 HD
ENDBRANCH  60  65
BRANCH  61  67
HETATM   67  O   UNK     0      13.321  35.335  13.403  0.00  0.00    -0.356 OA
HETATM   68  H   UNK     0      12.912  35.458  12.485  0.00  0.00     0.218 HD
ENDBRANCH  61  67
BRANCH  62  69
HETATM   69  O   UNK     0      15.030  36.710  11.752  0.00  0.00    -0.358 OA
HETATM   70  H   UNK     0      15.247  36.555  10.776  0.00  0.00     0.217 HD
ENDBRANCH  62  69
BRANCH  64  71
HETATM   71  C   UNK     0      18.905  34.715  13.835  0.00  0.00     0.203 C 
BRANCH  71  72
HETATM   72  O   UNK     0      19.433  35.835  14.533  0.00  0.00    -0.396 OA
HETATM   73  H   UNK     0      19.307  35.913  15.535  0.00  0.00     0.209 HD
ENDBRANCH  71  72
ENDBRANCH  64  71
ENDBRANCH   8  59
BRANCH  31  74
HETATM   74  O   UNK     0      20.277  38.270  21.782  0.00  0.00    -0.283 OA
BRANCH  74  75
HETATM   75  C   UNK     0      20.883  37.505  22.724  0.00  0.00     0.295 C 
HETATM   76  O   UNK     0      20.229  37.049  23.632  0.00  0.00    -0.259 OA
BRANCH  75  77
HETATM   77  C   UNK     0      22.322  37.220  22.648  0.00  0.00     0.045 A 
HETATM   78  C   UNK     0      22.917  36.360  23.558  0.00  0.00     0.057 A 
HETATM   79  C   UNK     0      24.277  36.104  23.481  0.00  0.00     0.102 A 
HETATM   80  C   UNK     0      25.042  36.709  22.496  0.00  0.00     0.132 A 
HETATM   81  C   UNK     0      24.447  37.568  21.586  0.00  0.00     0.102 A 
HETATM   82  C   UNK     0      23.088  37.821  21.660  0.00  0.00     0.057 A 
BRANCH  79  83
HETATM   83  O   UNK     0      24.864  35.259  24.372  0.00  0.00    -0.358 OA
HETATM   84  H   UNK     0      25.572  35.605  25.006  0.00  0.00     0.217 HD
ENDBRANCH  79  83
BRANCH  80  85
HETATM   85  O   UNK     0      26.378  36.463  22.425  0.00  0.00    -0.356 OA
HETATM   86  H   UNK     0      26.998  37.149  22.011  0.00  0.00     0.218 HD
ENDBRANCH  80  85
BRANCH  81  87
HETATM   87  O   UNK     0      25.198  38.163  20.622  0.00  0.00    -0.358 OA
HETATM   88  H   UNK     0      25.131  37.850  19.662  0.00  0.00     0.217 HD
ENDBRANCH  81  87
ENDBRANCH  75  77
ENDBRANCH  74  75
ENDBRANCH  31  74
BRANCH  19  89
HETATM   89  O   UNK     0      16.470  40.433  12.837  0.00  0.00    -0.358 OA
HETATM   90  H   UNK     0      16.722  40.826  11.939  0.00  0.00     0.217 HD
ENDBRANCH  19  89
BRANCH  26  91
HETATM   91  O   UNK     0      20.768  44.787  20.492  0.00  0.00    -0.358 OA
HETATM   92  H   UNK     0      20.195  45.368  21.089  0.00  0.00     0.217 HD
ENDBRANCH  26  91
BRANCH  17  93
HETATM   93  O   UNK     0      17.358  43.022  12.996  0.00  0.00    -0.357 OA
HETATM   94  H   UNK     0      16.528  43.600  12.941  0.00  0.00     0.217 HD
ENDBRANCH  17  93
BRANCH  24  95
HETATM   95  O   UNK     0      19.261  45.988  18.535  0.00  0.00    -0.357 OA
HETATM   96  H   UNK     0      20.067  46.600  18.563  0.00  0.00     0.217 HD
ENDBRANCH  24  95
TORSDOF 21
