REMARK VINA RESULT:      -9.2     11.585     17.308
REMARK  21 active torsions:
REMARK  status: ('A' for Active; 'I' for Inactive)
REMARK    1  A    between atoms: C_3  and  O_78 
REMARK    2  A    between atoms: C_5  and  O_77 
REMARK    3  A    between atoms: C_6  and  O_76 
REMARK    4  A    between atoms: C_7  and  O_15 
REMARK    5  A    between atoms: C_8  and  C_17 
REMARK    6  A    between atoms: C_9  and  O_13 
REMARK    7  A    between atoms: C_16  and  O_24 
REMARK    8  A    between atoms: C_18  and  O_22 
REMARK    9  A    between atoms: C_19  and  C_72 
REMARK   10  A    between atoms: C_20  and  O_23 
REMARK   11  A    between atoms: C_28  and  O_32 
REMARK   12  A    between atoms: C_30  and  O_33 
REMARK   13  A    between atoms: C_37  and  O_42 
REMARK   14  A    between atoms: C_39  and  O_43 
REMARK   15  A    between atoms: C_46  and  O_67 
REMARK   16  A    between atoms: C_48  and  O_65 
REMARK   17  A    between atoms: C_49  and  C_52 
REMARK   18  A    between atoms: C_50  and  O_66 
REMARK   19  A    between atoms: C_52  and  O_60 
REMARK   20  A    between atoms: C_54  and  O_60 
REMARK   21  A    between atoms: C_72  and  O_73 
ROOT
HETATM    1  C   UNK     0       4.797  30.099  11.396  0.00  0.00     0.058 A 
HETATM    2  C   UNK     0       5.687  30.030  10.334  0.00  0.00     0.060 A 
HETATM    3  C   UNK     0       3.833  29.123  11.577  0.00  0.00     0.102 A 
HETATM    4  C   UNK     0       5.612  28.959   9.432  0.00  0.00     0.127 A 
HETATM    5  C   UNK     0       3.756  28.065  10.692  0.00  0.00     0.135 A 
HETATM    6  C   UNK     0       4.641  27.987   9.631  0.00  0.00     0.137 A 
HETATM    7  C   UNK     0       9.380  29.091   6.227  0.00  0.00     0.114 A 
HETATM    8  C   UNK     0       9.850  30.366   6.535  0.00  0.00     0.030 A 
HETATM    9  C   UNK     0       8.247  28.565   6.828  0.00  0.00     0.134 A 
HETATM   10  C   UNK     0       9.135  31.110   7.483  0.00  0.00     0.059 A 
HETATM   11  C   UNK     0       7.545  29.305   7.760  0.00  0.00     0.116 A 
HETATM   12  C   UNK     0       8.005  30.567   8.067  0.00  0.00     0.329 A 
HETATM   13  O   UNK     0       6.413  28.763   8.324  0.00  0.00    -0.304 OA
HETATM   14  C   UNK     0       9.475  32.463   7.940  0.00  0.00     0.295 C 
HETATM   15  C   UNK     0      15.586  37.854   7.943  0.00  0.00     0.026 A 
HETATM   16  C   UNK     0      14.353  37.591   8.533  0.00  0.00     0.006 A 
HETATM   17  C   UNK     0      16.054  37.125   6.866  0.00  0.00     0.111 A 
HETATM   18  C   UNK     0      13.583  36.541   8.000  0.00  0.00     0.054 A 
HETATM   19  C   UNK     0      15.291  36.098   6.351  0.00  0.00     0.100 A 
HETATM   20  C   UNK     0      14.064  35.813   6.919  0.00  0.00     0.058 A 
HETATM   21  O   UNK     0      16.350  38.867   8.435  0.00  0.00     0.000 OA
HETATM   22  C   UNK     0      14.635  39.774   9.651  0.00  0.00     0.026 A 
HETATM   23  C   UNK     0      14.005  38.531   9.693  0.00  0.00     0.006 A 
HETATM   24  C   UNK     0      14.451  40.722  10.643  0.00  0.00     0.111 A 
HETATM   25  C   UNK     0      13.162  38.270  10.782  0.00  0.00     0.054 A 
HETATM   26  C   UNK     0      13.622  40.447  11.711  0.00  0.00     0.100 A 
HETATM   27  C   UNK     0      12.984  39.224  11.773  0.00  0.00     0.058 A 
HETATM   28  C   UNK     0      12.437  37.025  10.976  0.00  0.00     0.294 C 
HETATM   29  O   UNK     0      15.459  40.062   8.609  0.00  0.00     0.000 OA
HETATM   30  O   UNK     0      13.029  36.040  11.356  0.00  0.00    -0.259 OA
HETATM   31  C   UNK     0       9.107  35.684  11.291  0.00  0.00     0.302 C 
HETATM   32  C   UNK     0      10.577  35.660  10.951  0.00  0.00     0.220 C 
HETATM   33  O   UNK     0       8.688  34.344  11.585  0.00  0.00    -0.348 OA
HETATM   34  C   UNK     0      10.729  34.869   9.695  0.00  0.00     0.198 C 
HETATM   35  C   UNK     0       8.919  33.343  10.571  0.00  0.00     0.181 C 
HETATM   36  C   UNK     0      10.386  33.421  10.018  0.00  0.00     0.195 C 
HETATM   37  C   UNK     0       8.702  31.951  11.184  0.00  0.00     0.212 C 
HETATM   38  O   UNK     0      12.061  35.001   9.216  0.00  0.00    -0.306 OA
HETATM   39  O   UNK     0      10.494  32.622   8.837  0.00  0.00    -0.307 OA
HETATM   40  O   UNK     0      11.092  36.962  10.757  0.00  0.00    -0.304 OA
HETATM   41  O   UNK     0       7.332  31.586  11.308  0.00  0.00    -0.328 OA
HETATM   42  C   UNK     0      12.253  36.140   8.480  0.00  0.00     0.294 C 
HETATM   43  O   UNK     0      11.295  36.818   8.192  0.00  0.00    -0.259 OA
HETATM   44  O   UNK     0       8.826  33.417   7.577  0.00  0.00    -0.259 OA
HETATM   45  C   UNK     0       6.675  31.107  10.216  0.00  0.00     0.179 C 
HETATM   46  O   UNK     0       6.941  31.550   9.122  0.00  0.00    -0.383 OA
HETATM   47  H   UNK     0      17.246  39.076   8.013  0.00  0.00     0.000 HD
HETATM   48  H   UNK     0      15.929  40.958   8.568  0.00  0.00     0.000 HD
ENDROOT
BRANCH   3  49
HETATM   49  O   UNK     0       2.964  29.205  12.620  0.00  0.00    -0.358 OA
HETATM   50  H   UNK     0       2.953  28.481  13.328  0.00  0.00     0.217 HD
ENDBRANCH   3  49
BRANCH   5  51
HETATM   51  O   UNK     0       2.809  27.102  10.864  0.00  0.00    -0.356 OA
HETATM   52  H   UNK     0       2.649  26.415  10.138  0.00  0.00     0.218 HD
ENDBRANCH   5  51
BRANCH   6  53
HETATM   53  O   UNK     0       4.554  26.941   8.764  0.00  0.00    -0.356 OA
HETATM   54  H   UNK     0       3.786  26.287   8.835  0.00  0.00     0.218 HD
ENDBRANCH   6  53
BRANCH   9  55
HETATM   55  O   UNK     0       7.820  27.319   6.486  0.00  0.00    -0.356 OA
HETATM   56  H   UNK     0       6.859  27.173   6.204  0.00  0.00     0.218 HD
ENDBRANCH   9  55
BRANCH   7  57
HETATM   57  O   UNK     0      10.045  28.348   5.302  0.00  0.00    -0.357 OA
HETATM   58  H   UNK     0      10.051  28.637   4.332  0.00  0.00     0.217 HD
ENDBRANCH   7  57
BRANCH   8  59
HETATM   59  C   UNK     0      11.084  30.808   5.765  0.00  0.00     0.023 A 
HETATM   60  C   UNK     0      10.828  31.419   4.542  0.00  0.00     0.113 A 
HETATM   61  C   UNK     0      11.852  31.868   3.727  0.00  0.00     0.133 A 
HETATM   62  C   UNK     0      13.164  31.715   4.126  0.00  0.00     0.102 A 
HETATM   63  C   UNK     0      13.441  31.104   5.334  0.00  0.00     0.049 A 
HETATM   64  C   UNK     0      12.419  30.646   6.154  0.00  0.00    -0.018 A 
BRANCH  60  65
HETATM   65  O   UNK     0       9.539  31.572   4.135  0.00  0.00    -0.357 OA
HETATM   66  H   UNK     0       8.813  30.982   4.521  0.00  0.00     0.217 HD
ENDBRANCH  60  65
BRANCH  61  67
HETATM   67  O   UNK     0      11.566  32.454   2.535  0.00  0.00    -0.356 OA
HETATM   68  H   UNK     0      11.498  31.891   1.696  0.00  0.00     0.218 HD
ENDBRANCH  61  67
BRANCH  62  69
HETATM   69  O   UNK     0      14.176  32.157   3.331  0.00  0.00    -0.358 OA
HETATM   70  H   UNK     0      15.074  31.693   3.350  0.00  0.00     0.217 HD
ENDBRANCH  62  69
BRANCH  64  71
HETATM   71  C   UNK     0      12.844  29.981   7.434  0.00  0.00     0.203 C 
BRANCH  71  72
HETATM   72  O   UNK     0      12.795  30.943   8.479  0.00  0.00    -0.396 OA
HETATM   73  H   UNK     0      12.271  30.747   9.323  0.00  0.00     0.209 HD
ENDBRANCH  71  72
ENDBRANCH  64  71
ENDBRANCH   8  59
BRANCH  31  74
HETATM   74  O   UNK     0       8.884  36.516  12.419  0.00  0.00    -0.283 OA
BRANCH  74  75
HETATM   75  C   UNK     0       7.613  36.917  12.669  0.00  0.00     0.295 C 
HETATM   76  O   UNK     0       6.969  36.356  13.525  0.00  0.00    -0.259 OA
BRANCH  75  77
HETATM   77  C   UNK     0       7.014  38.028  11.917  0.00  0.00     0.045 A 
HETATM   78  C   UNK     0       7.552  39.302  11.999  0.00  0.00     0.057 A 
HETATM   79  C   UNK     0       6.974  40.344  11.290  0.00  0.00     0.102 A 
HETATM   80  C   UNK     0       5.857  40.112  10.503  0.00  0.00     0.132 A 
HETATM   81  C   UNK     0       5.320  38.838  10.420  0.00  0.00     0.102 A 
HETATM   82  C   UNK     0       5.899  37.796  11.126  0.00  0.00     0.057 A 
BRANCH  79  83
HETATM   83  O   UNK     0       7.501  41.597  11.366  0.00  0.00    -0.358 OA
HETATM   84  H   UNK     0       7.300  42.276  10.644  0.00  0.00     0.217 HD
ENDBRANCH  79  83
BRANCH  80  85
HETATM   85  O   UNK     0       5.286  41.136   9.813  0.00  0.00    -0.356 OA
HETATM   86  H   UNK     0       5.828  41.962   9.591  0.00  0.00     0.218 HD
ENDBRANCH  80  85
BRANCH  81  87
HETATM   87  O   UNK     0       4.223  38.611   9.651  0.00  0.00    -0.358 OA
HETATM   88  H   UNK     0       4.073  37.699   9.239  0.00  0.00     0.217 HD
ENDBRANCH  81  87
ENDBRANCH  75  77
ENDBRANCH  74  75
ENDBRANCH  31  74
BRANCH  19  89
HETATM   89  O   UNK     0      15.744  35.377   5.290  0.00  0.00    -0.358 OA
HETATM   90  H   UNK     0      15.095  34.843   4.726  0.00  0.00     0.217 HD
ENDBRANCH  19  89
BRANCH  26  91
HETATM   91  O   UNK     0      13.440  41.369  12.694  0.00  0.00    -0.358 OA
HETATM   92  H   UNK     0      14.030  41.356  13.515  0.00  0.00     0.217 HD
ENDBRANCH  26  91
BRANCH  17  93
HETATM   93  O   UNK     0      17.261  37.421   6.312  0.00  0.00    -0.357 OA
HETATM   94  H   UNK     0      17.750  36.726   5.761  0.00  0.00     0.217 HD
ENDBRANCH  17  93
BRANCH  24  95
HETATM   95  O   UNK     0      15.090  41.921  10.570  0.00  0.00    -0.357 OA
HETATM   96  H   UNK     0      14.582  42.777  10.755  0.00  0.00     0.217 HD
ENDBRANCH  24  95
TORSDOF 21
