REMARK VINA RESULT:      -9.6     11.989     16.088
REMARK  21 active torsions:
REMARK  status: ('A' for Active; 'I' for Inactive)
REMARK    1  A    between atoms: C_3  and  O_78 
REMARK    2  A    between atoms: C_5  and  O_77 
REMARK    3  A    between atoms: C_6  and  O_76 
REMARK    4  A    between atoms: C_7  and  O_15 
REMARK    5  A    between atoms: C_8  and  C_17 
REMARK    6  A    between atoms: C_9  and  O_13 
REMARK    7  A    between atoms: C_16  and  O_24 
REMARK    8  A    between atoms: C_18  and  O_22 
REMARK    9  A    between atoms: C_19  and  C_72 
REMARK   10  A    between atoms: C_20  and  O_23 
REMARK   11  A    between atoms: C_28  and  O_32 
REMARK   12  A    between atoms: C_30  and  O_33 
REMARK   13  A    between atoms: C_37  and  O_42 
REMARK   14  A    between atoms: C_39  and  O_43 
REMARK   15  A    between atoms: C_46  and  O_67 
REMARK   16  A    between atoms: C_48  and  O_65 
REMARK   17  A    between atoms: C_49  and  C_52 
REMARK   18  A    between atoms: C_50  and  O_66 
REMARK   19  A    between atoms: C_52  and  O_60 
REMARK   20  A    between atoms: C_54  and  O_60 
REMARK   21  A    between atoms: C_72  and  O_73 
ROOT
HETATM    1  C   UNK     0      15.356  38.393   8.381  0.00  0.00     0.058 A 
HETATM    2  C   UNK     0      14.092  38.138   8.892  0.00  0.00     0.060 A 
HETATM    3  C   UNK     0      16.019  39.569   8.684  0.00  0.00     0.102 A 
HETATM    4  C   UNK     0      13.476  39.080   9.728  0.00  0.00     0.127 A 
HETATM    5  C   UNK     0      15.418  40.500   9.508  0.00  0.00     0.135 A 
HETATM    6  C   UNK     0      14.157  40.254  10.024  0.00  0.00     0.137 A 
HETATM    7  C   UNK     0       9.242  37.299  11.569  0.00  0.00     0.114 A 
HETATM    8  C   UNK     0       9.141  36.170  10.760  0.00  0.00     0.030 A 
HETATM    9  C   UNK     0      10.267  38.220  11.414  0.00  0.00     0.134 A 
HETATM   10  C   UNK     0      10.118  35.987   9.773  0.00  0.00     0.059 A 
HETATM   11  C   UNK     0      11.228  38.036  10.438  0.00  0.00     0.116 A 
HETATM   12  C   UNK     0      11.130  36.920   9.634  0.00  0.00     0.329 A 
HETATM   13  O   UNK     0      12.222  38.976  10.295  0.00  0.00    -0.304 OA
HETATM   14  C   UNK     0      10.183  34.863   8.833  0.00  0.00     0.295 C 
HETATM   15  C   UNK     0       7.194  27.381   7.608  0.00  0.00     0.026 A 
HETATM   16  C   UNK     0       8.194  28.249   7.178  0.00  0.00     0.006 A 
HETATM   17  C   UNK     0       6.174  27.795   8.445  0.00  0.00     0.111 A 
HETATM   18  C   UNK     0       8.144  29.580   7.629  0.00  0.00     0.054 A 
HETATM   19  C   UNK     0       6.136  29.103   8.882  0.00  0.00     0.100 A 
HETATM   20  C   UNK     0       7.118  29.985   8.472  0.00  0.00     0.058 A 
HETATM   21  O   UNK     0       7.213  26.088   7.183  0.00  0.00     0.000 OA
HETATM   22  C   UNK     0       8.739  26.497   5.526  0.00  0.00     0.026 A 
HETATM   23  C   UNK     0       9.212  27.603   6.231  0.00  0.00     0.006 A 
HETATM   24  C   UNK     0       9.546  25.784   4.656  0.00  0.00     0.111 A 
HETATM   25  C   UNK     0      10.546  27.980   6.024  0.00  0.00     0.054 A 
HETATM   26  C   UNK     0      10.859  26.165   4.468  0.00  0.00     0.100 A 
HETATM   27  C   UNK     0      11.349  27.259   5.152  0.00  0.00     0.058 A 
HETATM   28  C   UNK     0      11.192  29.104   6.683  0.00  0.00     0.294 C 
HETATM   29  O   UNK     0       7.450  26.103   5.702  0.00  0.00     0.000 OA
HETATM   30  O   UNK     0      11.527  29.006   7.842  0.00  0.00    -0.259 OA
HETATM   31  C   UNK     0      12.823  32.247   6.017  0.00  0.00     0.302 C 
HETATM   32  C   UNK     0      12.029  31.249   6.822  0.00  0.00     0.220 C 
HETATM   33  O   UNK     0      13.477  33.144   6.924  0.00  0.00    -0.348 OA
HETATM   34  C   UNK     0      10.959  32.005   7.536  0.00  0.00     0.198 C 
HETATM   35  C   UNK     0      12.645  33.856   7.863  0.00  0.00     0.181 C 
HETATM   36  C   UNK     0      11.635  32.889   8.576  0.00  0.00     0.195 C 
HETATM   37  C   UNK     0      13.538  34.505   8.932  0.00  0.00     0.212 C 
HETATM   38  O   UNK     0      10.053  31.088   8.133  0.00  0.00    -0.306 OA
HETATM   39  O   UNK     0      10.651  33.656   9.274  0.00  0.00    -0.307 OA
HETATM   40  O   UNK     0      11.443  30.259   6.002  0.00  0.00    -0.304 OA
HETATM   41  O   UNK     0      14.170  35.705   8.500  0.00  0.00    -0.328 OA
HETATM   42  C   UNK     0       9.100  30.633   7.260  0.00  0.00     0.294 C 
HETATM   43  O   UNK     0       9.026  31.138   6.164  0.00  0.00    -0.259 OA
HETATM   44  O   UNK     0       9.887  35.015   7.670  0.00  0.00    -0.259 OA
HETATM   45  C   UNK     0      13.461  36.867   8.518  0.00  0.00     0.179 C 
HETATM   46  O   UNK     0      12.279  36.846   8.260  0.00  0.00    -0.383 OA
HETATM   47  H   UNK     0       6.490  25.447   7.481  0.00  0.00     0.000 HD
HETATM   48  H   UNK     0       7.094  25.297   5.202  0.00  0.00     0.000 HD
ENDROOT
BRANCH   3  49
HETATM   49  O   UNK     0      17.256  39.808   8.174  0.00  0.00    -0.358 OA
HETATM   50  H   UNK     0      17.463  39.568   7.212  0.00  0.00     0.217 HD
ENDBRANCH   3  49
BRANCH   5  51
HETATM   51  O   UNK     0      16.063  41.660   9.810  0.00  0.00    -0.356 OA
HETATM   52  H   UNK     0      17.074  41.699   9.776  0.00  0.00     0.218 HD
ENDBRANCH   5  51
BRANCH   6  53
HETATM   53  O   UNK     0      13.572  41.179  10.833  0.00  0.00    -0.356 OA
HETATM   54  H   UNK     0      13.084  40.884  11.669  0.00  0.00     0.218 HD
ENDBRANCH   6  53
BRANCH   9  55
HETATM   55  O   UNK     0      10.319  39.314  12.221  0.00  0.00    -0.356 OA
HETATM   56  H   UNK     0      11.077  39.420  12.883  0.00  0.00     0.218 HD
ENDBRANCH   9  55
BRANCH   7  57
HETATM   57  O   UNK     0       8.302  37.510  12.528  0.00  0.00    -0.357 OA
HETATM   58  H   UNK     0       7.410  37.034  12.475  0.00  0.00     0.217 HD
ENDBRANCH   7  57
BRANCH   8  59
HETATM   59  C   UNK     0       7.941  35.278  11.036  0.00  0.00     0.023 A 
HETATM   60  C   UNK     0       6.858  35.466  10.182  0.00  0.00     0.113 A 
HETATM   61  C   UNK     0       5.694  34.732  10.315  0.00  0.00     0.133 A 
HETATM   62  C   UNK     0       5.590  33.783  11.313  0.00  0.00     0.102 A 
HETATM   63  C   UNK     0       6.651  33.585  12.176  0.00  0.00     0.049 A 
HETATM   64  C   UNK     0       7.820  34.322  12.052  0.00  0.00    -0.018 A 
BRANCH  60  65
HETATM   65  O   UNK     0       6.946  36.401   9.198  0.00  0.00    -0.357 OA
HETATM   66  H   UNK     0       7.837  36.828   8.983  0.00  0.00     0.217 HD
ENDBRANCH  60  65
BRANCH  61  67
HETATM   67  O   UNK     0       4.652  34.947   9.468  0.00  0.00    -0.356 OA
HETATM   68  H   UNK     0       3.788  34.435   9.588  0.00  0.00     0.218 HD
ENDBRANCH  61  67
BRANCH  62  69
HETATM   69  O   UNK     0       4.449  33.055  11.447  0.00  0.00    -0.358 OA
HETATM   70  H   UNK     0       3.819  32.952  10.662  0.00  0.00     0.217 HD
ENDBRANCH  62  69
BRANCH  64  71
HETATM   71  C   UNK     0       8.896  34.032  13.061  0.00  0.00     0.203 C 
BRANCH  71  72
HETATM   72  O   UNK     0       8.751  34.935  14.148  0.00  0.00    -0.396 OA
HETATM   73  H   UNK     0       8.189  34.676  14.950  0.00  0.00     0.209 HD
ENDBRANCH  71  72
ENDBRANCH  64  71
ENDBRANCH   8  59
BRANCH  31  74
HETATM   74  O   UNK     0      13.790  31.571   5.227  0.00  0.00    -0.283 OA
BRANCH  74  75
HETATM   75  C   UNK     0      14.000  32.017   3.963  0.00  0.00     0.295 C 
HETATM   76  O   UNK     0      14.273  33.181   3.780  0.00  0.00    -0.259 OA
BRANCH  75  77
HETATM   77  C   UNK     0      13.906  31.102   2.818  0.00  0.00     0.045 A 
HETATM   78  C   UNK     0      15.038  30.766   2.093  0.00  0.00     0.057 A 
HETATM   79  C   UNK     0      14.936  29.906   1.010  0.00  0.00     0.102 A 
HETATM   80  C   UNK     0      13.702  29.386   0.651  0.00  0.00     0.132 A 
HETATM   81  C   UNK     0      12.571  29.721   1.377  0.00  0.00     0.102 A 
HETATM   82  C   UNK     0      12.673  30.577   2.461  0.00  0.00     0.057 A 
BRANCH  79  83
HETATM   83  O   UNK     0      16.046  29.573   0.296  0.00  0.00    -0.358 OA
HETATM   84  H   UNK     0      16.876  30.148   0.354  0.00  0.00     0.217 HD
ENDBRANCH  79  83
BRANCH  80  85
HETATM   85  O   UNK     0      13.601  28.548  -0.416  0.00  0.00    -0.356 OA
HETATM   86  H   UNK     0      14.003  28.813  -1.308  0.00  0.00     0.218 HD
ENDBRANCH  80  85
BRANCH  81  87
HETATM   87  O   UNK     0      11.361  29.213   1.024  0.00  0.00    -0.358 OA
HETATM   88  H   UNK     0      10.622  29.832   0.717  0.00  0.00     0.217 HD
ENDBRANCH  81  87
ENDBRANCH  75  77
ENDBRANCH  74  75
ENDBRANCH  31  74
BRANCH  19  89
HETATM   89  O   UNK     0       5.135  29.518   9.704  0.00  0.00    -0.358 OA
HETATM   90  H   UNK     0       5.180  30.433  10.135  0.00  0.00     0.217 HD
ENDBRANCH  19  89
BRANCH  26  91
HETATM   91  O   UNK     0      11.662  25.467   3.621  0.00  0.00    -0.358 OA
HETATM   92  H   UNK     0      11.254  24.882   2.904  0.00  0.00     0.217 HD
ENDBRANCH  26  91
BRANCH  17  93
HETATM   93  O   UNK     0       5.210  26.918   8.835  0.00  0.00    -0.357 OA
HETATM   94  H   UNK     0       4.257  27.237   8.963  0.00  0.00     0.217 HD
ENDBRANCH  17  93
BRANCH  24  95
HETATM   95  O   UNK     0       9.050  24.705   3.992  0.00  0.00    -0.357 OA
HETATM   96  H   UNK     0       8.448  24.838   3.190  0.00  0.00     0.217 HD
ENDBRANCH  24  95
TORSDOF 21
