REMARK VINA RESULT:      -7.4     26.607     32.176
REMARK  21 active torsions:
REMARK  status: ('A' for Active; 'I' for Inactive)
REMARK    1  A    between atoms: C_3  and  O_78 
REMARK    2  A    between atoms: C_5  and  O_77 
REMARK    3  A    between atoms: C_6  and  O_76 
REMARK    4  A    between atoms: C_7  and  O_15 
REMARK    5  A    between atoms: C_8  and  C_17 
REMARK    6  A    between atoms: C_9  and  O_13 
REMARK    7  A    between atoms: C_16  and  O_24 
REMARK    8  A    between atoms: C_18  and  O_22 
REMARK    9  A    between atoms: C_19  and  C_72 
REMARK   10  A    between atoms: C_20  and  O_23 
REMARK   11  A    between atoms: C_28  and  O_32 
REMARK   12  A    between atoms: C_30  and  O_33 
REMARK   13  A    between atoms: C_37  and  O_42 
REMARK   14  A    between atoms: C_39  and  O_43 
REMARK   15  A    between atoms: C_46  and  O_67 
REMARK   16  A    between atoms: C_48  and  O_65 
REMARK   17  A    between atoms: C_49  and  C_52 
REMARK   18  A    between atoms: C_50  and  O_66 
REMARK   19  A    between atoms: C_52  and  O_60 
REMARK   20  A    between atoms: C_54  and  O_60 
REMARK   21  A    between atoms: C_72  and  O_73 
ROOT
HETATM    1  C   UNK     0       7.980  20.538  -7.609  0.00  0.00     0.058 A 
HETATM    2  C   UNK     0       6.923  20.214  -6.771  0.00  0.00     0.060 A 
HETATM    3  C   UNK     0       8.793  19.552  -8.138  0.00  0.00     0.102 A 
HETATM    4  C   UNK     0       6.671  18.871  -6.456  0.00  0.00     0.127 A 
HETATM    5  C   UNK     0       8.549  18.227  -7.833  0.00  0.00     0.135 A 
HETATM    6  C   UNK     0       7.495  17.894  -7.000  0.00  0.00     0.137 A 
HETATM    7  C   UNK     0       2.483  18.427  -3.860  0.00  0.00     0.114 A 
HETATM    8  C   UNK     0       2.282  19.777  -3.587  0.00  0.00     0.030 A 
HETATM    9  C   UNK     0       3.603  17.977  -4.541  0.00  0.00     0.134 A 
HETATM   10  C   UNK     0       3.256  20.682  -4.028  0.00  0.00     0.059 A 
HETATM   11  C   UNK     0       4.563  18.874  -4.973  0.00  0.00     0.116 A 
HETATM   12  C   UNK     0       4.368  20.212  -4.703  0.00  0.00     0.329 A 
HETATM   13  O   UNK     0       5.673  18.397  -5.629  0.00  0.00    -0.304 OA
HETATM   14  C   UNK     0       3.219  22.137  -3.841  0.00  0.00     0.295 C 
HETATM   15  C   UNK     0      -1.864  28.193  -1.865  0.00  0.00     0.026 A 
HETATM   16  C   UNK     0      -0.606  27.948  -2.410  0.00  0.00     0.006 A 
HETATM   17  C   UNK     0      -2.619  27.192  -1.283  0.00  0.00     0.111 A 
HETATM   18  C   UNK     0      -0.116  26.630  -2.356  0.00  0.00     0.054 A 
HETATM   19  C   UNK     0      -2.128  25.903  -1.236  0.00  0.00     0.100 A 
HETATM   20  C   UNK     0      -0.883  25.632  -1.771  0.00  0.00     0.058 A 
HETATM   21  O   UNK     0      -2.362  29.459  -1.899  0.00  0.00     0.000 OA
HETATM   22  C   UNK     0      -0.342  30.402  -2.423  0.00  0.00     0.026 A 
HETATM   23  C   UNK     0       0.079  29.195  -2.978  0.00  0.00     0.006 A 
HETATM   24  C   UNK     0       0.156  31.619  -2.853  0.00  0.00     0.111 A 
HETATM   25  C   UNK     0       1.043  29.253  -3.996  0.00  0.00     0.054 A 
HETATM   26  C   UNK     0       1.100  31.659  -3.858  0.00  0.00     0.100 A 
HETATM   27  C   UNK     0       1.537  30.477  -4.422  0.00  0.00     0.058 A 
HETATM   28  C   UNK     0       1.582  28.088  -4.679  0.00  0.00     0.294 C 
HETATM   29  O   UNK     0      -1.276  30.384  -1.434  0.00  0.00     0.000 OA
HETATM   30  O   UNK     0       0.914  27.521  -5.513  0.00  0.00    -0.259 OA
HETATM   31  C   UNK     0       4.660  26.323  -5.305  0.00  0.00     0.302 C 
HETATM   32  C   UNK     0       3.170  26.477  -5.133  0.00  0.00     0.220 C 
HETATM   33  O   UNK     0       4.904  25.186  -6.145  0.00  0.00    -0.348 OA
HETATM   34  C   UNK     0       2.681  25.276  -4.395  0.00  0.00     0.198 C 
HETATM   35  C   UNK     0       4.348  23.923  -5.724  0.00  0.00     0.181 C 
HETATM   36  C   UNK     0       2.840  24.073  -5.316  0.00  0.00     0.195 C 
HETATM   37  C   UNK     0       4.442  22.923  -6.886  0.00  0.00     0.212 C 
HETATM   38  O   UNK     0       1.326  25.475  -4.016  0.00  0.00    -0.306 OA
HETATM   39  O   UNK     0       2.406  22.888  -4.644  0.00  0.00    -0.307 OA
HETATM   40  O   UNK     0       2.843  27.644  -4.407  0.00  0.00    -0.304 OA
HETATM   41  O   UNK     0       5.737  22.357  -7.053  0.00  0.00    -0.328 OA
HETATM   42  C   UNK     0       1.195  26.196  -2.859  0.00  0.00     0.294 C 
HETATM   43  O   UNK     0       2.186  26.454  -2.217  0.00  0.00    -0.259 OA
HETATM   44  O   UNK     0       3.940  22.672  -3.031  0.00  0.00    -0.259 OA
HETATM   45  C   UNK     0       6.113  21.322  -6.253  0.00  0.00     0.179 C 
HETATM   46  O   UNK     0       5.739  21.295  -5.103  0.00  0.00    -0.383 OA
HETATM   47  H   UNK     0      -3.272  29.655  -1.501  0.00  0.00     0.000 HD
HETATM   48  H   UNK     0      -1.597  31.253  -1.026  0.00  0.00     0.000 HD
ENDROOT
BRANCH   3  49
HETATM   49  O   UNK     0       9.828  19.884  -8.955  0.00  0.00    -0.358 OA
HETATM   50  H   UNK     0      10.489  20.596  -8.671  0.00  0.00     0.217 HD
ENDBRANCH   3  49
BRANCH   5  51
HETATM   51  O   UNK     0       9.345  17.252  -8.350  0.00  0.00    -0.356 OA
HETATM   52  H   UNK     0      10.351  17.364  -8.343  0.00  0.00     0.218 HD
ENDBRANCH   5  51
BRANCH   6  53
HETATM   53  O   UNK     0       7.264  16.586  -6.704  0.00  0.00    -0.356 OA
HETATM   54  H   UNK     0       7.441  15.871  -7.398  0.00  0.00     0.218 HD
ENDBRANCH   6  53
BRANCH   9  55
HETATM   55  O   UNK     0       3.762  16.647  -4.775  0.00  0.00    -0.356 OA
HETATM   56  H   UNK     0       3.089  15.984  -4.410  0.00  0.00     0.218 HD
ENDBRANCH   9  55
BRANCH   7  57
HETATM   57  O   UNK     0       1.560  17.523  -3.434  0.00  0.00    -0.357 OA
HETATM   58  H   UNK     0       0.821  17.813  -2.805  0.00  0.00     0.217 HD
ENDBRANCH   7  57
BRANCH   8  59
HETATM   59  C   UNK     0       1.021  20.101  -2.801  0.00  0.00     0.023 A 
HETATM   60  C   UNK     0       1.108  19.884  -1.430  0.00  0.00     0.113 A 
HETATM   61  C   UNK     0       0.038  20.127  -0.587  0.00  0.00     0.133 A 
HETATM   62  C   UNK     0      -1.150  20.601  -1.105  0.00  0.00     0.102 A 
HETATM   63  C   UNK     0      -1.261  20.818  -2.466  0.00  0.00     0.049 A 
HETATM   64  C   UNK     0      -0.194  20.570  -3.318  0.00  0.00    -0.018 A 
BRANCH  60  65
HETATM   65  O   UNK     0       2.272  19.412  -0.907  0.00  0.00    -0.357 OA
HETATM   66  H   UNK     0       3.158  19.717  -1.287  0.00  0.00     0.217 HD
ENDBRANCH  60  65
BRANCH  61  67
HETATM   67  O   UNK     0       0.156  19.896   0.747  0.00  0.00    -0.356 OA
HETATM   68  H   UNK     0       0.781  19.175   1.084  0.00  0.00     0.218 HD
ENDBRANCH  61  67
BRANCH  62  69
HETATM   69  O   UNK     0      -2.204  20.847  -0.282  0.00  0.00    -0.358 OA
HETATM   70  H   UNK     0      -3.090  21.146  -0.668  0.00  0.00     0.217 HD
ENDBRANCH  62  69
BRANCH  64  71
HETATM   71  C   UNK     0      -0.440  20.825  -4.779  0.00  0.00     0.203 C 
BRANCH  71  72
HETATM   72  O   UNK     0      -0.314  22.220  -5.021  0.00  0.00    -0.396 OA
HETATM   73  H   UNK     0      -0.570  22.602  -5.922  0.00  0.00     0.209 HD
ENDBRANCH  71  72
ENDBRANCH  64  71
ENDBRANCH   8  59
BRANCH  31  74
HETATM   74  O   UNK     0       5.202  27.490  -5.905  0.00  0.00    -0.283 OA
BRANCH  74  75
HETATM   75  C   UNK     0       6.067  28.235  -5.174  0.00  0.00     0.295 C 
HETATM   76  O   UNK     0       7.256  28.053  -5.289  0.00  0.00    -0.259 OA
BRANCH  75  77
HETATM   77  C   UNK     0       5.574  29.265  -4.249  0.00  0.00     0.045 A 
HETATM   78  C   UNK     0       5.327  28.955  -2.921  0.00  0.00     0.057 A 
HETATM   79  C   UNK     0       4.856  29.934  -2.059  0.00  0.00     0.102 A 
HETATM   80  C   UNK     0       4.628  31.219  -2.525  0.00  0.00     0.132 A 
HETATM   81  C   UNK     0       4.875  31.528  -3.853  0.00  0.00     0.102 A 
HETATM   82  C   UNK     0       5.350  30.552  -4.714  0.00  0.00     0.057 A 
BRANCH  79  83
HETATM   83  O   UNK     0       4.614  29.634  -0.753  0.00  0.00    -0.358 OA
HETATM   84  H   UNK     0       3.835  29.037  -0.507  0.00  0.00     0.217 HD
ENDBRANCH  79  83
BRANCH  80  85
HETATM   85  O   UNK     0       4.158  32.177  -1.681  0.00  0.00    -0.356 OA
HETATM   86  H   UNK     0       3.313  32.011  -1.148  0.00  0.00     0.218 HD
ENDBRANCH  80  85
BRANCH  81  87
HETATM   87  O   UNK     0       4.650  32.787  -4.312  0.00  0.00    -0.358 OA
HETATM   88  H   UNK     0       5.426  33.366  -4.605  0.00  0.00     0.217 HD
ENDBRANCH  81  87
ENDBRANCH  75  77
ENDBRANCH  74  75
ENDBRANCH  31  74
BRANCH  19  89
HETATM   89  O   UNK     0      -2.864  24.914  -0.663  0.00  0.00    -0.358 OA
HETATM   90  H   UNK     0      -3.842  24.806  -0.903  0.00  0.00     0.217 HD
ENDBRANCH  19  89
BRANCH  26  91
HETATM   91  O   UNK     0       1.591  32.850  -4.293  0.00  0.00    -0.358 OA
HETATM   92  H   UNK     0       2.558  32.924  -4.582  0.00  0.00     0.217 HD
ENDBRANCH  26  91
BRANCH  17  93
HETATM   93  O   UNK     0      -3.840  27.475  -0.753  0.00  0.00    -0.357 OA
HETATM   94  H   UNK     0      -4.656  26.960  -1.058  0.00  0.00     0.217 HD
ENDBRANCH  17  93
BRANCH  24  95
HETATM   95  O   UNK     0      -0.287  32.777  -2.291  0.00  0.00    -0.357 OA
HETATM   96  H   UNK     0      -0.202  33.649  -2.796  0.00  0.00     0.217 HD
ENDBRANCH  24  95
TORSDOF 21
