REMARK VINA RESULT:      -9.4     15.019     18.726
REMARK  21 active torsions:
REMARK  status: ('A' for Active; 'I' for Inactive)
REMARK    1  A    between atoms: C_3  and  O_78 
REMARK    2  A    between atoms: C_5  and  O_77 
REMARK    3  A    between atoms: C_6  and  O_76 
REMARK    4  A    between atoms: C_7  and  O_15 
REMARK    5  A    between atoms: C_8  and  C_17 
REMARK    6  A    between atoms: C_9  and  O_13 
REMARK    7  A    between atoms: C_16  and  O_24 
REMARK    8  A    between atoms: C_18  and  O_22 
REMARK    9  A    between atoms: C_19  and  C_72 
REMARK   10  A    between atoms: C_20  and  O_23 
REMARK   11  A    between atoms: C_28  and  O_32 
REMARK   12  A    between atoms: C_30  and  O_33 
REMARK   13  A    between atoms: C_37  and  O_42 
REMARK   14  A    between atoms: C_39  and  O_43 
REMARK   15  A    between atoms: C_46  and  O_67 
REMARK   16  A    between atoms: C_48  and  O_65 
REMARK   17  A    between atoms: C_49  and  C_52 
REMARK   18  A    between atoms: C_50  and  O_66 
REMARK   19  A    between atoms: C_52  and  O_60 
REMARK   20  A    between atoms: C_54  and  O_60 
REMARK   21  A    between atoms: C_72  and  O_73 
ROOT
HETATM    1  C   UNK     0       5.039  27.410  10.359  0.00  0.00     0.058 A 
HETATM    2  C   UNK     0       5.728  28.441   9.738  0.00  0.00     0.060 A 
HETATM    3  C   UNK     0       3.852  27.653  11.027  0.00  0.00     0.102 A 
HETATM    4  C   UNK     0       5.219  29.746   9.785  0.00  0.00     0.127 A 
HETATM    5  C   UNK     0       3.344  28.937  11.075  0.00  0.00     0.135 A 
HETATM    6  C   UNK     0       4.025  29.972  10.457  0.00  0.00     0.137 A 
HETATM    7  C   UNK     0       7.907  32.787   6.954  0.00  0.00     0.114 A 
HETATM    8  C   UNK     0       8.975  31.928   6.709  0.00  0.00     0.030 A 
HETATM    9  C   UNK     0       6.856  32.429   7.784  0.00  0.00     0.134 A 
HETATM   10  C   UNK     0       8.956  30.674   7.333  0.00  0.00     0.059 A 
HETATM   11  C   UNK     0       6.843  31.191   8.398  0.00  0.00     0.116 A 
HETATM   12  C   UNK     0       7.900  30.338   8.160  0.00  0.00     0.329 A 
HETATM   13  O   UNK     0       5.797  30.872   9.232  0.00  0.00    -0.304 OA
HETATM   14  C   UNK     0       9.984  29.635   7.194  0.00  0.00     0.295 C 
HETATM   15  C   UNK     0      16.316  27.499   2.530  0.00  0.00     0.026 A 
HETATM   16  C   UNK     0      15.461  27.009   3.513  0.00  0.00     0.006 A 
HETATM   17  C   UNK     0      16.334  28.835   2.173  0.00  0.00     0.111 A 
HETATM   18  C   UNK     0      14.596  27.923   4.142  0.00  0.00     0.054 A 
HETATM   19  C   UNK     0      15.480  29.722   2.797  0.00  0.00     0.100 A 
HETATM   20  C   UNK     0      14.620  29.261   3.774  0.00  0.00     0.058 A 
HETATM   21  O   UNK     0      17.168  26.640   1.908  0.00  0.00     0.000 OA
HETATM   22  C   UNK     0      16.868  24.981   3.458  0.00  0.00     0.026 A 
HETATM   23  C   UNK     0      15.618  25.509   3.783  0.00  0.00     0.006 A 
HETATM   24  C   UNK     0      17.156  23.636   3.610  0.00  0.00     0.111 A 
HETATM   25  C   UNK     0      14.653  24.623   4.283  0.00  0.00     0.054 A 
HETATM   26  C   UNK     0      16.192  22.777   4.099  0.00  0.00     0.100 A 
HETATM   27  C   UNK     0      14.949  23.276   4.431  0.00  0.00     0.058 A 
HETATM   28  C   UNK     0      13.304  25.012   4.663  0.00  0.00     0.294 C 
HETATM   29  O   UNK     0      17.828  25.810   2.970  0.00  0.00     0.000 OA
HETATM   30  O   UNK     0      12.480  25.233   3.805  0.00  0.00    -0.259 OA
HETATM   31  C   UNK     0      11.050  25.104   7.473  0.00  0.00     0.302 C 
HETATM   32  C   UNK     0      11.620  25.544   6.147  0.00  0.00     0.220 C 
HETATM   33  O   UNK     0       9.668  25.483   7.520  0.00  0.00    -0.348 OA
HETATM   34  C   UNK     0      11.574  27.035   6.117  0.00  0.00     0.198 C 
HETATM   35  C   UNK     0       9.358  26.878   7.316  0.00  0.00     0.181 C 
HETATM   36  C   UNK     0      10.110  27.450   6.063  0.00  0.00     0.195 C 
HETATM   37  C   UNK     0       7.846  27.026   7.089  0.00  0.00     0.212 C 
HETATM   38  O   UNK     0      12.297  27.506   4.987  0.00  0.00    -0.306 OA
HETATM   39  O   UNK     0      10.010  28.877   6.057  0.00  0.00    -0.307 OA
HETATM   40  O   UNK     0      12.953  25.108   5.978  0.00  0.00    -0.304 OA
HETATM   41  O   UNK     0       7.078  26.975   8.285  0.00  0.00    -0.328 OA
HETATM   42  C   UNK     0      13.646  27.586   5.213  0.00  0.00     0.294 C 
HETATM   43  O   UNK     0      14.062  27.407   6.333  0.00  0.00    -0.259 OA
HETATM   44  O   UNK     0      10.758  29.410   8.096  0.00  0.00    -0.259 OA
HETATM   45  C   UNK     0       6.979  28.094   9.054  0.00  0.00     0.179 C 
HETATM   46  O   UNK     0       7.929  28.839   9.142  0.00  0.00    -0.383 OA
HETATM   47  H   UNK     0      17.801  26.981   1.196  0.00  0.00     0.000 HD
HETATM   48  H   UNK     0      18.738  25.440   2.723  0.00  0.00     0.000 HD
ENDROOT
BRANCH   3  49
HETATM   49  O   UNK     0       3.188  26.634  11.635  0.00  0.00    -0.358 OA
HETATM   50  H   UNK     0       3.290  26.486  12.631  0.00  0.00     0.217 HD
ENDBRANCH   3  49
BRANCH   5  51
HETATM   51  O   UNK     0       2.178  29.183  11.731  0.00  0.00    -0.356 OA
HETATM   52  H   UNK     0       1.293  28.979  11.284  0.00  0.00     0.218 HD
ENDBRANCH   5  51
BRANCH   6  53
HETATM   53  O   UNK     0       3.517  31.233  10.512  0.00  0.00    -0.356 OA
HETATM   54  H   UNK     0       2.840  31.537   9.823  0.00  0.00     0.218 HD
ENDBRANCH   6  53
BRANCH   9  55
HETATM   55  O   UNK     0       5.839  33.307   8.002  0.00  0.00    -0.356 OA
HETATM   56  H   UNK     0       5.594  33.985   7.291  0.00  0.00     0.218 HD
ENDBRANCH   9  55
BRANCH   7  57
HETATM   57  O   UNK     0       7.902  34.017   6.372  0.00  0.00    -0.357 OA
HETATM   58  H   UNK     0       8.330  34.802   6.847  0.00  0.00     0.217 HD
ENDBRANCH   7  57
BRANCH   8  59
HETATM   59  C   UNK     0      10.062  32.484   5.804  0.00  0.00     0.023 A 
HETATM   60  C   UNK     0      10.031  32.021   4.492  0.00  0.00     0.113 A 
HETATM   61  C   UNK     0      10.962  32.433   3.555  0.00  0.00     0.133 A 
HETATM   62  C   UNK     0      11.949  33.328   3.915  0.00  0.00     0.102 A 
HETATM   63  C   UNK     0      12.002  33.796   5.214  0.00  0.00     0.049 A 
HETATM   64  C   UNK     0      11.075  33.382   6.161  0.00  0.00    -0.018 A 
BRANCH  60  65
HETATM   65  O   UNK     0       9.067  31.134   4.126  0.00  0.00    -0.357 OA
HETATM   66  H   UNK     0       8.094  31.410   4.138  0.00  0.00     0.217 HD
ENDBRANCH  60  65
BRANCH  61  67
HETATM   67  O   UNK     0      10.906  31.954   2.284  0.00  0.00    -0.356 OA
HETATM   68  H   UNK     0      11.405  31.108   2.039  0.00  0.00     0.218 HD
ENDBRANCH  61  67
BRANCH  62  69
HETATM   69  O   UNK     0      12.864  33.741   2.997  0.00  0.00    -0.358 OA
HETATM   70  H   UNK     0      13.841  33.508   3.117  0.00  0.00     0.217 HD
ENDBRANCH  62  69
BRANCH  64  71
HETATM   71  C   UNK     0      11.247  33.943   7.545  0.00  0.00     0.203 C 
BRANCH  71  72
HETATM   72  O   UNK     0      10.445  35.111   7.660  0.00  0.00    -0.396 OA
HETATM   73  H   UNK     0       9.827  35.378   6.904  0.00  0.00     0.209 HD
ENDBRANCH  71  72
ENDBRANCH  64  71
ENDBRANCH   8  59
BRANCH  31  74
HETATM   74  O   UNK     0      11.168  23.696   7.607  0.00  0.00    -0.283 OA
BRANCH  74  75
HETATM   75  C   UNK     0      11.700  23.212   8.757  0.00  0.00     0.295 C 
HETATM   76  O   UNK     0      11.351  23.677   9.817  0.00  0.00    -0.259 OA
BRANCH  75  77
HETATM   77  C   UNK     0      12.689  22.125   8.728  0.00  0.00     0.045 A 
HETATM   78  C   UNK     0      13.234  21.705   7.526  0.00  0.00     0.057 A 
HETATM   79  C   UNK     0      14.162  20.674   7.510  0.00  0.00     0.102 A 
HETATM   80  C   UNK     0      14.540  20.063   8.695  0.00  0.00     0.132 A 
HETATM   81  C   UNK     0      13.995  20.485   9.897  0.00  0.00     0.102 A 
HETATM   82  C   UNK     0      13.071  21.517   9.914  0.00  0.00     0.057 A 
BRANCH  79  83
HETATM   83  O   UNK     0      14.701  20.259   6.331  0.00  0.00    -0.358 OA
HETATM   84  H   UNK     0      14.257  19.518   5.805  0.00  0.00     0.217 HD
ENDBRANCH  79  83
BRANCH  80  85
HETATM   85  O   UNK     0      15.444  19.047   8.679  0.00  0.00    -0.356 OA
HETATM   86  H   UNK     0      15.697  18.580   9.542  0.00  0.00     0.218 HD
ENDBRANCH  80  85
BRANCH  81  87
HETATM   87  O   UNK     0      14.364  19.884  11.059  0.00  0.00    -0.358 OA
HETATM   88  H   UNK     0      14.096  20.290  11.946  0.00  0.00     0.217 HD
ENDBRANCH  81  87
ENDBRANCH  75  77
ENDBRANCH  74  75
ENDBRANCH  31  74
BRANCH  19  89
HETATM   89  O   UNK     0      15.494  31.037   2.452  0.00  0.00    -0.358 OA
HETATM   90  H   UNK     0      16.155  31.668   2.886  0.00  0.00     0.217 HD
ENDBRANCH  19  89
BRANCH  26  91
HETATM   91  O   UNK     0      16.464  21.453   4.246  0.00  0.00    -0.358 OA
HETATM   92  H   UNK     0      17.080  21.142   4.985  0.00  0.00     0.217 HD
ENDBRANCH  26  91
BRANCH  17  93
HETATM   93  O   UNK     0      17.192  29.276   1.214  0.00  0.00    -0.357 OA
HETATM   94  H   UNK     0      17.427  30.259   1.158  0.00  0.00     0.217 HD
ENDBRANCH  17  93
BRANCH  24  95
HETATM   95  O   UNK     0      18.385  23.158   3.274  0.00  0.00    -0.357 OA
HETATM   96  H   UNK     0      19.209  23.720   3.440  0.00  0.00     0.217 HD
ENDBRANCH  24  95
TORSDOF 21
