REMARK VINA RESULT:      -8.0      2.273      4.908
REMARK  21 active torsions:
REMARK  status: ('A' for Active; 'I' for Inactive)
REMARK    1  A    between atoms: C_3  and  O_78 
REMARK    2  A    between atoms: C_5  and  O_77 
REMARK    3  A    between atoms: C_6  and  O_76 
REMARK    4  A    between atoms: C_7  and  O_15 
REMARK    5  A    between atoms: C_8  and  C_17 
REMARK    6  A    between atoms: C_9  and  O_13 
REMARK    7  A    between atoms: C_16  and  O_24 
REMARK    8  A    between atoms: C_18  and  O_22 
REMARK    9  A    between atoms: C_19  and  C_72 
REMARK   10  A    between atoms: C_20  and  O_23 
REMARK   11  A    between atoms: C_28  and  O_32 
REMARK   12  A    between atoms: C_30  and  O_33 
REMARK   13  A    between atoms: C_37  and  O_42 
REMARK   14  A    between atoms: C_39  and  O_43 
REMARK   15  A    between atoms: C_46  and  O_67 
REMARK   16  A    between atoms: C_48  and  O_65 
REMARK   17  A    between atoms: C_49  and  C_52 
REMARK   18  A    between atoms: C_50  and  O_66 
REMARK   19  A    between atoms: C_52  and  O_60 
REMARK   20  A    between atoms: C_54  and  O_60 
REMARK   21  A    between atoms: C_72  and  O_73 
ROOT
HETATM    1  C   UNK     0      19.997  40.108  19.024  0.00  0.00     0.058 A 
HETATM    2  C   UNK     0      20.546  38.988  19.631  0.00  0.00     0.060 A 
HETATM    3  C   UNK     0      20.604  41.345  19.139  0.00  0.00     0.102 A 
HETATM    4  C   UNK     0      21.731  39.107  20.370  0.00  0.00     0.127 A 
HETATM    5  C   UNK     0      21.773  41.469  19.865  0.00  0.00     0.135 A 
HETATM    6  C   UNK     0      22.329  40.357  20.472  0.00  0.00     0.137 A 
HETATM    7  C   UNK     0      23.365  34.664  21.808  0.00  0.00     0.114 A 
HETATM    8  C   UNK     0      22.232  33.926  21.475  0.00  0.00     0.030 A 
HETATM    9  C   UNK     0      23.411  36.041  21.656  0.00  0.00     0.134 A 
HETATM   10  C   UNK     0      21.126  34.623  20.974  0.00  0.00     0.059 A 
HETATM   11  C   UNK     0      22.316  36.725  21.163  0.00  0.00     0.116 A 
HETATM   12  C   UNK     0      21.192  35.998  20.833  0.00  0.00     0.329 A 
HETATM   13  O   UNK     0      22.384  38.093  21.041  0.00  0.00    -0.304 OA
HETATM   14  C   UNK     0      19.851  34.023  20.564  0.00  0.00     0.295 C 
HETATM   15  C   UNK     0      16.481  26.841  18.700  0.00  0.00     0.026 A 
HETATM   16  C   UNK     0      16.256  28.213  18.624  0.00  0.00     0.006 A 
HETATM   17  C   UNK     0      17.535  26.310  19.420  0.00  0.00     0.111 A 
HETATM   18  C   UNK     0      17.148  29.061  19.306  0.00  0.00     0.054 A 
HETATM   19  C   UNK     0      18.404  27.150  20.084  0.00  0.00     0.100 A 
HETATM   20  C   UNK     0      18.205  28.516  20.023  0.00  0.00     0.058 A 
HETATM   21  O   UNK     0      15.632  25.996  18.054  0.00  0.00     0.000 OA
HETATM   22  C   UNK     0      14.039  27.608  17.723  0.00  0.00     0.026 A 
HETATM   23  C   UNK     0      15.019  28.596  17.805  0.00  0.00     0.006 A 
HETATM   24  C   UNK     0      12.878  27.787  16.992  0.00  0.00     0.111 A 
HETATM   25  C   UNK     0      14.786  29.796  17.118  0.00  0.00     0.054 A 
HETATM   26  C   UNK     0      12.666  28.973  16.318  0.00  0.00     0.100 A 
HETATM   27  C   UNK     0      13.620  29.968  16.386  0.00  0.00     0.058 A 
HETATM   28  C   UNK     0      15.708  30.921  17.099  0.00  0.00     0.294 C 
HETATM   29  O   UNK     0      14.232  26.431  18.376  0.00  0.00     0.000 OA
HETATM   30  O   UNK     0      16.704  30.866  16.414  0.00  0.00    -0.259 OA
HETATM   31  C   UNK     0      15.979  34.401  17.994  0.00  0.00     0.302 C 
HETATM   32  C   UNK     0      16.480  33.005  17.717  0.00  0.00     0.220 C 
HETATM   33  O   UNK     0      17.050  35.323  17.752  0.00  0.00    -0.348 OA
HETATM   34  C   UNK     0      17.546  32.709  18.718  0.00  0.00     0.198 C 
HETATM   35  C   UNK     0      18.279  35.113  18.478  0.00  0.00     0.181 C 
HETATM   36  C   UNK     0      18.732  33.612  18.408  0.00  0.00     0.195 C 
HETATM   37  C   UNK     0      19.381  35.986  17.860  0.00  0.00     0.212 C 
HETATM   38  O   UNK     0      17.896  31.334  18.640  0.00  0.00    -0.306 OA
HETATM   39  O   UNK     0      19.777  33.384  19.358  0.00  0.00    -0.307 OA
HETATM   40  O   UNK     0      15.448  32.045  17.826  0.00  0.00    -0.304 OA
HETATM   41  O   UNK     0      19.320  37.353  18.253  0.00  0.00    -0.328 OA
HETATM   42  C   UNK     0      17.050  30.526  19.354  0.00  0.00     0.294 C 
HETATM   43  O   UNK     0      16.220  31.038  20.069  0.00  0.00    -0.259 OA
HETATM   44  O   UNK     0      18.864  34.144  21.253  0.00  0.00    -0.259 OA
HETATM   45  C   UNK     0      19.836  37.716  19.458  0.00  0.00     0.179 C 
HETATM   46  O   UNK     0      19.743  36.958  20.397  0.00  0.00    -0.383 OA
HETATM   47  H   UNK     0      15.777  24.996  18.105  0.00  0.00     0.000 HD
HETATM   48  H   UNK     0      13.532  25.701  18.320  0.00  0.00     0.000 HD
ENDROOT
BRANCH   3  49
HETATM   49  O   UNK     0      20.054  42.436  18.542  0.00  0.00    -0.358 OA
HETATM   50  H   UNK     0      19.234  42.874  18.943  0.00  0.00     0.217 HD
ENDBRANCH   3  49
BRANCH   5  51
HETATM   51  O   UNK     0      22.376  42.684  19.983  0.00  0.00    -0.356 OA
HETATM   52  H   UNK     0      21.992  43.488  19.501  0.00  0.00     0.218 HD
ENDBRANCH   5  51
BRANCH   6  53
HETATM   53  O   UNK     0      23.480  40.490  21.187  0.00  0.00    -0.356 OA
HETATM   54  H   UNK     0      24.063  41.307  21.060  0.00  0.00     0.218 HD
ENDBRANCH   6  53
BRANCH   9  55
HETATM   55  O   UNK     0      24.536  36.721  22.006  0.00  0.00    -0.356 OA
HETATM   56  H   UNK     0      24.827  36.754  22.975  0.00  0.00     0.218 HD
ENDBRANCH   9  55
BRANCH   7  57
HETATM   57  O   UNK     0      24.451  34.016  22.309  0.00  0.00    -0.357 OA
HETATM   58  H   UNK     0      24.540  33.876  23.308  0.00  0.00     0.217 HD
ENDBRANCH   7  57
BRANCH   8  59
HETATM   59  C   UNK     0      22.331  32.431  21.733  0.00  0.00     0.023 A 
HETATM   60  C   UNK     0      22.150  32.048  23.058  0.00  0.00     0.113 A 
HETATM   61  C   UNK     0      22.219  30.722  23.447  0.00  0.00     0.133 A 
HETATM   62  C   UNK     0      22.469  29.743  22.506  0.00  0.00     0.102 A 
HETATM   63  C   UNK     0      22.659  30.102  21.185  0.00  0.00     0.049 A 
HETATM   64  C   UNK     0      22.598  31.431  20.789  0.00  0.00    -0.018 A 
BRANCH  60  65
HETATM   65  O   UNK     0      21.908  33.003  23.996  0.00  0.00    -0.357 OA
HETATM   66  H   UNK     0      21.040  33.523  23.977  0.00  0.00     0.217 HD
ENDBRANCH  60  65
BRANCH  61  67
HETATM   67  O   UNK     0      22.044  30.384  24.752  0.00  0.00    -0.356 OA
HETATM   68  H   UNK     0      22.765  29.873  25.244  0.00  0.00     0.218 HD
ENDBRANCH  61  67
BRANCH  62  69
HETATM   69  O   UNK     0      22.534  28.437  22.880  0.00  0.00    -0.358 OA
HETATM   70  H   UNK     0      23.428  28.017  23.099  0.00  0.00     0.217 HD
ENDBRANCH  62  69
BRANCH  64  71
HETATM   71  C   UNK     0      22.840  31.700  19.330  0.00  0.00     0.203 C 
BRANCH  71  72
HETATM   72  O   UNK     0      21.696  31.281  18.599  0.00  0.00    -0.396 OA
HETATM   73  H   UNK     0      21.752  30.474  17.990  0.00  0.00     0.209 HD
ENDBRANCH  71  72
ENDBRANCH  64  71
ENDBRANCH   8  59
BRANCH  31  74
HETATM   74  O   UNK     0      14.884  34.700  17.141  0.00  0.00    -0.283 OA
BRANCH  74  75
HETATM   75  C   UNK     0      13.668  34.886  17.713  0.00  0.00     0.295 C 
HETATM   76  O   UNK     0      13.466  35.880  18.371  0.00  0.00    -0.259 OA
BRANCH  75  77
HETATM   77  C   UNK     0      12.596  33.898  17.536  0.00  0.00     0.045 A 
HETATM   78  C   UNK     0      12.129  33.168  18.618  0.00  0.00     0.057 A 
HETATM   79  C   UNK     0      11.121  32.233  18.438  0.00  0.00     0.102 A 
HETATM   80  C   UNK     0      10.583  32.027  17.177  0.00  0.00     0.132 A 
HETATM   81  C   UNK     0      11.049  32.758  16.096  0.00  0.00     0.102 A 
HETATM   82  C   UNK     0      12.054  33.694  16.277  0.00  0.00     0.057 A 
BRANCH  79  83
HETATM   83  O   UNK     0      10.659  31.515  19.498  0.00  0.00    -0.358 OA
HETATM   84  H   UNK     0      10.331  31.992  20.328  0.00  0.00     0.217 HD
ENDBRANCH  79  83
BRANCH  80  85
HETATM   85  O   UNK     0       9.599  31.104  16.999  0.00  0.00    -0.356 OA
HETATM   86  H   UNK     0       9.141  31.020  16.100  0.00  0.00     0.218 HD
ENDBRANCH  80  85
BRANCH  81  87
HETATM   87  O   UNK     0      10.524  32.554  14.860  0.00  0.00    -0.358 OA
HETATM   88  H   UNK     0       9.944  31.744  14.684  0.00  0.00     0.217 HD
ENDBRANCH  81  87
ENDBRANCH  75  77
ENDBRANCH  74  75
ENDBRANCH  31  74
BRANCH  19  89
HETATM   89  O   UNK     0      19.442  26.634  20.795  0.00  0.00    -0.358 OA
HETATM   90  H   UNK     0      20.137  26.061  20.333  0.00  0.00     0.217 HD
ENDBRANCH  19  89
BRANCH  26  91
HETATM   91  O   UNK     0      11.531  29.156  15.591  0.00  0.00    -0.358 OA
HETATM   92  H   UNK     0      11.065  28.362  15.173  0.00  0.00     0.217 HD
ENDBRANCH  26  91
BRANCH  17  93
HETATM   93  O   UNK     0      17.714  24.962  19.476  0.00  0.00    -0.357 OA
HETATM   94  H   UNK     0      17.026  24.379  19.937  0.00  0.00     0.217 HD
ENDBRANCH  17  93
BRANCH  24  95
HETATM   95  O   UNK     0      11.948  26.795  16.930  0.00  0.00    -0.357 OA
HETATM   96  H   UNK     0      12.140  25.955  16.401  0.00  0.00     0.217 HD
ENDBRANCH  24  95
TORSDOF 21
