REMARK VINA RESULT:      -7.8     10.505     17.366
REMARK  21 active torsions:
REMARK  status: ('A' for Active; 'I' for Inactive)
REMARK    1  A    between atoms: C_3  and  O_78 
REMARK    2  A    between atoms: C_5  and  O_77 
REMARK    3  A    between atoms: C_6  and  O_76 
REMARK    4  A    between atoms: C_7  and  O_15 
REMARK    5  A    between atoms: C_8  and  C_17 
REMARK    6  A    between atoms: C_9  and  O_13 
REMARK    7  A    between atoms: C_16  and  O_24 
REMARK    8  A    between atoms: C_18  and  O_22 
REMARK    9  A    between atoms: C_19  and  C_72 
REMARK   10  A    between atoms: C_20  and  O_23 
REMARK   11  A    between atoms: C_28  and  O_32 
REMARK   12  A    between atoms: C_30  and  O_33 
REMARK   13  A    between atoms: C_37  and  O_42 
REMARK   14  A    between atoms: C_39  and  O_43 
REMARK   15  A    between atoms: C_46  and  O_67 
REMARK   16  A    between atoms: C_48  and  O_65 
REMARK   17  A    between atoms: C_49  and  C_52 
REMARK   18  A    between atoms: C_50  and  O_66 
REMARK   19  A    between atoms: C_52  and  O_60 
REMARK   20  A    between atoms: C_54  and  O_60 
REMARK   21  A    between atoms: C_72  and  O_73 
ROOT
HETATM    1  C   UNK     0      17.728  22.010  16.664  0.00  0.00     0.058 A 
HETATM    2  C   UNK     0      16.815  23.040  16.485  0.00  0.00     0.060 A 
HETATM    3  C   UNK     0      18.369  21.835  17.877  0.00  0.00     0.102 A 
HETATM    4  C   UNK     0      16.536  23.914  17.545  0.00  0.00     0.127 A 
HETATM    5  C   UNK     0      18.097  22.693  18.925  0.00  0.00     0.135 A 
HETATM    6  C   UNK     0      17.187  23.722  18.756  0.00  0.00     0.137 A 
HETATM    7  C   UNK     0      12.849  26.994  16.361  0.00  0.00     0.114 A 
HETATM    8  C   UNK     0      12.787  26.706  15.000  0.00  0.00     0.030 A 
HETATM    9  C   UNK     0      13.801  26.418  17.187  0.00  0.00     0.134 A 
HETATM   10  C   UNK     0      13.725  25.803  14.483  0.00  0.00     0.059 A 
HETATM   11  C   UNK     0      14.726  25.530  16.672  0.00  0.00     0.116 A 
HETATM   12  C   UNK     0      14.669  25.242  15.325  0.00  0.00     0.329 A 
HETATM   13  O   UNK     0      15.670  24.989  17.514  0.00  0.00    -0.304 OA
HETATM   14  C   UNK     0      13.816  25.372  13.083  0.00  0.00     0.295 C 
HETATM   15  C   UNK     0       9.562  25.311   6.133  0.00  0.00     0.026 A 
HETATM   16  C   UNK     0      10.686  24.755   6.738  0.00  0.00     0.006 A 
HETATM   17  C   UNK     0       8.858  26.352   6.709  0.00  0.00     0.111 A 
HETATM   18  C   UNK     0      11.092  25.285   7.976  0.00  0.00     0.054 A 
HETATM   19  C   UNK     0       9.265  26.864   7.924  0.00  0.00     0.100 A 
HETATM   20  C   UNK     0      10.376  26.329   8.547  0.00  0.00     0.058 A 
HETATM   21  O   UNK     0       9.149  24.821   4.932  0.00  0.00     0.000 OA
HETATM   22  C   UNK     0      11.102  23.688   4.551  0.00  0.00     0.026 A 
HETATM   23  C   UNK     0      11.341  23.634   5.923  0.00  0.00     0.006 A 
HETATM   24  C   UNK     0      11.595  22.729   3.683  0.00  0.00     0.111 A 
HETATM   25  C   UNK     0      12.112  22.566   6.403  0.00  0.00     0.054 A 
HETATM   26  C   UNK     0      12.349  21.682   4.173  0.00  0.00     0.100 A 
HETATM   27  C   UNK     0      12.602  21.608   5.528  0.00  0.00     0.058 A 
HETATM   28  C   UNK     0      12.447  22.362   7.804  0.00  0.00     0.294 C 
HETATM   29  O   UNK     0      10.357  24.710   4.050  0.00  0.00     0.000 OA
HETATM   30  O   UNK     0      11.607  21.937   8.564  0.00  0.00    -0.259 OA
HETATM   31  C   UNK     0      15.246  22.122  10.060  0.00  0.00     0.302 C 
HETATM   32  C   UNK     0      13.822  22.412   9.655  0.00  0.00     0.220 C 
HETATM   33  O   UNK     0      15.265  21.807  11.459  0.00  0.00    -0.348 OA
HETATM   34  C   UNK     0      13.394  23.641  10.386  0.00  0.00     0.198 C 
HETATM   35  C   UNK     0      14.710  22.784  12.364  0.00  0.00     0.181 C 
HETATM   36  C   UNK     0      13.310  23.291  11.866  0.00  0.00     0.195 C 
HETATM   37  C   UNK     0      14.533  22.142  13.748  0.00  0.00     0.212 C 
HETATM   38  O   UNK     0      12.142  24.079   9.877  0.00  0.00    -0.306 OA
HETATM   39  O   UNK     0      12.925  24.445  12.617  0.00  0.00    -0.307 OA
HETATM   40  O   UNK     0      13.704  22.624   8.263  0.00  0.00    -0.304 OA
HETATM   41  O   UNK     0      15.740  22.054  14.498  0.00  0.00    -0.328 OA
HETATM   42  C   UNK     0      12.263  24.838   8.743  0.00  0.00     0.294 C 
HETATM   43  O   UNK     0      13.366  25.176   8.382  0.00  0.00    -0.259 OA
HETATM   44  O   UNK     0      14.701  25.782  12.369  0.00  0.00    -0.259 OA
HETATM   45  C   UNK     0      16.182  23.153  15.166  0.00  0.00     0.179 C 
HETATM   46  O   UNK     0      16.015  24.250  14.682  0.00  0.00    -0.383 OA
HETATM   47  H   UNK     0       8.338  25.218   4.475  0.00  0.00     0.000 HD
HETATM   48  H   UNK     0      10.170  24.759   3.056  0.00  0.00     0.000 HD
ENDROOT
BRANCH   3  49
HETATM   49  O   UNK     0      19.264  20.824  18.038  0.00  0.00    -0.358 OA
HETATM   50  H   UNK     0      20.234  20.960  17.779  0.00  0.00     0.217 HD
ENDBRANCH   3  49
BRANCH   5  51
HETATM   51  O   UNK     0      18.725  22.527  20.121  0.00  0.00    -0.356 OA
HETATM   52  H   UNK     0      19.215  21.664  20.319  0.00  0.00     0.218 HD
ENDBRANCH   5  51
BRANCH   6  53
HETATM   53  O   UNK     0      16.928  24.562  19.795  0.00  0.00    -0.356 OA
HETATM   54  H   UNK     0      17.676  25.105  20.206  0.00  0.00     0.218 HD
ENDBRANCH   6  53
BRANCH   9  55
HETATM   55  O   UNK     0      13.829  26.740  18.509  0.00  0.00    -0.356 OA
HETATM   56  H   UNK     0      13.218  26.263  19.160  0.00  0.00     0.218 HD
ENDBRANCH   9  55
BRANCH   7  57
HETATM   57  O   UNK     0      11.958  27.876  16.890  0.00  0.00    -0.357 OA
HETATM   58  H   UNK     0      12.241  28.831  17.071  0.00  0.00     0.217 HD
ENDBRANCH   7  57
BRANCH   8  59
HETATM   59  C   UNK     0      11.707  27.446  14.226  0.00  0.00     0.023 A 
HETATM   60  C   UNK     0      10.555  26.710  13.971  0.00  0.00     0.113 A 
HETATM   61  C   UNK     0       9.490  27.248  13.271  0.00  0.00     0.133 A 
HETATM   62  C   UNK     0       9.556  28.548  12.813  0.00  0.00     0.102 A 
HETATM   63  C   UNK     0      10.695  29.296  13.049  0.00  0.00     0.049 A 
HETATM   64  C   UNK     0      11.770  28.760  13.745  0.00  0.00    -0.018 A 
BRANCH  60  65
HETATM   65  O   UNK     0      10.478  25.425  14.413  0.00  0.00    -0.357 OA
HETATM   66  H   UNK     0       9.768  25.162  15.082  0.00  0.00     0.217 HD
ENDBRANCH  60  65
BRANCH  61  67
HETATM   67  O   UNK     0       8.382  26.497  13.033  0.00  0.00    -0.356 OA
HETATM   68  H   UNK     0       7.475  26.940  12.962  0.00  0.00     0.218 HD
ENDBRANCH  61  67
BRANCH  62  69
HETATM   69  O   UNK     0       8.511  29.086  12.128  0.00  0.00    -0.358 OA
HETATM   70  H   UNK     0       8.257  28.717  11.221  0.00  0.00     0.217 HD
ENDBRANCH  62  69
BRANCH  64  71
HETATM   71  C   UNK     0      12.959  29.661  13.924  0.00  0.00     0.203 C 
BRANCH  71  72
HETATM   72  O   UNK     0      12.856  30.298  15.190  0.00  0.00    -0.396 OA
HETATM   73  H   UNK     0      12.857  29.744  16.037  0.00  0.00     0.209 HD
ENDBRANCH  71  72
ENDBRANCH  64  71
ENDBRANCH   8  59
BRANCH  31  74
HETATM   74  O   UNK     0      15.748  21.025   9.312  0.00  0.00    -0.283 OA
BRANCH  74  75
HETATM   75  C   UNK     0      16.786  21.255   8.470  0.00  0.00     0.295 C 
HETATM   76  O   UNK     0      17.906  20.952   8.808  0.00  0.00    -0.259 OA
BRANCH  75  77
HETATM   77  C   UNK     0      16.562  21.861   7.150  0.00  0.00     0.045 A 
HETATM   78  C   UNK     0      16.638  23.235   6.987  0.00  0.00     0.057 A 
HETATM   79  C   UNK     0      16.418  23.796   5.738  0.00  0.00     0.102 A 
HETATM   80  C   UNK     0      16.119  22.985   4.655  0.00  0.00     0.132 A 
HETATM   81  C   UNK     0      16.045  21.611   4.819  0.00  0.00     0.102 A 
HETATM   82  C   UNK     0      16.268  21.049   6.065  0.00  0.00     0.057 A 
BRANCH  79  83
HETATM   83  O   UNK     0      16.494  25.146   5.574  0.00  0.00    -0.358 OA
HETATM   84  H   UNK     0      17.358  25.632   5.773  0.00  0.00     0.217 HD
ENDBRANCH  79  83
BRANCH  80  85
HETATM   85  O   UNK     0      15.896  23.536   3.432  0.00  0.00    -0.356 OA
HETATM   86  H   UNK     0      15.204  23.132   2.813  0.00  0.00     0.218 HD
ENDBRANCH  80  85
BRANCH  81  87
HETATM   87  O   UNK     0      15.749  20.815   3.758  0.00  0.00    -0.358 OA
HETATM   88  H   UNK     0      16.307  19.991   3.572  0.00  0.00     0.217 HD
ENDBRANCH  81  87
ENDBRANCH  75  77
ENDBRANCH  74  75
ENDBRANCH  31  74
BRANCH  19  89
HETATM   89  O   UNK     0       8.578  27.889   8.496  0.00  0.00    -0.358 OA
HETATM   90  H   UNK     0       8.606  28.019   9.499  0.00  0.00     0.217 HD
ENDBRANCH  19  89
BRANCH  26  91
HETATM   91  O   UNK     0      12.832  20.730   3.330  0.00  0.00    -0.358 OA
HETATM   92  H   UNK     0      13.597  20.137   3.622  0.00  0.00     0.217 HD
ENDBRANCH  26  91
BRANCH  17  93
HETATM   93  O   UNK     0       7.770  26.873   6.080  0.00  0.00    -0.357 OA
HETATM   94  H   UNK     0       6.896  26.362   6.073  0.00  0.00     0.217 HD
ENDBRANCH  17  93
BRANCH  24  95
HETATM   95  O   UNK     0      11.334  22.813   2.350  0.00  0.00    -0.357 OA
HETATM   96  H   UNK     0      11.039  23.693   1.947  0.00  0.00     0.217 HD
ENDBRANCH  24  95
TORSDOF 21
