REMARK VINA RESULT:      -7.7     24.573     27.924
REMARK  21 active torsions:
REMARK  status: ('A' for Active; 'I' for Inactive)
REMARK    1  A    between atoms: C_3  and  O_78 
REMARK    2  A    between atoms: C_5  and  O_77 
REMARK    3  A    between atoms: C_6  and  O_76 
REMARK    4  A    between atoms: C_7  and  O_15 
REMARK    5  A    between atoms: C_8  and  C_17 
REMARK    6  A    between atoms: C_9  and  O_13 
REMARK    7  A    between atoms: C_16  and  O_24 
REMARK    8  A    between atoms: C_18  and  O_22 
REMARK    9  A    between atoms: C_19  and  C_72 
REMARK   10  A    between atoms: C_20  and  O_23 
REMARK   11  A    between atoms: C_28  and  O_32 
REMARK   12  A    between atoms: C_30  and  O_33 
REMARK   13  A    between atoms: C_37  and  O_42 
REMARK   14  A    between atoms: C_39  and  O_43 
REMARK   15  A    between atoms: C_46  and  O_67 
REMARK   16  A    between atoms: C_48  and  O_65 
REMARK   17  A    between atoms: C_49  and  C_52 
REMARK   18  A    between atoms: C_50  and  O_66 
REMARK   19  A    between atoms: C_52  and  O_60 
REMARK   20  A    between atoms: C_54  and  O_60 
REMARK   21  A    between atoms: C_72  and  O_73 
ROOT
HETATM    1  C   UNK     0      11.120  58.809  11.624  0.00  0.00     0.058 A 
HETATM    2  C   UNK     0      10.900  58.029  10.499  0.00  0.00     0.060 A 
HETATM    3  C   UNK     0      12.357  59.382  11.859  0.00  0.00     0.102 A 
HETATM    4  C   UNK     0      11.942  57.817   9.584  0.00  0.00     0.127 A 
HETATM    5  C   UNK     0      13.387  59.178  10.961  0.00  0.00     0.135 A 
HETATM    6  C   UNK     0      13.176  58.402   9.834  0.00  0.00     0.137 A 
HETATM    7  C   UNK     0      10.315  55.385   5.594  0.00  0.00     0.114 A 
HETATM    8  C   UNK     0       9.063  55.024   6.086  0.00  0.00     0.030 A 
HETATM    9  C   UNK     0      11.239  56.063   6.374  0.00  0.00     0.134 A 
HETATM   10  C   UNK     0       8.760  55.371   7.409  0.00  0.00     0.059 A 
HETATM   11  C   UNK     0      10.936  56.401   7.679  0.00  0.00     0.116 A 
HETATM   12  C   UNK     0       9.698  56.044   8.171  0.00  0.00     0.329 A 
HETATM   13  O   UNK     0      11.880  57.055   8.434  0.00  0.00    -0.304 OA
HETATM   14  C   UNK     0       7.497  55.084   8.100  0.00  0.00     0.295 C 
HETATM   15  C   UNK     0      -0.204  52.842   6.660  0.00  0.00     0.026 A 
HETATM   16  C   UNK     0       0.621  53.365   7.653  0.00  0.00     0.006 A 
HETATM   17  C   UNK     0       0.300  52.355   5.469  0.00  0.00     0.111 A 
HETATM   18  C   UNK     0       2.006  53.389   7.406  0.00  0.00     0.054 A 
HETATM   19  C   UNK     0       1.660  52.384   5.238  0.00  0.00     0.100 A 
HETATM   20  C   UNK     0       2.501  52.899   6.205  0.00  0.00     0.058 A 
HETATM   21  O   UNK     0      -1.548  52.802   6.873  0.00  0.00     0.000 OA
HETATM   22  C   UNK     0      -1.358  53.197   9.120  0.00  0.00     0.026 A 
HETATM   23  C   UNK     0      -0.130  53.823   8.908  0.00  0.00     0.006 A 
HETATM   24  C   UNK     0      -2.171  53.525  10.190  0.00  0.00     0.111 A 
HETATM   25  C   UNK     0       0.263  54.804   9.829  0.00  0.00     0.054 A 
HETATM   26  C   UNK     0      -1.771  54.497  11.085  0.00  0.00     0.100 A 
HETATM   27  C   UNK     0      -0.558  55.128  10.899  0.00  0.00     0.058 A 
HETATM   28  C   UNK     0       1.508  55.551   9.748  0.00  0.00     0.294 C 
HETATM   29  O   UNK     0      -1.771  52.241   8.246  0.00  0.00     0.000 OA
HETATM   30  O   UNK     0       1.620  56.443   8.937  0.00  0.00    -0.259 OA
HETATM   31  C   UNK     0       4.562  56.206  11.545  0.00  0.00     0.302 C 
HETATM   32  C   UNK     0       3.680  56.068  10.329  0.00  0.00     0.220 C 
HETATM   33  O   UNK     0       5.626  57.116  11.233  0.00  0.00    -0.348 OA
HETATM   34  C   UNK     0       4.499  55.432   9.256  0.00  0.00     0.198 C 
HETATM   35  C   UNK     0       6.449  56.802  10.090  0.00  0.00     0.181 C 
HETATM   36  C   UNK     0       5.573  56.430   8.842  0.00  0.00     0.195 C 
HETATM   37  C   UNK     0       7.305  58.028   9.738  0.00  0.00     0.212 C 
HETATM   38  O   UNK     0       3.657  55.082   8.166  0.00  0.00    -0.306 OA
HETATM   39  O   UNK     0       6.403  55.857   7.829  0.00  0.00    -0.307 OA
HETATM   40  O   UNK     0       2.543  55.272  10.592  0.00  0.00    -0.304 OA
HETATM   41  O   UNK     0       8.442  58.195  10.577  0.00  0.00    -0.328 OA
HETATM   42  C   UNK     0       3.022  53.881   8.347  0.00  0.00     0.294 C 
HETATM   43  O   UNK     0       3.332  53.193   9.291  0.00  0.00    -0.259 OA
HETATM   44  O   UNK     0       7.440  54.217   8.942  0.00  0.00    -0.259 OA
HETATM   45  C   UNK     0       9.559  57.459  10.329  0.00  0.00     0.179 C 
HETATM   46  O   UNK     0       9.444  56.325   9.922  0.00  0.00    -0.383 OA
HETATM   47  H   UNK     0      -2.161  52.419   6.164  0.00  0.00     0.000 HD
HETATM   48  H   UNK     0      -2.664  51.783   8.383  0.00  0.00     0.000 HD
ENDROOT
BRANCH   3  49
HETATM   49  O   UNK     0      12.561  60.142  12.968  0.00  0.00    -0.358 OA
HETATM   50  H   UNK     0      13.336  60.791  13.002  0.00  0.00     0.217 HD
ENDBRANCH   3  49
BRANCH   5  51
HETATM   51  O   UNK     0      14.607  59.738  11.186  0.00  0.00    -0.356 OA
HETATM   52  H   UNK     0      15.424  59.148  11.278  0.00  0.00     0.218 HD
ENDBRANCH   5  51
BRANCH   6  53
HETATM   53  O   UNK     0      14.198  58.206   8.957  0.00  0.00    -0.356 OA
HETATM   54  H   UNK     0      15.104  58.619   9.134  0.00  0.00     0.218 HD
ENDBRANCH   6  53
BRANCH   9  55
HETATM   55  O   UNK     0      12.454  56.384   5.853  0.00  0.00    -0.356 OA
HETATM   56  H   UNK     0      12.516  56.802   4.933  0.00  0.00     0.218 HD
ENDBRANCH   9  55
BRANCH   7  57
HETATM   57  O   UNK     0      10.643  55.052   4.317  0.00  0.00    -0.357 OA
HETATM   58  H   UNK     0      11.603  54.829   4.084  0.00  0.00     0.217 HD
ENDBRANCH   7  57
BRANCH   8  59
HETATM   59  C   UNK     0       8.179  54.257   5.116  0.00  0.00     0.023 A 
HETATM   60  C   UNK     0       7.532  55.037   4.163  0.00  0.00     0.113 A 
HETATM   61  C   UNK     0       6.690  54.479   3.218  0.00  0.00     0.133 A 
HETATM   62  C   UNK     0       6.480  53.115   3.206  0.00  0.00     0.102 A 
HETATM   63  C   UNK     0       7.107  52.321   4.147  0.00  0.00     0.049 A 
HETATM   64  C   UNK     0       7.949  52.875   5.102  0.00  0.00    -0.018 A 
BRANCH  60  65
HETATM   65  O   UNK     0       7.727  56.384   4.168  0.00  0.00    -0.357 OA
HETATM   66  H   UNK     0       6.945  57.008   4.022  0.00  0.00     0.217 HD
ENDBRANCH  60  65
BRANCH  61  67
HETATM   67  O   UNK     0       6.068  55.273   2.307  0.00  0.00    -0.356 OA
HETATM   68  H   UNK     0       5.180  55.703   2.532  0.00  0.00     0.218 HD
ENDBRANCH  61  67
BRANCH  62  69
HETATM   69  O   UNK     0       5.657  52.559   2.277  0.00  0.00    -0.358 OA
HETATM   70  H   UNK     0       5.881  52.631   1.293  0.00  0.00     0.217 HD
ENDBRANCH  62  69
BRANCH  64  71
HETATM   71  C   UNK     0       8.558  51.915   6.085  0.00  0.00     0.203 C 
BRANCH  71  72
HETATM   72  O   UNK     0       8.292  50.590   5.645  0.00  0.00    -0.396 OA
HETATM   73  H   UNK     0       7.506  50.078   6.025  0.00  0.00     0.209 HD
ENDBRANCH  71  72
ENDBRANCH  64  71
ENDBRANCH   8  59
BRANCH  31  74
HETATM   74  O   UNK     0       3.806  56.706  12.638  0.00  0.00    -0.283 OA
BRANCH  74  75
HETATM   75  C   UNK     0       3.972  56.115  13.847  0.00  0.00     0.295 C 
HETATM   76  O   UNK     0       5.089  55.921  14.266  0.00  0.00    -0.259 OA
BRANCH  75  77
HETATM   77  C   UNK     0       2.811  55.715  14.653  0.00  0.00     0.045 A 
HETATM   78  C   UNK     0       1.532  55.783  14.123  0.00  0.00     0.057 A 
HETATM   79  C   UNK     0       0.443  55.409  14.896  0.00  0.00     0.102 A 
HETATM   80  C   UNK     0       0.633  54.971  16.197  0.00  0.00     0.132 A 
HETATM   81  C   UNK     0       1.912  54.902  16.725  0.00  0.00     0.102 A 
HETATM   82  C   UNK     0       3.001  55.272  15.953  0.00  0.00     0.057 A 
BRANCH  79  83
HETATM   83  O   UNK     0      -0.814  55.473  14.379  0.00  0.00    -0.358 OA
HETATM   84  H   UNK     0      -0.956  55.387  13.381  0.00  0.00     0.217 HD
ENDBRANCH  79  83
BRANCH  80  85
HETATM   85  O   UNK     0      -0.436  54.611  16.957  0.00  0.00    -0.356 OA
HETATM   86  H   UNK     0      -0.552  55.002  17.884  0.00  0.00     0.218 HD
ENDBRANCH  80  85
BRANCH  81  87
HETATM   87  O   UNK     0       2.098  54.474  18.002  0.00  0.00    -0.358 OA
HETATM   88  H   UNK     0       3.000  54.118  18.290  0.00  0.00     0.217 HD
ENDBRANCH  81  87
ENDBRANCH  75  77
ENDBRANCH  74  75
ENDBRANCH  31  74
BRANCH  19  89
HETATM   89  O   UNK     0       2.163  51.904   4.069  0.00  0.00    -0.358 OA
HETATM   90  H   UNK     0       2.211  52.503   3.254  0.00  0.00     0.217 HD
ENDBRANCH  19  89
BRANCH  26  91
HETATM   91  O   UNK     0      -2.566  54.831  12.137  0.00  0.00    -0.358 OA
HETATM   92  H   UNK     0      -2.307  54.556  13.075  0.00  0.00     0.217 HD
ENDBRANCH  26  91
BRANCH  17  93
HETATM   93  O   UNK     0      -0.540  51.843   4.528  0.00  0.00    -0.357 OA
HETATM   94  H   UNK     0      -0.372  52.026   3.547  0.00  0.00     0.217 HD
ENDBRANCH  17  93
BRANCH  24  95
HETATM   95  O   UNK     0      -3.366  52.897  10.359  0.00  0.00    -0.357 OA
HETATM   96  H   UNK     0      -3.565  52.044   9.852  0.00  0.00     0.217 HD
ENDBRANCH  24  95
TORSDOF 21
