REMARK VINA RESULT:     -10.2      0.000      0.000
REMARK  21 active torsions:
REMARK  status: ('A' for Active; 'I' for Inactive)
REMARK    1  A    between atoms: C_3  and  O_78 
REMARK    2  A    between atoms: C_5  and  O_77 
REMARK    3  A    between atoms: C_6  and  O_76 
REMARK    4  A    between atoms: C_7  and  O_15 
REMARK    5  A    between atoms: C_8  and  C_17 
REMARK    6  A    between atoms: C_9  and  O_13 
REMARK    7  A    between atoms: C_16  and  O_24 
REMARK    8  A    between atoms: C_18  and  O_22 
REMARK    9  A    between atoms: C_19  and  C_72 
REMARK   10  A    between atoms: C_20  and  O_23 
REMARK   11  A    between atoms: C_28  and  O_32 
REMARK   12  A    between atoms: C_30  and  O_33 
REMARK   13  A    between atoms: C_37  and  O_42 
REMARK   14  A    between atoms: C_39  and  O_43 
REMARK   15  A    between atoms: C_46  and  O_67 
REMARK   16  A    between atoms: C_48  and  O_65 
REMARK   17  A    between atoms: C_49  and  C_52 
REMARK   18  A    between atoms: C_50  and  O_66 
REMARK   19  A    between atoms: C_52  and  O_60 
REMARK   20  A    between atoms: C_54  and  O_60 
REMARK   21  A    between atoms: C_72  and  O_73 
ROOT
HETATM    1  C   UNK     0      17.898  40.687  15.343  0.00  0.00     0.058 A 
HETATM    2  C   UNK     0      18.660  40.421  16.471  0.00  0.00     0.060 A 
HETATM    3  C   UNK     0      17.797  41.972  14.843  0.00  0.00     0.102 A 
HETATM    4  C   UNK     0      19.338  41.465  17.115  0.00  0.00     0.127 A 
HETATM    5  C   UNK     0      18.464  43.006  15.472  0.00  0.00     0.135 A 
HETATM    6  C   UNK     0      19.228  42.749  16.598  0.00  0.00     0.137 A 
HETATM    7  C   UNK     0      22.235  39.720  20.728  0.00  0.00     0.114 A 
HETATM    8  C   UNK     0      21.746  38.416  20.752  0.00  0.00     0.030 A 
HETATM    9  C   UNK     0      21.695  40.687  19.893  0.00  0.00     0.134 A 
HETATM   10  C   UNK     0      20.682  38.104  19.897  0.00  0.00     0.059 A 
HETATM   11  C   UNK     0      20.643  40.374  19.053  0.00  0.00     0.116 A 
HETATM   12  C   UNK     0      20.156  39.085  19.075  0.00  0.00     0.329 A 
HETATM   13  O   UNK     0      20.117  41.360  18.250  0.00  0.00    -0.304 OA
HETATM   14  C   UNK     0      20.039  36.791  19.777  0.00  0.00     0.295 C 
HETATM   15  C   UNK     0      21.150  28.941  21.663  0.00  0.00     0.026 A 
HETATM   16  C   UNK     0      20.364  29.782  20.880  0.00  0.00     0.006 A 
HETATM   17  C   UNK     0      22.023  29.431  22.616  0.00  0.00     0.111 A 
HETATM   18  C   UNK     0      20.487  31.169  21.083  0.00  0.00     0.054 A 
HETATM   19  C   UNK     0      22.136  30.792  22.807  0.00  0.00     0.100 A 
HETATM   20  C   UNK     0      21.370  31.650  22.041  0.00  0.00     0.058 A 
HETATM   21  O   UNK     0      21.048  27.595  21.493  0.00  0.00     0.000 OA
HETATM   22  C   UNK     0      19.108  27.742  20.284  0.00  0.00     0.026 A 
HETATM   23  C   UNK     0      19.440  29.042  19.906  0.00  0.00     0.006 A 
HETATM   24  C   UNK     0      18.311  26.931  19.495  0.00  0.00     0.111 A 
HETATM   25  C   UNK     0      18.928  29.512  18.688  0.00  0.00     0.054 A 
HETATM   26  C   UNK     0      17.819  27.408  18.297  0.00  0.00     0.100 A 
HETATM   27  C   UNK     0      18.131  28.693  17.903  0.00  0.00     0.058 A 
HETATM   28  C   UNK     0      19.184  30.839  18.151  0.00  0.00     0.294 C 
HETATM   29  O   UNK     0      19.587  27.253  21.459  0.00  0.00     0.000 OA
HETATM   30  O   UNK     0      20.259  31.087  17.654  0.00  0.00    -0.259 OA
HETATM   31  C   UNK     0      17.524  33.876  17.146  0.00  0.00     0.302 C 
HETATM   32  C   UNK     0      18.666  33.032  17.657  0.00  0.00     0.220 C 
HETATM   33  O   UNK     0      18.068  35.051  16.531  0.00  0.00    -0.348 OA
HETATM   34  C   UNK     0      19.348  33.812  18.731  0.00  0.00     0.198 C 
HETATM   35  C   UNK     0      18.937  35.875  17.336  0.00  0.00     0.181 C 
HETATM   36  C   UNK     0      20.019  35.011  18.074  0.00  0.00     0.195 C 
HETATM   37  C   UNK     0      19.655  36.883  16.426  0.00  0.00     0.212 C 
HETATM   38  O   UNK     0      20.290  32.977  19.392  0.00  0.00    -0.306 OA
HETATM   39  O   UNK     0      20.670  35.807  19.068  0.00  0.00    -0.307 OA
HETATM   40  O   UNK     0      18.215  31.799  18.180  0.00  0.00    -0.304 OA
HETATM   41  O   UNK     0      18.851  37.998  16.057  0.00  0.00    -0.328 OA
HETATM   42  C   UNK     0      19.722  32.199  20.366  0.00  0.00     0.294 C 
HETATM   43  O   UNK     0      18.567  32.388  20.664  0.00  0.00    -0.259 OA
HETATM   44  O   UNK     0      18.940  36.598  20.245  0.00  0.00    -0.259 OA
HETATM   45  C   UNK     0      18.710  39.029  16.934  0.00  0.00     0.179 C 
HETATM   46  O   UNK     0      18.667  38.798  18.121  0.00  0.00    -0.383 OA
HETATM   47  H   UNK     0      21.607  26.969  22.058  0.00  0.00     0.000 HD
HETATM   48  H   UNK     0      19.360  26.308  21.744  0.00  0.00     0.000 HD
ENDROOT
BRANCH   3  49
HETATM   49  O   UNK     0      17.043  42.221  13.739  0.00  0.00    -0.358 OA
HETATM   50  H   UNK     0      16.075  41.927  13.710  0.00  0.00     0.217 HD
ENDBRANCH   3  49
BRANCH   5  51
HETATM   51  O   UNK     0      18.368  44.273  14.987  0.00  0.00    -0.356 OA
HETATM   52  H   UNK     0      17.715  44.482  14.243  0.00  0.00     0.218 HD
ENDBRANCH   5  51
BRANCH   6  53
HETATM   53  O   UNK     0      19.880  43.774  17.211  0.00  0.00    -0.356 OA
HETATM   54  H   UNK     0      20.632  44.254  16.734  0.00  0.00     0.218 HD
ENDBRANCH   6  53
BRANCH   9  55
HETATM   55  O   UNK     0      22.198  41.951  19.912  0.00  0.00    -0.356 OA
HETATM   56  H   UNK     0      21.593  42.734  20.127  0.00  0.00     0.218 HD
ENDBRANCH   9  55
BRANCH   7  57
HETATM   57  O   UNK     0      23.260  40.057  21.555  0.00  0.00    -0.357 OA
HETATM   58  H   UNK     0      24.192  39.708  21.372  0.00  0.00     0.217 HD
ENDBRANCH   7  57
BRANCH   8  59
HETATM   59  C   UNK     0      22.424  37.487  21.747  0.00  0.00     0.023 A 
HETATM   60  C   UNK     0      23.660  36.993  21.345  0.00  0.00     0.113 A 
HETATM   61  C   UNK     0      24.392  36.131  22.142  0.00  0.00     0.133 A 
HETATM   62  C   UNK     0      23.896  35.746  23.371  0.00  0.00     0.102 A 
HETATM   63  C   UNK     0      22.667  36.219  23.788  0.00  0.00     0.049 A 
HETATM   64  C   UNK     0      21.925  37.080  22.991  0.00  0.00    -0.018 A 
BRANCH  60  65
HETATM   65  O   UNK     0      24.158  37.361  20.133  0.00  0.00    -0.357 OA
HETATM   66  H   UNK     0      25.081  37.767  20.067  0.00  0.00     0.217 HD
ENDBRANCH  60  65
BRANCH  61  67
HETATM   67  O   UNK     0      25.593  35.661  21.714  0.00  0.00    -0.356 OA
HETATM   68  H   UNK     0      25.633  34.867  21.087  0.00  0.00     0.218 HD
ENDBRANCH  61  67
BRANCH  62  69
HETATM   69  O   UNK     0      24.612  34.902  24.162  0.00  0.00    -0.358 OA
HETATM   70  H   UNK     0      24.280  34.675  25.090  0.00  0.00     0.217 HD
ENDBRANCH  62  69
BRANCH  64  71
HETATM   71  C   UNK     0      20.595  37.512  23.542  0.00  0.00     0.203 C 
BRANCH  71  72
HETATM   72  O   UNK     0      19.624  36.533  23.196  0.00  0.00    -0.396 OA
HETATM   73  H   UNK     0      19.840  35.549  23.295  0.00  0.00     0.209 HD
ENDBRANCH  71  72
ENDBRANCH  64  71
ENDBRANCH   8  59
BRANCH  31  74
HETATM   74  O   UNK     0      16.766  33.142  16.196  0.00  0.00    -0.283 OA
BRANCH  74  75
HETATM   75  C   UNK     0      15.457  33.463  16.045  0.00  0.00     0.295 C 
HETATM   76  O   UNK     0      15.000  33.588  14.933  0.00  0.00    -0.259 OA
BRANCH  75  77
HETATM   77  C   UNK     0      14.590  33.653  17.216  0.00  0.00     0.045 A 
HETATM   78  C   UNK     0      13.945  34.862  17.422  0.00  0.00     0.057 A 
HETATM   79  C   UNK     0      13.135  35.032  18.535  0.00  0.00     0.102 A 
HETATM   80  C   UNK     0      12.973  33.995  19.440  0.00  0.00     0.132 A 
HETATM   81  C   UNK     0      13.618  32.786  19.233  0.00  0.00     0.102 A 
HETATM   82  C   UNK     0      14.424  32.615  18.120  0.00  0.00     0.057 A 
BRANCH  79  83
HETATM   83  O   UNK     0      12.498  36.217  18.740  0.00  0.00    -0.358 OA
HETATM   84  H   UNK     0      12.777  37.038  18.219  0.00  0.00     0.217 HD
ENDBRANCH  79  83
BRANCH  80  85
HETATM   85  O   UNK     0      12.184  34.164  20.535  0.00  0.00    -0.356 OA
HETATM   86  H   UNK     0      12.557  34.611  21.364  0.00  0.00     0.218 HD
ENDBRANCH  80  85
BRANCH  81  87
HETATM   87  O   UNK     0      13.461  31.771  20.122  0.00  0.00    -0.358 OA
HETATM   88  H   UNK     0      12.846  31.884  20.917  0.00  0.00     0.217 HD
ENDBRANCH  81  87
ENDBRANCH  75  77
ENDBRANCH  74  75
ENDBRANCH  31  74
BRANCH  19  89
HETATM   89  O   UNK     0      22.992  31.281  23.743  0.00  0.00    -0.358 OA
HETATM   90  H   UNK     0      23.288  32.248  23.704  0.00  0.00     0.217 HD
ENDBRANCH  19  89
BRANCH  26  91
HETATM   91  O   UNK     0      17.041  26.617  17.511  0.00  0.00    -0.358 OA
HETATM   92  H   UNK     0      17.005  25.619  17.675  0.00  0.00     0.217 HD
ENDBRANCH  26  91
BRANCH  17  93
HETATM   93  O   UNK     0      22.767  28.574  23.368  0.00  0.00    -0.357 OA
HETATM   94  H   UNK     0      22.648  27.574  23.262  0.00  0.00     0.217 HD
ENDBRANCH  17  93
BRANCH  24  95
HETATM   95  O   UNK     0      18.016  25.664  19.895  0.00  0.00    -0.357 OA
HETATM   96  H   UNK     0      17.459  25.513  20.726  0.00  0.00     0.217 HD
ENDBRANCH  24  95
TORSDOF 21
