REMARK VINA RESULT:      -7.6     15.329     21.795
REMARK  21 active torsions:
REMARK  status: ('A' for Active; 'I' for Inactive)
REMARK    1  A    between atoms: C_3  and  O_78 
REMARK    2  A    between atoms: C_5  and  O_77 
REMARK    3  A    between atoms: C_6  and  O_76 
REMARK    4  A    between atoms: C_7  and  O_15 
REMARK    5  A    between atoms: C_8  and  C_17 
REMARK    6  A    between atoms: C_9  and  O_13 
REMARK    7  A    between atoms: C_16  and  O_24 
REMARK    8  A    between atoms: C_18  and  O_22 
REMARK    9  A    between atoms: C_19  and  C_72 
REMARK   10  A    between atoms: C_20  and  O_23 
REMARK   11  A    between atoms: C_28  and  O_32 
REMARK   12  A    between atoms: C_30  and  O_33 
REMARK   13  A    between atoms: C_37  and  O_42 
REMARK   14  A    between atoms: C_39  and  O_43 
REMARK   15  A    between atoms: C_46  and  O_67 
REMARK   16  A    between atoms: C_48  and  O_65 
REMARK   17  A    between atoms: C_49  and  C_52 
REMARK   18  A    between atoms: C_50  and  O_66 
REMARK   19  A    between atoms: C_52  and  O_60 
REMARK   20  A    between atoms: C_54  and  O_60 
REMARK   21  A    between atoms: C_72  and  O_73 
ROOT
HETATM    1  C   UNK     0      -4.374  29.443  16.997  0.00  0.00     0.058 A 
HETATM    2  C   UNK     0      -3.226  29.396  16.221  0.00  0.00     0.060 A 
HETATM    3  C   UNK     0      -5.138  28.309  17.201  0.00  0.00     0.102 A 
HETATM    4  C   UNK     0      -2.831  28.186  15.634  0.00  0.00     0.127 A 
HETATM    5  C   UNK     0      -4.754  27.112  16.628  0.00  0.00     0.135 A 
HETATM    6  C   UNK     0      -3.608  27.056  15.852  0.00  0.00     0.137 A 
HETATM    7  C   UNK     0       1.583  28.645  13.446  0.00  0.00     0.114 A 
HETATM    8  C   UNK     0       1.687  30.033  13.512  0.00  0.00     0.030 A 
HETATM    9  C   UNK     0       0.453  27.975  13.889  0.00  0.00     0.134 A 
HETATM   10  C   UNK     0       0.603  30.741  14.046  0.00  0.00     0.059 A 
HETATM   11  C   UNK     0      -0.614  28.679  14.413  0.00  0.00     0.116 A 
HETATM   12  C   UNK     0      -0.517  30.052  14.479  0.00  0.00     0.329 A 
HETATM   13  O   UNK     0      -1.729  27.987  14.827  0.00  0.00    -0.304 OA
HETATM   14  C   UNK     0       0.527  32.198  14.202  0.00  0.00     0.295 C 
HETATM   15  C   UNK     0       5.204  38.872  14.196  0.00  0.00     0.026 A 
HETATM   16  C   UNK     0       3.932  38.422  14.539  0.00  0.00     0.006 A 
HETATM   17  C   UNK     0       6.090  38.089  13.480  0.00  0.00     0.111 A 
HETATM   18  C   UNK     0       3.566  37.125  14.134  0.00  0.00     0.054 A 
HETATM   19  C   UNK     0       5.721  36.818  13.089  0.00  0.00     0.100 A 
HETATM   20  C   UNK     0       4.464  36.346  13.418  0.00  0.00     0.058 A 
HETATM   21  O   UNK     0       5.584  40.124  14.569  0.00  0.00     0.000 OA
HETATM   22  C   UNK     0       3.452  40.781  15.086  0.00  0.00     0.026 A 
HETATM   23  C   UNK     0       3.093  39.452  15.304  0.00  0.00     0.006 A 
HETATM   24  C   UNK     0       2.814  41.827  15.730  0.00  0.00     0.111 A 
HETATM   25  C   UNK     0       2.047  39.204  16.204  0.00  0.00     0.054 A 
HETATM   26  C   UNK     0       1.789  41.565  16.616  0.00  0.00     0.100 A 
HETATM   27  C   UNK     0       1.413  40.257  16.846  0.00  0.00     0.058 A 
HETATM   28  C   UNK     0       1.557  37.878  16.544  0.00  0.00     0.294 C 
HETATM   29  O   UNK     0       4.463  41.059  14.220  0.00  0.00     0.000 OA
HETATM   30  O   UNK     0       2.200  37.174  17.289  0.00  0.00    -0.259 OA
HETATM   31  C   UNK     0      -1.396  35.815  16.431  0.00  0.00     0.302 C 
HETATM   32  C   UNK     0       0.085  36.104  16.452  0.00  0.00     0.220 C 
HETATM   33  O   UNK     0      -1.608  34.498  16.959  0.00  0.00    -0.348 OA
HETATM   34  C   UNK     0       0.737  35.146  15.512  0.00  0.00     0.198 C 
HETATM   35  C   UNK     0      -0.909  33.410  16.319  0.00  0.00     0.181 C 
HETATM   36  C   UNK     0       0.609  33.752  16.112  0.00  0.00     0.195 C 
HETATM   37  C   UNK     0      -1.012  32.159  17.205  0.00  0.00     0.212 C 
HETATM   38  O   UNK     0       2.097  35.518  15.330  0.00  0.00    -0.306 OA
HETATM   39  O   UNK     0       1.200  32.790  15.235  0.00  0.00    -0.307 OA
HETATM   40  O   UNK     0       0.367  37.428  16.049  0.00  0.00    -0.304 OA
HETATM   41  O   UNK     0      -2.261  31.486  17.105  0.00  0.00    -0.328 OA
HETATM   42  C   UNK     0       2.260  36.499  14.388  0.00  0.00     0.294 C 
HETATM   43  O   UNK     0       1.308  36.835  13.725  0.00  0.00    -0.259 OA
HETATM   44  O   UNK     0      -0.169  32.861  13.467  0.00  0.00    -0.259 OA
HETATM   45  C   UNK     0      -2.476  30.647  16.055  0.00  0.00     0.179 C 
HETATM   46  O   UNK     0      -2.006  30.917  14.974  0.00  0.00    -0.383 OA
HETATM   47  H   UNK     0       6.503  40.469  14.322  0.00  0.00     0.000 HD
HETATM   48  H   UNK     0       4.740  42.019  14.057  0.00  0.00     0.000 HD
ENDROOT
BRANCH   3  49
HETATM   49  O   UNK     0      -6.264  28.369  17.962  0.00  0.00    -0.358 OA
HETATM   50  H   UNK     0      -6.272  28.919  18.812  0.00  0.00     0.217 HD
ENDBRANCH   3  49
BRANCH   5  51
HETATM   51  O   UNK     0      -5.501  25.992  16.823  0.00  0.00    -0.356 OA
HETATM   52  H   UNK     0      -5.221  25.312  17.519  0.00  0.00     0.218 HD
ENDBRANCH   5  51
BRANCH   6  53
HETATM   53  O   UNK     0      -3.240  25.873  15.289  0.00  0.00    -0.356 OA
HETATM   54  H   UNK     0      -3.759  25.502  14.504  0.00  0.00     0.218 HD
ENDBRANCH   6  53
BRANCH   9  55
HETATM   55  O   UNK     0       0.393  26.619  13.794  0.00  0.00    -0.356 OA
HETATM   56  H   UNK     0       1.247  26.076  13.758  0.00  0.00     0.218 HD
ENDBRANCH   9  55
BRANCH   7  57
HETATM   57  O   UNK     0       2.614  27.931  12.921  0.00  0.00    -0.357 OA
HETATM   58  H   UNK     0       2.504  26.940  12.746  0.00  0.00     0.217 HD
ENDBRANCH   7  57
BRANCH   8  59
HETATM   59  C   UNK     0       2.975  30.616  12.954  0.00  0.00     0.023 A 
HETATM   60  C   UNK     0       3.023  30.724  11.568  0.00  0.00     0.113 A 
HETATM   61  C   UNK     0       4.133  31.230  10.917  0.00  0.00     0.133 A 
HETATM   62  C   UNK     0       5.228  31.645  11.649  0.00  0.00     0.102 A 
HETATM   63  C   UNK     0       5.205  31.539  13.026  0.00  0.00     0.049 A 
HETATM   64  C   UNK     0       4.096  31.027  13.686  0.00  0.00    -0.018 A 
BRANCH  60  65
HETATM   65  O   UNK     0       1.952  30.314  10.835  0.00  0.00    -0.357 OA
HETATM   66  H   UNK     0       2.094  29.847   9.950  0.00  0.00     0.217 HD
ENDBRANCH  60  65
BRANCH  61  67
HETATM   67  O   UNK     0       4.148  31.315   9.561  0.00  0.00    -0.356 OA
HETATM   68  H   UNK     0       3.951  32.197   9.105  0.00  0.00     0.218 HD
ENDBRANCH  61  67
BRANCH  62  69
HETATM   69  O   UNK     0       6.322  32.147  11.015  0.00  0.00    -0.358 OA
HETATM   70  H   UNK     0       7.197  32.241  11.514  0.00  0.00     0.217 HD
ENDBRANCH  62  69
BRANCH  64  71
HETATM   71  C   UNK     0       4.196  30.944  15.183  0.00  0.00     0.203 C 
BRANCH  71  72
HETATM   72  O   UNK     0       3.919  32.228  15.726  0.00  0.00    -0.396 OA
HETATM   73  H   UNK     0       3.001  32.430  16.104  0.00  0.00     0.209 HD
ENDBRANCH  71  72
ENDBRANCH  64  71
ENDBRANCH   8  59
BRANCH  31  74
HETATM   74  O   UNK     0      -2.086  36.768  17.224  0.00  0.00    -0.283 OA
BRANCH  74  75
HETATM   75  C   UNK     0      -2.913  37.638  16.592  0.00  0.00     0.295 C 
HETATM   76  O   UNK     0      -3.631  37.239  15.705  0.00  0.00    -0.259 OA
BRANCH  75  77
HETATM   77  C   UNK     0      -2.951  39.055  16.979  0.00  0.00     0.045 A 
HETATM   78  C   UNK     0      -3.941  39.890  16.488  0.00  0.00     0.057 A 
HETATM   79  C   UNK     0      -3.962  41.227  16.855  0.00  0.00     0.102 A 
HETATM   80  C   UNK     0      -2.992  41.728  17.708  0.00  0.00     0.132 A 
HETATM   81  C   UNK     0      -2.002  40.892  18.200  0.00  0.00     0.102 A 
HETATM   82  C   UNK     0      -1.983  39.556  17.837  0.00  0.00     0.057 A 
BRANCH  79  83
HETATM   83  O   UNK     0      -4.935  42.051  16.376  0.00  0.00    -0.358 OA
HETATM   84  H   UNK     0      -5.626  41.695  15.728  0.00  0.00     0.217 HD
ENDBRANCH  79  83
BRANCH  80  85
HETATM   85  O   UNK     0      -3.008  43.042  18.062  0.00  0.00    -0.356 OA
HETATM   86  H   UNK     0      -3.380  43.319  18.963  0.00  0.00     0.218 HD
ENDBRANCH  80  85
BRANCH  81  87
HETATM   87  O   UNK     0      -1.050  41.384  19.035  0.00  0.00    -0.358 OA
HETATM   88  H   UNK     0      -1.011  41.073  19.997  0.00  0.00     0.217 HD
ENDBRANCH  81  87
ENDBRANCH  75  77
ENDBRANCH  74  75
ENDBRANCH  31  74
BRANCH  19  89
HETATM   89  O   UNK     0       6.587  36.043  12.383  0.00  0.00    -0.358 OA
HETATM   90  H   UNK     0       7.457  35.744  12.804  0.00  0.00     0.217 HD
ENDBRANCH  19  89
BRANCH  26  91
HETATM   91  O   UNK     0       1.160  42.585  17.259  0.00  0.00    -0.358 OA
HETATM   92  H   UNK     0       0.512  42.387  18.010  0.00  0.00     0.217 HD
ENDBRANCH  26  91
BRANCH  17  93
HETATM   93  O   UNK     0       7.322  38.570  13.157  0.00  0.00    -0.357 OA
HETATM   94  H   UNK     0       7.926  38.939  13.880  0.00  0.00     0.217 HD
ENDBRANCH  17  93
BRANCH  24  95
HETATM   95  O   UNK     0       3.199  43.111  15.496  0.00  0.00    -0.357 OA
HETATM   96  H   UNK     0       2.997  43.545  14.605  0.00  0.00     0.217 HD
ENDBRANCH  24  95
TORSDOF 21
