MODEL 1
REMARK VINA RESULT:      -4.0      0.000      0.000
REMARK  12 active torsions:
REMARK  status: ('A' for Active; 'I' for Inactive)
REMARK    1  A    between atoms: C_4  and  O_25 
REMARK    2  A    between atoms: C_6  and  O_23 
REMARK    3  A    between atoms: C_9  and  O_27 
REMARK    4  A    between atoms: C_10  and  C_11 
REMARK    5  A    between atoms: C_13  and  O_21 
REMARK    6  A    between atoms: C_14  and  O_19 
REMARK    7  A    between atoms: C_15  and  O_17 
REMARK    8  A    between atoms: O_27  and  C_28 
REMARK    9  A    between atoms: C_28  and  C_30 
REMARK   10  A    between atoms: C_32  and  O_40 
REMARK   11  A    between atoms: C_33  and  O_38 
REMARK   12  A    between atoms: C_34  and  O_36 
ROOT
ATOM      1  O   UNL     1     -14.932  10.596  16.532  0.00  0.00    -0.480 OA
ATOM      2  C   UNL     1     -14.301  10.847  17.723  0.00  0.00     0.132 A 
ATOM      3  C   UNL     1     -13.506   9.814  18.227  0.00  0.00     0.091 A 
ATOM      4  C   UNL     1     -12.823   9.983  19.431  0.00  0.00     0.124 A 
ATOM      5  C   UNL     1     -12.929  11.184  20.129  0.00  0.00     0.091 A 
ATOM      6  C   UNL     1     -13.711  12.221  19.619  0.00  0.00     0.127 A 
ATOM      7  C   UNL     1     -14.394  12.067  18.405  0.00  0.00     0.039 A 
ATOM      8  C   UNL     1     -15.226  13.200  17.870  0.00  0.00     0.091 C 
ATOM      9  C   UNL     1     -15.597  12.966  16.407  0.00  0.00     0.226 C 
ATOM     10  C   UNL     1     -16.003  11.498  16.212  0.00  0.00     0.245 C 
ENDROOT
BRANCH   9  11
ATOM     11  O   UNL     1     -14.473  13.276  15.582  0.00  0.00    -0.453 OA
BRANCH  11  12
ATOM     12  C   UNL     1     -14.438  14.539  15.083  0.00  0.00     0.340 C 
ATOM     13  O   UNL     1     -13.637  15.411  15.381  0.00  0.00    -0.245 OA
BRANCH  12  14
ATOM     14  C   UNL     1     -15.531  14.738  14.098  0.00  0.00     0.066 A 
ATOM     15  C   UNL     1     -15.432  14.135  12.860  0.00  0.00     0.064 A 
ATOM     16  C   UNL     1     -16.459  14.323  11.936  0.00  0.00     0.163 A 
ATOM     17  C   UNL     1     -17.563  15.108  12.269  0.00  0.00     0.201 A 
ATOM     18  C   UNL     1     -17.640  15.706  13.527  0.00  0.00     0.163 A 
ATOM     19  C   UNL     1     -16.612  15.520  14.451  0.00  0.00     0.064 A 
BRANCH  16  20
ATOM     20  O   UNL     1     -16.374  13.732  10.711  0.00  0.00    -0.503 OA
ATOM     21  H   UNL     1     -17.212  13.866  10.235  0.00  0.00     0.292 HD
ENDBRANCH  16  20
BRANCH  17  22
ATOM     22  O   UNL     1     -18.568  15.290  11.365  0.00  0.00    -0.501 OA
ATOM     23  H   UNL     1     -19.244  14.606  11.516  0.00  0.00     0.292 HD
ENDBRANCH  17  22
BRANCH  18  24
ATOM     24  O   UNL     1     -18.713  16.475  13.864  0.00  0.00    -0.503 OA
ATOM     25  H   UNL     1     -18.410  17.220  14.411  0.00  0.00     0.292 HD
ENDBRANCH  18  24
ENDBRANCH  12  14
ENDBRANCH  11  12
ENDBRANCH   9  11
BRANCH  10  26
ATOM     26  C   UNL     1     -16.488  11.231  14.799  0.00  0.00     0.003 A 
ATOM     27  C   UNL     1     -15.659  10.573  13.892  0.00  0.00     0.056 A 
ATOM     28  C   UNL     1     -16.105  10.328  12.593  0.00  0.00     0.162 A 
ATOM     29  C   UNL     1     -17.379  10.741  12.203  0.00  0.00     0.201 A 
ATOM     30  C   UNL     1     -18.207  11.400  13.112  0.00  0.00     0.162 A 
ATOM     31  C   UNL     1     -17.762  11.645  14.411  0.00  0.00     0.056 A 
BRANCH  28  32
ATOM     32  O   UNL     1     -15.287   9.684  11.715  0.00  0.00    -0.503 OA
ATOM     33  H   UNL     1     -15.245   8.742  11.954  0.00  0.00     0.292 HD
ENDBRANCH  28  32
BRANCH  29  34
ATOM     34  O   UNL     1     -17.814  10.500  10.934  0.00  0.00    -0.501 OA
ATOM     35  H   UNL     1     -17.062  10.179  10.407  0.00  0.00     0.292 HD
ENDBRANCH  29  34
BRANCH  30  36
ATOM     36  O   UNL     1     -19.453  11.810  12.744  0.00  0.00    -0.503 OA
ATOM     37  H   UNL     1     -20.047  11.750  13.512  0.00  0.00     0.292 HD
ENDBRANCH  30  36
ENDBRANCH  10  26
BRANCH   6  38
ATOM     38  O   UNL     1     -13.795  13.384  20.328  0.00  0.00    -0.506 OA
ATOM     39  H   UNL     1     -12.978  13.896  20.199  0.00  0.00     0.292 HD
ENDBRANCH   6  38
BRANCH   4  40
ATOM     40  O   UNL     1     -12.056   8.973  19.925  0.00  0.00    -0.507 OA
ATOM     41  H   UNL     1     -12.551   8.138  19.858  0.00  0.00     0.292 HD
ENDBRANCH   4  40
TORSDOF 12
ENDMDL
MODEL 2
REMARK VINA RESULT:      -4.0      0.538      2.117
REMARK  12 active torsions:
REMARK  status: ('A' for Active; 'I' for Inactive)
REMARK    1  A    between atoms: C_4  and  O_25 
REMARK    2  A    between atoms: C_6  and  O_23 
REMARK    3  A    between atoms: C_9  and  O_27 
REMARK    4  A    between atoms: C_10  and  C_11 
REMARK    5  A    between atoms: C_13  and  O_21 
REMARK    6  A    between atoms: C_14  and  O_19 
REMARK    7  A    between atoms: C_15  and  O_17 
REMARK    8  A    between atoms: O_27  and  C_28 
REMARK    9  A    between atoms: C_28  and  C_30 
REMARK   10  A    between atoms: C_32  and  O_40 
REMARK   11  A    between atoms: C_33  and  O_38 
REMARK   12  A    between atoms: C_34  and  O_36 
ROOT
ATOM      1  O   UNL     1     -14.688  10.815  17.004  0.00  0.00    -0.480 OA
ATOM      2  C   UNL     1     -13.984  11.153  18.130  0.00  0.00     0.132 A 
ATOM      3  C   UNL     1     -13.144  10.164  18.650  0.00  0.00     0.091 A 
ATOM      4  C   UNL     1     -12.386  10.422  19.791  0.00  0.00     0.124 A 
ATOM      5  C   UNL     1     -12.460  11.667  20.410  0.00  0.00     0.091 A 
ATOM      6  C   UNL     1     -13.288  12.660  19.884  0.00  0.00     0.127 A 
ATOM      7  C   UNL     1     -14.047  12.416  18.731  0.00  0.00     0.039 A 
ATOM      8  C   UNL     1     -14.926  13.504  18.175  0.00  0.00     0.091 C 
ATOM      9  C   UNL     1     -15.390  13.165  16.760  0.00  0.00     0.226 C 
ATOM     10  C   UNL     1     -15.789  11.684  16.694  0.00  0.00     0.245 C 
ENDROOT
BRANCH   9  11
ATOM     11  O   UNL     1     -14.326  13.426  15.843  0.00  0.00    -0.453 OA
BRANCH  11  12
ATOM     12  C   UNL     1     -14.355  14.641  15.237  0.00  0.00     0.340 C 
ATOM     13  O   UNL     1     -13.568  15.557  15.417  0.00  0.00    -0.245 OA
BRANCH  12  14
ATOM     14  C   UNL     1     -15.500  14.725  14.296  0.00  0.00     0.066 A 
ATOM     15  C   UNL     1     -16.606  15.471  14.655  0.00  0.00     0.064 A 
ATOM     16  C   UNL     1     -17.682  15.549  13.771  0.00  0.00     0.163 A 
ATOM     17  C   UNL     1     -17.629  14.880  12.547  0.00  0.00     0.201 A 
ATOM     18  C   UNL     1     -16.501  14.134  12.207  0.00  0.00     0.163 A 
ATOM     19  C   UNL     1     -15.425  14.055  13.092  0.00  0.00     0.064 A 
BRANCH  16  20
ATOM     20  O   UNL     1     -18.777  16.283  14.112  0.00  0.00    -0.503 OA
ATOM     21  H   UNL     1     -18.590  17.225  13.956  0.00  0.00     0.292 HD
ENDBRANCH  16  20
BRANCH  17  22
ATOM     22  O   UNL     1     -18.681  14.958  11.682  0.00  0.00    -0.501 OA
ATOM     23  H   UNL     1     -19.354  15.546  12.069  0.00  0.00     0.292 HD
ENDBRANCH  17  22
BRANCH  18  24
ATOM     24  O   UNL     1     -16.438  13.477  11.015  0.00  0.00    -0.503 OA
ATOM     25  H   UNL     1     -16.560  14.118  10.293  0.00  0.00     0.292 HD
ENDBRANCH  18  24
ENDBRANCH  12  14
ENDBRANCH  11  12
ENDBRANCH   9  11
BRANCH  10  26
ATOM     26  C   UNL     1     -16.363  11.316  15.338  0.00  0.00     0.003 A 
ATOM     27  C   UNL     1     -17.672  11.670  15.018  0.00  0.00     0.056 A 
ATOM     28  C   UNL     1     -18.200  11.331  13.772  0.00  0.00     0.162 A 
ATOM     29  C   UNL     1     -17.418  10.636  12.848  0.00  0.00     0.201 A 
ATOM     30  C   UNL     1     -16.107  10.282  13.172  0.00  0.00     0.162 A 
ATOM     31  C   UNL     1     -15.579  10.621  14.417  0.00  0.00     0.056 A 
BRANCH  28  32
ATOM     32  O   UNL     1     -19.480  11.683  13.468  0.00  0.00    -0.503 OA
ATOM     33  H   UNL     1     -19.467  12.328  12.740  0.00  0.00     0.292 HD
ENDBRANCH  28  32
BRANCH  29  34
ATOM     34  O   UNL     1     -17.933  10.306  11.631  0.00  0.00    -0.501 OA
ATOM     35  H   UNL     1     -17.664   9.394  11.420  0.00  0.00     0.292 HD
ENDBRANCH  29  34
BRANCH  30  36
ATOM     36  O   UNL     1     -15.333   9.603  12.279  0.00  0.00    -0.503 OA
ATOM     37  H   UNL     1     -14.411   9.612  12.588  0.00  0.00     0.292 HD
ENDBRANCH  30  36
ENDBRANCH  10  26
BRANCH   6  38
ATOM     38  O   UNL     1     -13.339  13.869  20.514  0.00  0.00    -0.506 OA
ATOM     39  H   UNL     1     -12.629  14.438  20.172  0.00  0.00     0.292 HD
ENDBRANCH   6  38
BRANCH   4  40
ATOM     40  O   UNL     1     -11.575   9.455  20.301  0.00  0.00    -0.507 OA
ATOM     41  H   UNL     1     -11.133   9.800  21.096  0.00  0.00     0.292 HD
ENDBRANCH   4  40
TORSDOF 12
ENDMDL
MODEL 3
REMARK VINA RESULT:      -4.0     12.308     14.332
REMARK  12 active torsions:
REMARK  status: ('A' for Active; 'I' for Inactive)
REMARK    1  A    between atoms: C_4  and  O_25 
REMARK    2  A    between atoms: C_6  and  O_23 
REMARK    3  A    between atoms: C_9  and  O_27 
REMARK    4  A    between atoms: C_10  and  C_11 
REMARK    5  A    between atoms: C_13  and  O_21 
REMARK    6  A    between atoms: C_14  and  O_19 
REMARK    7  A    between atoms: C_15  and  O_17 
REMARK    8  A    between atoms: O_27  and  C_28 
REMARK    9  A    between atoms: C_28  and  C_30 
REMARK   10  A    between atoms: C_32  and  O_40 
REMARK   11  A    between atoms: C_33  and  O_38 
REMARK   12  A    between atoms: C_34  and  O_36 
ROOT
ATOM      1  O   UNL     1      -4.276  10.859  10.173  0.00  0.00    -0.480 OA
ATOM      2  C   UNL     1      -4.364   9.574   9.703  0.00  0.00     0.132 A 
ATOM      3  C   UNL     1      -5.146   8.695  10.457  0.00  0.00     0.091 A 
ATOM      4  C   UNL     1      -5.296   7.370  10.050  0.00  0.00     0.124 A 
ATOM      5  C   UNL     1      -4.672   6.923   8.889  0.00  0.00     0.091 A 
ATOM      6  C   UNL     1      -3.902   7.804   8.127  0.00  0.00     0.127 A 
ATOM      7  C   UNL     1      -3.753   9.141   8.519  0.00  0.00     0.039 A 
ATOM      8  C   UNL     1      -2.925  10.075   7.679  0.00  0.00     0.091 C 
ATOM      9  C   UNL     1      -3.165  11.530   8.078  0.00  0.00     0.226 C 
ATOM     10  C   UNL     1      -3.210  11.639   9.608  0.00  0.00     0.245 C 
ENDROOT
BRANCH   9  11
ATOM     11  O   UNL     1      -4.403  11.972   7.520  0.00  0.00    -0.453 OA
BRANCH  11  12
ATOM     12  C   UNL     1      -4.307  12.725   6.393  0.00  0.00     0.340 C 
ATOM     13  O   UNL     1      -4.232  12.308   5.249  0.00  0.00    -0.245 OA
BRANCH  12  14
ATOM     14  C   UNL     1      -4.301  14.171   6.735  0.00  0.00     0.066 A 
ATOM     15  C   UNL     1      -5.382  14.700   7.412  0.00  0.00     0.064 A 
ATOM     16  C   UNL     1      -5.376  16.058   7.732  0.00  0.00     0.163 A 
ATOM     17  C   UNL     1      -4.290  16.856   7.371  0.00  0.00     0.201 A 
ATOM     18  C   UNL     1      -3.210  16.296   6.689  0.00  0.00     0.163 A 
ATOM     19  C   UNL     1      -3.216  14.939   6.367  0.00  0.00     0.064 A 
BRANCH  16  20
ATOM     20  O   UNL     1      -6.436  16.593   8.401  0.00  0.00    -0.503 OA
ATOM     21  H   UNL     1      -7.261  16.290   7.983  0.00  0.00     0.292 HD
ENDBRANCH  16  20
BRANCH  17  22
ATOM     22  O   UNL     1      -4.285  18.182   7.686  0.00  0.00    -0.501 OA
ATOM     23  H   UNL     1      -5.151  18.558   7.449  0.00  0.00     0.292 HD
ENDBRANCH  17  22
BRANCH  18  24
ATOM     24  O   UNL     1      -2.144  17.065   6.330  0.00  0.00    -0.503 OA
ATOM     25  H   UNL     1      -1.931  17.672   7.060  0.00  0.00     0.292 HD
ENDBRANCH  18  24
ENDBRANCH  12  14
ENDBRANCH  11  12
ENDBRANCH   9  11
BRANCH  10  26
ATOM     26  C   UNL     1      -3.336  13.080  10.067  0.00  0.00     0.003 A 
ATOM     27  C   UNL     1      -4.468  13.489  10.768  0.00  0.00     0.056 A 
ATOM     28  C   UNL     1      -4.585  14.814  11.189  0.00  0.00     0.162 A 
ATOM     29  C   UNL     1      -3.568  15.728  10.908  0.00  0.00     0.201 A 
ATOM     30  C   UNL     1      -2.435  15.316  10.205  0.00  0.00     0.162 A 
ATOM     31  C   UNL     1      -2.319  13.991   9.784  0.00  0.00     0.056 A 
BRANCH  28  32
ATOM     32  O   UNL     1      -5.695  15.204  11.875  0.00  0.00    -0.503 OA
ATOM     33  H   UNL     1      -5.470  15.294  12.817  0.00  0.00     0.292 HD
ENDBRANCH  28  32
BRANCH  29  34
ATOM     34  O   UNL     1      -3.682  17.021  11.321  0.00  0.00    -0.501 OA
ATOM     35  H   UNL     1      -3.506  17.603  10.560  0.00  0.00     0.292 HD
ENDBRANCH  29  34
BRANCH  30  36
ATOM     36  O   UNL     1      -1.436  16.198   9.924  0.00  0.00    -0.503 OA
ATOM     37  H   UNL     1      -1.595  17.024  10.412  0.00  0.00     0.292 HD
ENDBRANCH  30  36
ENDBRANCH  10  26
BRANCH   6  38
ATOM     38  O   UNL     1      -3.303   7.335   6.994  0.00  0.00    -0.506 OA
ATOM     39  H   UNL     1      -3.978   7.200   6.307  0.00  0.00     0.292 HD
ENDBRANCH   6  38
BRANCH   4  40
ATOM     40  O   UNL     1      -6.051   6.513  10.791  0.00  0.00    -0.507 OA
ATOM     41  H   UNL     1      -6.534   5.919  10.192  0.00  0.00     0.292 HD
ENDBRANCH   4  40
TORSDOF 12
ENDMDL
MODEL 4
REMARK VINA RESULT:      -4.0     12.314     14.232
REMARK  12 active torsions:
REMARK  status: ('A' for Active; 'I' for Inactive)
REMARK    1  A    between atoms: C_4  and  O_25 
REMARK    2  A    between atoms: C_6  and  O_23 
REMARK    3  A    between atoms: C_9  and  O_27 
REMARK    4  A    between atoms: C_10  and  C_11 
REMARK    5  A    between atoms: C_13  and  O_21 
REMARK    6  A    between atoms: C_14  and  O_19 
REMARK    7  A    between atoms: C_15  and  O_17 
REMARK    8  A    between atoms: O_27  and  C_28 
REMARK    9  A    between atoms: C_28  and  C_30 
REMARK   10  A    between atoms: C_32  and  O_40 
REMARK   11  A    between atoms: C_33  and  O_38 
REMARK   12  A    between atoms: C_34  and  O_36 
ROOT
ATOM      1  O   UNL     1      -4.273  10.866  10.165  0.00  0.00    -0.480 OA
ATOM      2  C   UNL     1      -4.361   9.581   9.696  0.00  0.00     0.132 A 
ATOM      3  C   UNL     1      -5.143   8.703  10.451  0.00  0.00     0.091 A 
ATOM      4  C   UNL     1      -5.292   7.377  10.046  0.00  0.00     0.124 A 
ATOM      5  C   UNL     1      -4.668   6.929   8.885  0.00  0.00     0.091 A 
ATOM      6  C   UNL     1      -3.898   7.808   8.122  0.00  0.00     0.127 A 
ATOM      7  C   UNL     1      -3.749   9.146   8.513  0.00  0.00     0.039 A 
ATOM      8  C   UNL     1      -2.921  10.080   7.672  0.00  0.00     0.091 C 
ATOM      9  C   UNL     1      -3.161  11.535   8.069  0.00  0.00     0.226 C 
ATOM     10  C   UNL     1      -3.207  11.646   9.600  0.00  0.00     0.245 C 
ENDROOT
BRANCH   9  11
ATOM     11  O   UNL     1      -4.399  11.976   7.510  0.00  0.00    -0.453 OA
BRANCH  11  12
ATOM     12  C   UNL     1      -4.302  12.729   6.384  0.00  0.00     0.340 C 
ATOM     13  O   UNL     1      -4.226  12.312   5.239  0.00  0.00    -0.245 OA
BRANCH  12  14
ATOM     14  C   UNL     1      -4.299  14.175   6.726  0.00  0.00     0.066 A 
ATOM     15  C   UNL     1      -3.217  14.946   6.351  0.00  0.00     0.064 A 
ATOM     16  C   UNL     1      -3.214  16.304   6.672  0.00  0.00     0.163 A 
ATOM     17  C   UNL     1      -4.292  16.860   7.360  0.00  0.00     0.201 A 
ATOM     18  C   UNL     1      -5.374  16.060   7.727  0.00  0.00     0.163 A 
ATOM     19  C   UNL     1      -5.376  14.702   7.407  0.00  0.00     0.064 A 
BRANCH  16  20
ATOM     20  O   UNL     1      -2.153  17.076   6.306  0.00  0.00    -0.503 OA
ATOM     21  H   UNL     1      -1.361  16.516   6.235  0.00  0.00     0.292 HD
ENDBRANCH  16  20
BRANCH  17  22
ATOM     22  O   UNL     1      -4.290  18.187   7.673  0.00  0.00    -0.501 OA
ATOM     23  H   UNL     1      -5.170  18.552   7.472  0.00  0.00     0.292 HD
ENDBRANCH  17  22
BRANCH  18  24
ATOM     24  O   UNL     1      -6.432  16.591   8.400  0.00  0.00    -0.503 OA
ATOM     25  H   UNL     1      -6.205  17.492   8.688  0.00  0.00     0.292 HD
ENDBRANCH  18  24
ENDBRANCH  12  14
ENDBRANCH  11  12
ENDBRANCH   9  11
BRANCH  10  26
ATOM     26  C   UNL     1      -3.333  13.087  10.057  0.00  0.00     0.003 A 
ATOM     27  C   UNL     1      -2.316  13.997   9.775  0.00  0.00     0.056 A 
ATOM     28  C   UNL     1      -2.431  15.322  10.195  0.00  0.00     0.162 A 
ATOM     29  C   UNL     1      -3.564  15.735  10.899  0.00  0.00     0.201 A 
ATOM     30  C   UNL     1      -4.580  14.822  11.181  0.00  0.00     0.162 A 
ATOM     31  C   UNL     1      -4.465  13.497  10.760  0.00  0.00     0.056 A 
BRANCH  28  32
ATOM     32  O   UNL     1      -1.432  16.204   9.913  0.00  0.00    -0.503 OA
ATOM     33  H   UNL     1      -1.258  16.748  10.700  0.00  0.00     0.292 HD
ENDBRANCH  28  32
BRANCH  29  34
ATOM     34  O   UNL     1      -3.677  17.029  11.308  0.00  0.00    -0.501 OA
ATOM     35  H   UNL     1      -2.964  17.547  10.892  0.00  0.00     0.292 HD
ENDBRANCH  29  34
BRANCH  30  36
ATOM     36  O   UNL     1      -5.691  15.212  11.867  0.00  0.00    -0.503 OA
ATOM     37  H   UNL     1      -6.254  15.747  11.281  0.00  0.00     0.292 HD
ENDBRANCH  30  36
ENDBRANCH  10  26
BRANCH   6  38
ATOM     38  O   UNL     1      -3.298   7.338   6.991  0.00  0.00    -0.506 OA
ATOM     39  H   UNL     1      -3.357   6.367   6.978  0.00  0.00     0.292 HD
ENDBRANCH   6  38
BRANCH   4  40
ATOM     40  O   UNL     1      -6.047   6.521  10.787  0.00  0.00    -0.507 OA
ATOM     41  H   UNL     1      -6.931   6.450  10.386  0.00  0.00     0.292 HD
ENDBRANCH   4  40
TORSDOF 12
ENDMDL
MODEL 5
REMARK VINA RESULT:      -4.0      9.550     14.199
REMARK  12 active torsions:
REMARK  status: ('A' for Active; 'I' for Inactive)
REMARK    1  A    between atoms: C_4  and  O_25 
REMARK    2  A    between atoms: C_6  and  O_23 
REMARK    3  A    between atoms: C_9  and  O_27 
REMARK    4  A    between atoms: C_10  and  C_11 
REMARK    5  A    between atoms: C_13  and  O_21 
REMARK    6  A    between atoms: C_14  and  O_19 
REMARK    7  A    between atoms: C_15  and  O_17 
REMARK    8  A    between atoms: O_27  and  C_28 
REMARK    9  A    between atoms: C_28  and  C_30 
REMARK   10  A    between atoms: C_32  and  O_40 
REMARK   11  A    between atoms: C_33  and  O_38 
REMARK   12  A    between atoms: C_34  and  O_36 
ROOT
ATOM      1  O   UNL     1     -14.714   6.778   4.275  0.00  0.00    -0.480 OA
ATOM      2  C   UNL     1     -14.335   6.988   2.974  0.00  0.00     0.132 A 
ATOM      3  C   UNL     1     -14.742   8.196   2.403  0.00  0.00     0.091 A 
ATOM      4  C   UNL     1     -14.398   8.497   1.086  0.00  0.00     0.124 A 
ATOM      5  C   UNL     1     -13.642   7.595   0.341  0.00  0.00     0.091 A 
ATOM      6  C   UNL     1     -13.222   6.394   0.915  0.00  0.00     0.127 A 
ATOM      7  C   UNL     1     -13.554   6.086   2.242  0.00  0.00     0.039 A 
ATOM      8  C   UNL     1     -13.084   4.789   2.844  0.00  0.00     0.091 C 
ATOM      9  C   UNL     1     -13.249   4.798   4.362  0.00  0.00     0.226 C 
ATOM     10  C   UNL     1     -14.605   5.418   4.726  0.00  0.00     0.245 C 
ENDROOT
BRANCH   9  11
ATOM     11  O   UNL     1     -12.191   5.561   4.944  0.00  0.00    -0.453 OA
BRANCH  11  12
ATOM     12  C   UNL     1     -11.085   4.858   5.305  0.00  0.00     0.340 C 
ATOM     13  O   UNL     1      -9.993   4.901   4.762  0.00  0.00    -0.245 OA
BRANCH  12  14
ATOM     14  C   UNL     1     -11.378   3.998   6.480  0.00  0.00     0.066 A 
ATOM     15  C   UNL     1     -11.397   2.628   6.315  0.00  0.00     0.064 A 
ATOM     16  C   UNL     1     -11.671   1.821   7.419  0.00  0.00     0.163 A 
ATOM     17  C   UNL     1     -11.919   2.401   8.664  0.00  0.00     0.201 A 
ATOM     18  C   UNL     1     -11.893   3.788   8.804  0.00  0.00     0.163 A 
ATOM     19  C   UNL     1     -11.620   4.596   7.700  0.00  0.00     0.064 A 
BRANCH  16  20
ATOM     20  O   UNL     1     -11.691   0.466   7.271  0.00  0.00    -0.503 OA
ATOM     21  H   UNL     1     -12.339   0.232   6.584  0.00  0.00     0.292 HD
ENDBRANCH  16  20
BRANCH  17  22
ATOM     22  O   UNL     1     -12.186   1.612   9.743  0.00  0.00    -0.501 OA
ATOM     23  H   UNL     1     -11.939   2.099  10.549  0.00  0.00     0.292 HD
ENDBRANCH  17  22
BRANCH  18  24
ATOM     24  O   UNL     1     -12.134   4.367  10.014  0.00  0.00    -0.503 OA
ATOM     25  H   UNL     1     -11.857   3.756  10.718  0.00  0.00     0.292 HD
ENDBRANCH  18  24
ENDBRANCH  12  14
ENDBRANCH  11  12
ENDBRANCH   9  11
BRANCH  10  26
ATOM     26  C   UNL     1     -14.873   5.353   6.218  0.00  0.00     0.003 A 
ATOM     27  C   UNL     1     -15.209   4.139   6.812  0.00  0.00     0.056 A 
ATOM     28  C   UNL     1     -15.456   4.079   8.183  0.00  0.00     0.162 A 
ATOM     29  C   UNL     1     -15.366   5.235   8.959  0.00  0.00     0.201 A 
ATOM     30  C   UNL     1     -15.030   6.451   8.362  0.00  0.00     0.162 A 
ATOM     31  C   UNL     1     -14.783   6.510   6.991  0.00  0.00     0.056 A 
BRANCH  28  32
ATOM     32  O   UNL     1     -15.783   2.886   8.754  0.00  0.00    -0.503 OA
ATOM     33  H   UNL     1     -16.063   3.041   9.673  0.00  0.00     0.292 HD
ENDBRANCH  28  32
BRANCH  29  34
ATOM     34  O   UNL     1     -15.606   5.177  10.299  0.00  0.00    -0.501 OA
ATOM     35  H   UNL     1     -16.097   5.977  10.559  0.00  0.00     0.292 HD
ENDBRANCH  29  34
BRANCH  30  36
ATOM     36  O   UNL     1     -14.940   7.587   9.108  0.00  0.00    -0.503 OA
ATOM     37  H   UNL     1     -14.120   7.559   9.632  0.00  0.00     0.292 HD
ENDBRANCH  30  36
ENDBRANCH  10  26
BRANCH   6  38
ATOM     38  O   UNL     1     -12.484   5.532   0.159  0.00  0.00    -0.506 OA
ATOM     39  H   UNL     1     -13.079   5.026  -0.421  0.00  0.00     0.292 HD
ENDBRANCH   6  38
BRANCH   4  40
ATOM     40  O   UNL     1     -14.803   9.670   0.528  0.00  0.00    -0.507 OA
ATOM     41  H   UNL     1     -15.025   9.516  -0.407  0.00  0.00     0.292 HD
ENDBRANCH   4  40
TORSDOF 12
ENDMDL
MODEL 6
REMARK VINA RESULT:      -4.0      9.563     14.262
REMARK  12 active torsions:
REMARK  status: ('A' for Active; 'I' for Inactive)
REMARK    1  A    between atoms: C_4  and  O_25 
REMARK    2  A    between atoms: C_6  and  O_23 
REMARK    3  A    between atoms: C_9  and  O_27 
REMARK    4  A    between atoms: C_10  and  C_11 
REMARK    5  A    between atoms: C_13  and  O_21 
REMARK    6  A    between atoms: C_14  and  O_19 
REMARK    7  A    between atoms: C_15  and  O_17 
REMARK    8  A    between atoms: O_27  and  C_28 
REMARK    9  A    between atoms: C_28  and  C_30 
REMARK   10  A    between atoms: C_32  and  O_40 
REMARK   11  A    between atoms: C_33  and  O_38 
REMARK   12  A    between atoms: C_34  and  O_36 
ROOT
ATOM      1  O   UNL     1     -14.730   6.780   4.265  0.00  0.00    -0.480 OA
ATOM      2  C   UNL     1     -14.353   6.995   2.965  0.00  0.00     0.132 A 
ATOM      3  C   UNL     1     -14.763   8.204   2.398  0.00  0.00     0.091 A 
ATOM      4  C   UNL     1     -14.421   8.510   1.081  0.00  0.00     0.124 A 
ATOM      5  C   UNL     1     -13.665   7.612   0.332  0.00  0.00     0.091 A 
ATOM      6  C   UNL     1     -13.242   6.410   0.902  0.00  0.00     0.127 A 
ATOM      7  C   UNL     1     -13.571   6.097   2.228  0.00  0.00     0.039 A 
ATOM      8  C   UNL     1     -13.099   4.799   2.826  0.00  0.00     0.091 C 
ATOM      9  C   UNL     1     -13.261   4.802   4.345  0.00  0.00     0.226 C 
ATOM     10  C   UNL     1     -14.618   5.419   4.711  0.00  0.00     0.245 C 
ENDROOT
BRANCH   9  11
ATOM     11  O   UNL     1     -12.204   5.566   4.927  0.00  0.00    -0.453 OA
BRANCH  11  12
ATOM     12  C   UNL     1     -11.106   4.860   5.305  0.00  0.00     0.340 C 
ATOM     13  O   UNL     1     -10.005   4.901   4.779  0.00  0.00    -0.245 OA
BRANCH  12  14
ATOM     14  C   UNL     1     -11.418   4.001   6.475  0.00  0.00     0.066 A 
ATOM     15  C   UNL     1     -11.626   4.596   7.704  0.00  0.00     0.064 A 
ATOM     16  C   UNL     1     -11.919   3.789   8.802  0.00  0.00     0.163 A 
ATOM     17  C   UNL     1     -12.000   2.404   8.649  0.00  0.00     0.201 A 
ATOM     18  C   UNL     1     -11.788   1.827   7.398  0.00  0.00     0.163 A 
ATOM     19  C   UNL     1     -11.493   2.634   6.299  0.00  0.00     0.064 A 
BRANCH  16  20
ATOM     20  O   UNL     1     -12.127   4.364  10.020  0.00  0.00    -0.503 OA
ATOM     21  H   UNL     1     -11.552   5.144  10.105  0.00  0.00     0.292 HD
ENDBRANCH  16  20
BRANCH  17  22
ATOM     22  O   UNL     1     -12.288   1.615   9.724  0.00  0.00    -0.501 OA
ATOM     23  H   UNL     1     -11.899   0.736   9.572  0.00  0.00     0.292 HD
ENDBRANCH  17  22
BRANCH  18  24
ATOM     24  O   UNL     1     -11.864   0.477   7.235  0.00  0.00    -0.503 OA
ATOM     25  H   UNL     1     -12.243   0.283   6.361  0.00  0.00     0.292 HD
ENDBRANCH  18  24
ENDBRANCH  12  14
ENDBRANCH  11  12
ENDBRANCH   9  11
BRANCH  10  26
ATOM     26  C   UNL     1     -14.884   5.349   6.203  0.00  0.00     0.003 A 
ATOM     27  C   UNL     1     -15.224   4.133   6.793  0.00  0.00     0.056 A 
ATOM     28  C   UNL     1     -15.469   4.069   8.165  0.00  0.00     0.162 A 
ATOM     29  C   UNL     1     -15.374   5.221   8.945  0.00  0.00     0.201 A 
ATOM     30  C   UNL     1     -15.034   6.438   8.353  0.00  0.00     0.162 A 
ATOM     31  C   UNL     1     -14.789   6.502   6.981  0.00  0.00     0.056 A 
BRANCH  28  32
ATOM     32  O   UNL     1     -15.799   2.874   8.731  0.00  0.00    -0.503 OA
ATOM     33  H   UNL     1     -16.730   2.903   9.011  0.00  0.00     0.292 HD
ENDBRANCH  28  32
BRANCH  29  34
ATOM     34  O   UNL     1     -15.612   5.158  10.286  0.00  0.00    -0.501 OA
ATOM     35  H   UNL     1     -16.569   5.256  10.433  0.00  0.00     0.292 HD
ENDBRANCH  29  34
BRANCH  30  36
ATOM     36  O   UNL     1     -14.939   7.571   9.104  0.00  0.00    -0.503 OA
ATOM     37  H   UNL     1     -15.647   8.185   8.843  0.00  0.00     0.292 HD
ENDBRANCH  30  36
ENDBRANCH  10  26
BRANCH   6  38
ATOM     38  O   UNL     1     -12.503   5.551   0.142  0.00  0.00    -0.506 OA
ATOM     39  H   UNL     1     -12.438   4.695   0.599  0.00  0.00     0.292 HD
ENDBRANCH   6  38
BRANCH   4  40
ATOM     40  O   UNL     1     -14.829   9.684   0.528  0.00  0.00    -0.507 OA
ATOM     41  H   UNL     1     -14.856  10.368   1.220  0.00  0.00     0.292 HD
ENDBRANCH   4  40
TORSDOF 12
ENDMDL
MODEL 7
REMARK VINA RESULT:      -4.0     10.898     13.672
REMARK  12 active torsions:
REMARK  status: ('A' for Active; 'I' for Inactive)
REMARK    1  A    between atoms: C_4  and  O_25 
REMARK    2  A    between atoms: C_6  and  O_23 
REMARK    3  A    between atoms: C_9  and  O_27 
REMARK    4  A    between atoms: C_10  and  C_11 
REMARK    5  A    between atoms: C_13  and  O_21 
REMARK    6  A    between atoms: C_14  and  O_19 
REMARK    7  A    between atoms: C_15  and  O_17 
REMARK    8  A    between atoms: O_27  and  C_28 
REMARK    9  A    between atoms: C_28  and  C_30 
REMARK   10  A    between atoms: C_32  and  O_40 
REMARK   11  A    between atoms: C_33  and  O_38 
REMARK   12  A    between atoms: C_34  and  O_36 
ROOT
ATOM      1  O   UNL     1      -8.432   3.221   9.372  0.00  0.00    -0.480 OA
ATOM      2  C   UNL     1      -8.696   3.715  10.622  0.00  0.00     0.132 A 
ATOM      3  C   UNL     1      -7.599   4.205  11.335  0.00  0.00     0.091 A 
ATOM      4  C   UNL     1      -7.775   4.732  12.614  0.00  0.00     0.124 A 
ATOM      5  C   UNL     1      -9.047   4.776  13.179  0.00  0.00     0.091 A 
ATOM      6  C   UNL     1     -10.146   4.301  12.463  0.00  0.00     0.127 A 
ATOM      7  C   UNL     1      -9.983   3.778  11.172  0.00  0.00     0.039 A 
ATOM      8  C   UNL     1     -11.183   3.278  10.414  0.00  0.00     0.091 C 
ATOM      9  C   UNL     1     -10.853   3.076   8.937  0.00  0.00     0.226 C 
ATOM     10  C   UNL     1      -9.476   2.411   8.807  0.00  0.00     0.245 C 
ENDROOT
BRANCH   9  11
ATOM     11  O   UNL     1     -10.848   4.344   8.280  0.00  0.00    -0.453 OA
BRANCH  11  12
ATOM     12  C   UNL     1     -11.960   4.639   7.557  0.00  0.00     0.340 C 
ATOM     13  O   UNL     1     -12.981   5.156   7.980  0.00  0.00    -0.245 OA
BRANCH  12  14
ATOM     14  C   UNL     1     -11.778   4.238   6.138  0.00  0.00     0.066 A 
ATOM     15  C   UNL     1     -12.627   3.294   5.597  0.00  0.00     0.064 A 
ATOM     16  C   UNL     1     -12.455   2.919   4.264  0.00  0.00     0.163 A 
ATOM     17  C   UNL     1     -11.439   3.496   3.502  0.00  0.00     0.201 A 
ATOM     18  C   UNL     1     -10.595   4.448   4.072  0.00  0.00     0.163 A 
ATOM     19  C   UNL     1     -10.766   4.823   5.405  0.00  0.00     0.064 A 
BRANCH  16  20
ATOM     20  O   UNL     1     -13.288   1.989   3.718  0.00  0.00    -0.503 OA
ATOM     21  H   UNL     1     -12.866   1.612   2.926  0.00  0.00     0.292 HD
ENDBRANCH  16  20
BRANCH  17  22
ATOM     22  O   UNL     1     -11.272   3.129   2.199  0.00  0.00    -0.501 OA
ATOM     23  H   UNL     1     -10.814   2.271   2.178  0.00  0.00     0.292 HD
ENDBRANCH  17  22
BRANCH  18  24
ATOM     24  O   UNL     1      -9.599   5.019   3.338  0.00  0.00    -0.503 OA
ATOM     25  H   UNL     1      -9.373   5.882   3.727  0.00  0.00     0.292 HD
ENDBRANCH  18  24
ENDBRANCH  12  14
ENDBRANCH  11  12
ENDBRANCH   9  11
BRANCH  10  26
ATOM     26  C   UNL     1      -9.142   2.085   7.363  0.00  0.00     0.003 A 
ATOM     27  C   UNL     1      -9.891   1.133   6.674  0.00  0.00     0.056 A 
ATOM     28  C   UNL     1      -9.584   0.832   5.347  0.00  0.00     0.162 A 
ATOM     29  C   UNL     1      -8.526   1.483   4.711  0.00  0.00     0.201 A 
ATOM     30  C   UNL     1      -7.777   2.435   5.403  0.00  0.00     0.162 A 
ATOM     31  C   UNL     1      -8.084   2.736   6.730  0.00  0.00     0.056 A 
BRANCH  28  32
ATOM     32  O   UNL     1     -10.324  -0.099   4.682  0.00  0.00    -0.503 OA
ATOM     33  H   UNL     1     -11.258   0.170   4.697  0.00  0.00     0.292 HD
ENDBRANCH  28  32
BRANCH  29  34
ATOM     34  O   UNL     1      -8.227   1.190   3.414  0.00  0.00    -0.501 OA
ATOM     35  H   UNL     1      -8.309   0.228   3.290  0.00  0.00     0.292 HD
ENDBRANCH  29  34
BRANCH  30  36
ATOM     36  O   UNL     1      -6.741   3.078   4.794  0.00  0.00    -0.503 OA
ATOM     37  H   UNL     1      -6.151   3.445   5.475  0.00  0.00     0.292 HD
ENDBRANCH  30  36
ENDBRANCH  10  26
BRANCH   6  38
ATOM     38  O   UNL     1     -11.379   4.357  13.045  0.00  0.00    -0.506 OA
ATOM     39  H   UNL     1     -11.879   3.556  12.812  0.00  0.00     0.292 HD
ENDBRANCH   6  38
BRANCH   4  40
ATOM     40  O   UNL     1      -6.704   5.200  13.310  0.00  0.00    -0.507 OA
ATOM     41  H   UNL     1      -6.158   5.748  12.719  0.00  0.00     0.292 HD
ENDBRANCH   4  40
TORSDOF 12
ENDMDL
MODEL 8
REMARK VINA RESULT:      -3.9      4.272      5.932
REMARK  12 active torsions:
REMARK  status: ('A' for Active; 'I' for Inactive)
REMARK    1  A    between atoms: C_4  and  O_25 
REMARK    2  A    between atoms: C_6  and  O_23 
REMARK    3  A    between atoms: C_9  and  O_27 
REMARK    4  A    between atoms: C_10  and  C_11 
REMARK    5  A    between atoms: C_13  and  O_21 
REMARK    6  A    between atoms: C_14  and  O_19 
REMARK    7  A    between atoms: C_15  and  O_17 
REMARK    8  A    between atoms: O_27  and  C_28 
REMARK    9  A    between atoms: C_28  and  C_30 
REMARK   10  A    between atoms: C_32  and  O_40 
REMARK   11  A    between atoms: C_33  and  O_38 
REMARK   12  A    between atoms: C_34  and  O_36 
ROOT
ATOM      1  O   UNL     1     -13.072   5.961  13.130  0.00  0.00    -0.480 OA
ATOM      2  C   UNL     1     -12.190   5.838  14.172  0.00  0.00     0.132 A 
ATOM      3  C   UNL     1     -10.868   5.546  13.828  0.00  0.00     0.091 A 
ATOM      4  C   UNL     1      -9.901   5.407  14.823  0.00  0.00     0.124 A 
ATOM      5  C   UNL     1     -10.252   5.567  16.161  0.00  0.00     0.091 A 
ATOM      6  C   UNL     1     -11.569   5.874  16.506  0.00  0.00     0.127 A 
ATOM      7  C   UNL     1     -12.548   6.025  15.513  0.00  0.00     0.039 A 
ATOM      8  C   UNL     1     -13.961   6.364  15.906  0.00  0.00     0.091 C 
ATOM      9  C   UNL     1     -14.774   6.816  14.695  0.00  0.00     0.226 C 
ATOM     10  C   UNL     1     -14.459   5.905  13.500  0.00  0.00     0.245 C 
ENDROOT
BRANCH   9  11
ATOM     11  O   UNL     1     -14.436   8.168  14.381  0.00  0.00    -0.453 OA
BRANCH  11  12
ATOM     12  C   UNL     1     -15.316   9.110  14.810  0.00  0.00     0.340 C 
ATOM     13  O   UNL     1     -15.325   9.643  15.908  0.00  0.00    -0.245 OA
BRANCH  12  14
ATOM     14  C   UNL     1     -16.301   9.424  13.743  0.00  0.00     0.066 A 
ATOM     15  C   UNL     1     -15.844   9.915  12.537  0.00  0.00     0.064 A 
ATOM     16  C   UNL     1     -16.769  10.209  11.535  0.00  0.00     0.163 A 
ATOM     17  C   UNL     1     -18.131  10.006  11.762  0.00  0.00     0.201 A 
ATOM     18  C   UNL     1     -18.567   9.507  12.989  0.00  0.00     0.163 A 
ATOM     19  C   UNL     1     -17.641   9.214  13.991  0.00  0.00     0.064 A 
BRANCH  16  20
ATOM     20  O   UNL     1     -16.331  10.693  10.339  0.00  0.00    -0.503 OA
ATOM     21  H   UNL     1     -16.966  11.354  10.012  0.00  0.00     0.292 HD
ENDBRANCH  16  20
BRANCH  17  22
ATOM     22  O   UNL     1     -19.035  10.293  10.782  0.00  0.00    -0.501 OA
ATOM     23  H   UNL     1     -18.547  10.517   9.970  0.00  0.00     0.292 HD
ENDBRANCH  17  22
BRANCH  18  24
ATOM     24  O   UNL     1     -19.894   9.304  13.222  0.00  0.00    -0.503 OA
ATOM     25  H   UNL     1     -20.021   8.402  13.561  0.00  0.00     0.292 HD
ENDBRANCH  18  24
ENDBRANCH  12  14
ENDBRANCH  11  12
ENDBRANCH   9  11
BRANCH  10  26
ATOM     26  C   UNL     1     -15.320   6.237  12.296  0.00  0.00     0.003 A 
ATOM     27  C   UNL     1     -14.728   6.708  11.126  0.00  0.00     0.056 A 
ATOM     28  C   UNL     1     -15.520   7.015  10.019  0.00  0.00     0.162 A 
ATOM     29  C   UNL     1     -16.904   6.850  10.084  0.00  0.00     0.201 A 
ATOM     30  C   UNL     1     -17.495   6.379  11.257  0.00  0.00     0.162 A 
ATOM     31  C   UNL     1     -16.703   6.072  12.364  0.00  0.00     0.056 A 
BRANCH  28  32
ATOM     32  O   UNL     1     -14.931   7.473   8.880  0.00  0.00    -0.503 OA
ATOM     33  H   UNL     1     -15.481   8.179   8.500  0.00  0.00     0.292 HD
ENDBRANCH  28  32
BRANCH  29  34
ATOM     34  O   UNL     1     -17.677   7.148   9.003  0.00  0.00    -0.501 OA
ATOM     35  H   UNL     1     -17.659   8.112   8.868  0.00  0.00     0.292 HD
ENDBRANCH  29  34
BRANCH  30  36
ATOM     36  O   UNL     1     -18.846   6.214  11.334  0.00  0.00    -0.503 OA
ATOM     37  H   UNL     1     -19.278   7.077  11.215  0.00  0.00     0.292 HD
ENDBRANCH  30  36
ENDBRANCH  10  26
BRANCH   6  38
ATOM     38  O   UNL     1     -11.881   6.023  17.826  0.00  0.00    -0.506 OA
ATOM     39  H   UNL     1     -12.810   6.301  17.905  0.00  0.00     0.292 HD
ENDBRANCH   6  38
BRANCH   4  40
ATOM     40  O   UNL     1      -8.616   5.114  14.487  0.00  0.00    -0.507 OA
ATOM     41  H   UNL     1      -8.422   4.197  14.748  0.00  0.00     0.292 HD
ENDBRANCH   4  40
TORSDOF 12
ENDMDL
MODEL 9
REMARK VINA RESULT:      -3.9     11.190     13.284
REMARK  12 active torsions:
REMARK  status: ('A' for Active; 'I' for Inactive)
REMARK    1  A    between atoms: C_4  and  O_25 
REMARK    2  A    between atoms: C_6  and  O_23 
REMARK    3  A    between atoms: C_9  and  O_27 
REMARK    4  A    between atoms: C_10  and  C_11 
REMARK    5  A    between atoms: C_13  and  O_21 
REMARK    6  A    between atoms: C_14  and  O_19 
REMARK    7  A    between atoms: C_15  and  O_17 
REMARK    8  A    between atoms: O_27  and  C_28 
REMARK    9  A    between atoms: C_28  and  C_30 
REMARK   10  A    between atoms: C_32  and  O_40 
REMARK   11  A    between atoms: C_33  and  O_38 
REMARK   12  A    between atoms: C_34  and  O_36 
ROOT
ATOM      1  O   UNL     1      -4.598   7.757  13.246  0.00  0.00    -0.480 OA
ATOM      2  C   UNL     1      -4.233   7.485  11.953  0.00  0.00     0.132 A 
ATOM      3  C   UNL     1      -5.120   6.696  11.217  0.00  0.00     0.091 A 
ATOM      4  C   UNL     1      -4.833   6.373   9.891  0.00  0.00     0.124 A 
ATOM      5  C   UNL     1      -3.663   6.843   9.298  0.00  0.00     0.091 A 
ATOM      6  C   UNL     1      -2.783   7.643  10.028  0.00  0.00     0.127 A 
ATOM      7  C   UNL     1      -3.067   7.983  11.358  0.00  0.00     0.039 A 
ATOM      8  C   UNL     1      -2.108   8.853  12.124  0.00  0.00     0.091 C 
ATOM      9  C   UNL     1      -2.750   9.380  13.406  0.00  0.00     0.226 C 
ATOM     10  C   UNL     1      -3.540   8.251  14.083  0.00  0.00     0.245 C 
ENDROOT
BRANCH   9  11
ATOM     11  O   UNL     1      -3.624  10.463  13.083  0.00  0.00    -0.453 OA
BRANCH  11  12
ATOM     12  C   UNL     1      -3.018  11.643  12.794  0.00  0.00     0.340 C 
ATOM     13  O   UNL     1      -2.084  12.144  13.401  0.00  0.00    -0.245 OA
BRANCH  12  14
ATOM     14  C   UNL     1      -3.651  12.275  11.608  0.00  0.00     0.066 A 
ATOM     15  C   UNL     1      -3.746  11.550  10.437  0.00  0.00     0.064 A 
ATOM     16  C   UNL     1      -4.341  12.144   9.324  0.00  0.00     0.163 A 
ATOM     17  C   UNL     1      -4.829  13.448   9.406  0.00  0.00     0.201 A 
ATOM     18  C   UNL     1      -4.722  14.159  10.601  0.00  0.00     0.163 A 
ATOM     19  C   UNL     1      -4.126  13.566  11.714  0.00  0.00     0.064 A 
BRANCH  16  20
ATOM     20  O   UNL     1      -4.443  11.438   8.163  0.00  0.00    -0.503 OA
ATOM     21  H   UNL     1      -4.190  10.514   8.330  0.00  0.00     0.292 HD
ENDBRANCH  16  20
BRANCH  17  22
ATOM     22  O   UNL     1      -5.412  14.028   8.318  0.00  0.00    -0.501 OA
ATOM     23  H   UNL     1      -6.295  14.346   8.576  0.00  0.00     0.292 HD
ENDBRANCH  17  22
BRANCH  18  24
ATOM     24  O   UNL     1      -5.194  15.434  10.693  0.00  0.00    -0.503 OA
ATOM     25  H   UNL     1      -4.834  15.848  11.496  0.00  0.00     0.292 HD
ENDBRANCH  18  24
ENDBRANCH  12  14
ENDBRANCH  11  12
ENDBRANCH   9  11
BRANCH  10  26
ATOM     26  C   UNL     1      -4.109   8.685  15.420  0.00  0.00     0.003 A 
ATOM     27  C   UNL     1      -5.031   7.874  16.080  0.00  0.00     0.056 A 
ATOM     28  C   UNL     1      -5.556   8.273  17.309  0.00  0.00     0.162 A 
ATOM     29  C   UNL     1      -5.159   9.484  17.877  0.00  0.00     0.201 A 
ATOM     30  C   UNL     1      -4.236  10.296  17.215  0.00  0.00     0.162 A 
ATOM     31  C   UNL     1      -3.712   9.896  15.986  0.00  0.00     0.056 A 
BRANCH  28  32
ATOM     32  O   UNL     1      -6.455   7.472  17.946  0.00  0.00    -0.503 OA
ATOM     33  H   UNL     1      -6.519   7.746  18.877  0.00  0.00     0.292 HD
ENDBRANCH  28  32
BRANCH  29  34
ATOM     34  O   UNL     1      -5.670   9.874  19.079  0.00  0.00    -0.501 OA
ATOM     35  H   UNL     1      -6.642   9.849  19.022  0.00  0.00     0.292 HD
ENDBRANCH  29  34
BRANCH  30  36
ATOM     36  O   UNL     1      -3.841  11.481  17.758  0.00  0.00    -0.503 OA
ATOM     37  H   UNL     1      -4.409  12.192  17.415  0.00  0.00     0.292 HD
ENDBRANCH  30  36
ENDBRANCH  10  26
BRANCH   6  38
ATOM     38  O   UNL     1      -1.646   8.086   9.419  0.00  0.00    -0.506 OA
ATOM     39  H   UNL     1      -1.640   7.784   8.494  0.00  0.00     0.292 HD
ENDBRANCH   6  38
BRANCH   4  40
ATOM     40  O   UNL     1      -5.694   5.597   9.178  0.00  0.00    -0.507 OA
ATOM     41  H   UNL     1      -5.272   4.738   9.000  0.00  0.00     0.292 HD
ENDBRANCH   4  40
TORSDOF 12
ENDMDL
MODEL 10
REMARK VINA RESULT:      -3.9      7.230     11.366
REMARK  12 active torsions:
REMARK  status: ('A' for Active; 'I' for Inactive)
REMARK    1  A    between atoms: C_4  and  O_25 
REMARK    2  A    between atoms: C_6  and  O_23 
REMARK    3  A    between atoms: C_9  and  O_27 
REMARK    4  A    between atoms: C_10  and  C_11 
REMARK    5  A    between atoms: C_13  and  O_21 
REMARK    6  A    between atoms: C_14  and  O_19 
REMARK    7  A    between atoms: C_15  and  O_17 
REMARK    8  A    between atoms: O_27  and  C_28 
REMARK    9  A    between atoms: C_28  and  C_30 
REMARK   10  A    between atoms: C_32  and  O_40 
REMARK   11  A    between atoms: C_33  and  O_38 
REMARK   12  A    between atoms: C_34  and  O_36 
ROOT
ATOM      1  O   UNL     1     -13.548   5.291   8.176  0.00  0.00    -0.480 OA
ATOM      2  C   UNL     1     -12.622   4.531   7.510  0.00  0.00     0.132 A 
ATOM      3  C   UNL     1     -11.882   5.187   6.524  0.00  0.00     0.091 A 
ATOM      4  C   UNL     1     -10.913   4.493   5.800  0.00  0.00     0.124 A 
ATOM      5  C   UNL     1     -10.679   3.146   6.064  0.00  0.00     0.091 A 
ATOM      6  C   UNL     1     -11.408   2.493   7.059  0.00  0.00     0.127 A 
ATOM      7  C   UNL     1     -12.377   3.183   7.800  0.00  0.00     0.039 A 
ATOM      8  C   UNL     1     -13.146   2.461   8.874  0.00  0.00     0.091 C 
ATOM      9  C   UNL     1     -13.886   3.447   9.776  0.00  0.00     0.226 C 
ATOM     10  C   UNL     1     -14.528   4.544   8.915  0.00  0.00     0.245 C 
ENDROOT
BRANCH   9  11
ATOM     11  O   UNL     1     -12.960   4.027  10.696  0.00  0.00    -0.453 OA
BRANCH  11  12
ATOM     12  C   UNL     1     -13.154   3.715  12.004  0.00  0.00     0.340 C 
ATOM     13  O   UNL     1     -13.986   2.938  12.445  0.00  0.00    -0.245 OA
BRANCH  12  14
ATOM     14  C   UNL     1     -12.200   4.461  12.863  0.00  0.00     0.066 A 
ATOM     15  C   UNL     1     -10.861   4.462  12.527  0.00  0.00     0.064 A 
ATOM     16  C   UNL     1      -9.964   5.163  13.334  0.00  0.00     0.163 A 
ATOM     17  C   UNL     1     -10.426   5.848  14.458  0.00  0.00     0.201 A 
ATOM     18  C   UNL     1     -11.785   5.832  14.775  0.00  0.00     0.163 A 
ATOM     19  C   UNL     1     -12.681   5.130  13.969  0.00  0.00     0.064 A 
BRANCH  16  20
ATOM     20  O   UNL     1      -8.640   5.174  13.012  0.00  0.00    -0.503 OA
ATOM     21  H   UNL     1      -8.501   4.623  12.222  0.00  0.00     0.292 HD
ENDBRANCH  16  20
BRANCH  17  22
ATOM     22  O   UNL     1      -9.550   6.534  15.246  0.00  0.00    -0.501 OA
ATOM     23  H   UNL     1      -8.793   5.954  15.440  0.00  0.00     0.292 HD
ENDBRANCH  17  22
BRANCH  18  24
ATOM     24  O   UNL     1     -12.248   6.497  15.871  0.00  0.00    -0.503 OA
ATOM     25  H   UNL     1     -12.733   5.873  16.438  0.00  0.00     0.292 HD
ENDBRANCH  18  24
ENDBRANCH  12  14
ENDBRANCH  11  12
ENDBRANCH   9  11
BRANCH  10  26
ATOM     26  C   UNL     1     -15.370   5.492   9.747  0.00  0.00     0.003 A 
ATOM     27  C   UNL     1     -16.538   5.034  10.355  0.00  0.00     0.056 A 
ATOM     28  C   UNL     1     -17.313   5.907  11.119  0.00  0.00     0.162 A 
ATOM     29  C   UNL     1     -16.920   7.236  11.274  0.00  0.00     0.201 A 
ATOM     30  C   UNL     1     -15.751   7.693  10.664  0.00  0.00     0.162 A 
ATOM     31  C   UNL     1     -14.976   6.821   9.900  0.00  0.00     0.056 A 
BRANCH  28  32
ATOM     32  O   UNL     1     -18.452   5.448  11.710  0.00  0.00    -0.503 OA
ATOM     33  H   UNL     1     -18.261   5.231  12.639  0.00  0.00     0.292 HD
ENDBRANCH  28  32
BRANCH  29  34
ATOM     34  O   UNL     1     -17.676   8.088  12.022  0.00  0.00    -0.501 OA
ATOM     35  H   UNL     1     -17.255   8.966  12.009  0.00  0.00     0.292 HD
ENDBRANCH  29  34
BRANCH  30  36
ATOM     36  O   UNL     1     -15.356   8.989  10.807  0.00  0.00    -0.503 OA
ATOM     37  H   UNL     1     -16.056   9.485  11.266  0.00  0.00     0.292 HD
ENDBRANCH  30  36
ENDBRANCH  10  26
BRANCH   6  38
ATOM     38  O   UNL     1     -11.156   1.172   7.292  0.00  0.00    -0.506 OA
ATOM     39  H   UNL     1     -10.651   0.807   6.546  0.00  0.00     0.292 HD
ENDBRANCH   6  38
BRANCH   4  40
ATOM     40  O   UNL     1     -10.199   5.132   4.833  0.00  0.00    -0.507 OA
ATOM     41  H   UNL     1     -10.817   5.545   4.204  0.00  0.00     0.292 HD
ENDBRANCH   4  40
TORSDOF 12
ENDMDL
