REMARK VINA RESULT:      -8.5      1.798      8.090
REMARK  13 active torsions:
REMARK  status: ('A' for Active; 'I' for Inactive)
REMARK    1  A    between atoms: C_2  and  O_3 
REMARK    2  A    between atoms: C_15  and  O_16 
REMARK    3  A    between atoms: C_28  and  O_29 
REMARK    4  A    between atoms: C_41  and  O_42 
REMARK    5  A    between atoms: C_54  and  C_55 
REMARK    6  A    between atoms: O_3  and  C_4 
REMARK    7  A    between atoms: C_4  and  C_6 
REMARK    8  A    between atoms: O_16  and  C_17 
REMARK    9  A    between atoms: C_17  and  C_19 
REMARK   10  A    between atoms: O_29  and  C_30 
REMARK   11  A    between atoms: C_30  and  C_32 
REMARK   12  A    between atoms: O_42  and  C_43 
REMARK   13  A    between atoms: C_43  and  C_45 
ROOT
ATOM      1  O   LIG     1     172.589 176.047 169.369  0.00  0.00    -0.314 OA
ATOM      2  C   LIG     1     173.995 176.375 169.383  0.00  0.00     0.335 C 
ATOM      3  C   LIG     1     174.703 175.773 170.630  0.00  0.00     0.282 C 
ATOM      4  C   LIG     1     174.405 174.246 170.723  0.00  0.00     0.257 C 
ATOM      5  C   LIG     1     172.877 173.962 170.636  0.00  0.00     0.242 C 
ATOM      6  C   LIG     1     172.275 174.642 169.369  0.00  0.00     0.195 C 
ENDROOT
BRANCH   2   7
ATOM      7  O   LIG     1     174.041 177.806 169.427  0.00  0.00    -0.417 OA
BRANCH   7   8
ATOM      8  C   LIG     1     174.672 178.541 168.468  0.00  0.00     0.343 C 
ATOM      9  O   LIG     1     173.981 178.931 167.497  0.00  0.00    -0.245 OA
BRANCH   8  10
ATOM     10  C   LIG     1     176.042 178.896 168.614  0.00  0.00     0.082 A 
ATOM     11  C   LIG     1     177.046 178.256 167.846  0.00  0.00     0.052 A 
ATOM     12  C   LIG     1     178.389 178.677 167.906  0.00  0.00     0.238 A 
ATOM     13  C   LIG     1     178.750 179.754 168.740  0.00  0.00     0.273 A 
ATOM     14  O   LIG     1     179.330 178.057 167.152  0.00  0.00    -0.283 OA
ATOM     15  C   LIG     1     177.772 180.382 169.533  0.00  0.00     0.238 A 
ATOM     16  O   LIG     1     180.029 180.206 168.789  0.00  0.00    -0.280 OA
ATOM     17  C   LIG     1     176.434 179.945 169.482  0.00  0.00     0.052 A 
ATOM     18  O   LIG     1     178.123 181.420 170.335  0.00  0.00    -0.283 OA
ENDBRANCH   8  10
ENDBRANCH   7   8
ENDBRANCH   2   7
BRANCH   3  19
ATOM     19  O   LIG     1     176.130 175.953 170.577  0.00  0.00    -0.439 OA
BRANCH  19  20
ATOM     20  C   LIG     1     176.856 176.849 171.306  0.00  0.00     0.342 C 
ATOM     21  O   LIG     1     176.188 177.607 172.048  0.00  0.00    -0.245 OA
BRANCH  20  22
ATOM     22  C   LIG     1     178.266 176.986 171.182  0.00  0.00     0.082 A 
ATOM     23  C   LIG     1     178.987 177.885 172.005  0.00  0.00     0.052 A 
ATOM     24  C   LIG     1     180.383 178.026 171.886  0.00  0.00     0.238 A 
ATOM     25  O   LIG     1     181.022 178.903 172.701  0.00  0.00    -0.283 OA
ATOM     26  C   LIG     1     181.089 177.268 170.931  0.00  0.00     0.273 A 
ATOM     27  O   LIG     1     182.436 177.414 170.823  0.00  0.00    -0.280 OA
ATOM     28  C   LIG     1     180.390 176.368 170.101  0.00  0.00     0.238 A 
ATOM     29  C   LIG     1     178.993 176.230 170.232  0.00  0.00     0.052 A 
ATOM     30  O   LIG     1     181.065 175.641 169.175  0.00  0.00    -0.283 OA
ENDBRANCH  20  22
ENDBRANCH  19  20
ENDBRANCH   3  19
BRANCH   4  31
ATOM     31  O   LIG     1     174.902 173.689 171.957  0.00  0.00    -0.441 OA
BRANCH  31  32
ATOM     32  C   LIG     1     176.022 172.918 172.128  0.00  0.00     0.342 C 
ATOM     33  O   LIG     1     175.916 171.720 171.780  0.00  0.00    -0.245 OA
BRANCH  32  34
ATOM     34  C   LIG     1     177.279 173.430 172.557  0.00  0.00     0.082 A 
ATOM     35  C   LIG     1     178.491 172.971 171.985  0.00  0.00     0.052 A 
ATOM     36  C   LIG     1     179.733 173.495 172.399  0.00  0.00     0.238 A 
ATOM     37  C   LIG     1     179.780 174.492 173.391  0.00  0.00     0.273 A 
ATOM     38  O   LIG     1     180.888 173.043 171.847  0.00  0.00    -0.283 OA
ATOM     39  O   LIG     1     180.979 174.998 173.775  0.00  0.00    -0.280 OA
ATOM     40  C   LIG     1     178.584 174.954 173.976  0.00  0.00     0.238 A 
ATOM     41  O   LIG     1     178.631 175.900 174.947  0.00  0.00    -0.283 OA
ATOM     42  C   LIG     1     177.348 174.433 173.552  0.00  0.00     0.052 A 
ENDBRANCH  32  34
ENDBRANCH  31  32
ENDBRANCH   4  31
BRANCH   6  43
ATOM     43  C   LIG     1     170.733 174.514 169.294  0.00  0.00     0.215 C 
ATOM     44  O   LIG     1     170.230 175.181 168.140  0.00  0.00    -0.218 OA
ENDBRANCH   6  43
BRANCH   5  45
ATOM     45  O   LIG     1     172.640 172.542 170.548  0.00  0.00    -0.443 OA
BRANCH  45  46
ATOM     46  C   LIG     1     172.020 171.718 171.447  0.00  0.00     0.341 C 
ATOM     47  O   LIG     1     170.777 171.852 171.525  0.00  0.00    -0.245 OA
BRANCH  46  48
ATOM     48  C   LIG     1     172.685 170.831 172.330  0.00  0.00     0.082 A 
ATOM     49  C   LIG     1     173.016 169.501 171.835  0.00  0.00     0.052 A 
ATOM     50  C   LIG     1     173.648 168.599 172.717  0.00  0.00     0.238 A 
ATOM     51  O   LIG     1     173.951 167.347 172.290  0.00  0.00    -0.283 OA
ATOM     52  C   LIG     1     173.979 168.951 174.046  0.00  0.00     0.273 A 
ATOM     53  O   LIG     1     174.600 168.041 174.845  0.00  0.00    -0.280 OA
ATOM     54  C   LIG     1     173.638 170.288 174.507  0.00  0.00     0.238 A 
ATOM     55  O   LIG     1     174.017 170.521 175.831  0.00  0.00    -0.283 OA
ATOM     56  C   LIG     1     172.963 171.298 173.676  0.00  0.00     0.052 A 
ENDBRANCH  46  48
ENDBRANCH  45  46
ENDBRANCH   5  45
TORSDOF 13
