REMARK VINA RESULT:      -8.5      0.800      7.950
REMARK  13 active torsions:
REMARK  status: ('A' for Active; 'I' for Inactive)
REMARK    1  A    between atoms: C_2  and  O_3 
REMARK    2  A    between atoms: C_15  and  O_16 
REMARK    3  A    between atoms: C_28  and  O_29 
REMARK    4  A    between atoms: C_41  and  O_42 
REMARK    5  A    between atoms: C_54  and  C_55 
REMARK    6  A    between atoms: O_3  and  C_4 
REMARK    7  A    between atoms: C_4  and  C_6 
REMARK    8  A    between atoms: O_16  and  C_17 
REMARK    9  A    between atoms: C_17  and  C_19 
REMARK   10  A    between atoms: O_29  and  C_30 
REMARK   11  A    between atoms: C_30  and  C_32 
REMARK   12  A    between atoms: O_42  and  C_43 
REMARK   13  A    between atoms: C_43  and  C_45 
ROOT
ATOM      1  O   LIG     1     173.707 174.839 170.033  0.00  0.00    -0.314 OA
ATOM      2  C   LIG     1     174.892 175.664 170.067  0.00  0.00     0.335 C 
ATOM      3  C   LIG     1     175.738 175.386 171.342  0.00  0.00     0.282 C 
ATOM      4  C   LIG     1     176.022 173.858 171.467  0.00  0.00     0.257 C 
ATOM      5  C   LIG     1     174.709 173.029 171.357  0.00  0.00     0.242 C 
ATOM      6  C   LIG     1     173.935 173.418 170.062  0.00  0.00     0.195 C 
ENDROOT
BRANCH   2   7
ATOM      7  O   LIG     1     174.405 177.011 170.077  0.00  0.00    -0.417 OA
BRANCH   7   8
ATOM      8  C   LIG     1     174.576 177.851 169.016  0.00  0.00     0.343 C 
ATOM      9  O   LIG     1     173.603 178.000 168.240  0.00  0.00    -0.245 OA
BRANCH   8  10
ATOM     10  C   LIG     1     175.793 178.569 168.852  0.00  0.00     0.082 A 
ATOM     11  C   LIG     1     175.980 179.834 169.462  0.00  0.00     0.052 A 
ATOM     12  C   LIG     1     177.221 180.499 169.395  0.00  0.00     0.238 A 
ATOM     13  C   LIG     1     178.301 179.903 168.714  0.00  0.00     0.273 A 
ATOM     14  O   LIG     1     177.378 181.704 169.996  0.00  0.00    -0.283 OA
ATOM     15  C   LIG     1     178.125 178.661 168.077  0.00  0.00     0.238 A 
ATOM     16  O   LIG     1     179.517 180.503 168.665  0.00  0.00    -0.280 OA
ATOM     17  C   LIG     1     176.878 178.009 168.132  0.00  0.00     0.052 A 
ATOM     18  O   LIG     1     179.168 178.089 167.422  0.00  0.00    -0.283 OA
ENDBRANCH   8  10
ENDBRANCH   7   8
ENDBRANCH   2   7
BRANCH   3  19
ATOM     19  O   LIG     1     176.999 176.079 171.312  0.00  0.00    -0.439 OA
BRANCH  19  20
ATOM     20  C   LIG     1     177.415 177.030 172.198  0.00  0.00     0.342 C 
ATOM     21  O   LIG     1     176.699 177.168 173.218  0.00  0.00    -0.245 OA
BRANCH  20  22
ATOM     22  C   LIG     1     178.534 177.874 171.958  0.00  0.00     0.082 A 
ATOM     23  C   LIG     1     178.556 179.208 172.434  0.00  0.00     0.052 A 
ATOM     24  C   LIG     1     179.661 180.050 172.197  0.00  0.00     0.238 A 
ATOM     25  O   LIG     1     179.628 181.319 172.676  0.00  0.00    -0.283 OA
ATOM     26  C   LIG     1     180.770 179.570 171.471  0.00  0.00     0.273 A 
ATOM     27  O   LIG     1     181.829 180.393 171.248  0.00  0.00    -0.280 OA
ATOM     28  C   LIG     1     180.766 178.246 170.988  0.00  0.00     0.238 A 
ATOM     29  C   LIG     1     179.658 177.410 171.235  0.00  0.00     0.052 A 
ATOM     30  O   LIG     1     181.829 177.783 170.284  0.00  0.00    -0.283 OA
ENDBRANCH  20  22
ENDBRANCH  19  20
ENDBRANCH   3  19
BRANCH   4  31
ATOM     31  O   LIG     1     176.656 173.544 172.724  0.00  0.00    -0.441 OA
BRANCH  31  32
ATOM     32  C   LIG     1     177.957 173.167 172.926  0.00  0.00     0.342 C 
ATOM     33  O   LIG     1     178.154 172.380 173.880  0.00  0.00    -0.245 OA
BRANCH  32  34
ATOM     34  C   LIG     1     179.030 173.524 172.061  0.00  0.00     0.082 A 
ATOM     35  C   LIG     1     180.197 174.152 172.562  0.00  0.00     0.052 A 
ATOM     36  C   LIG     1     181.266 174.487 171.706  0.00  0.00     0.238 A 
ATOM     37  C   LIG     1     181.185 174.191 170.332  0.00  0.00     0.273 A 
ATOM     38  O   LIG     1     182.377 175.093 172.197  0.00  0.00    -0.283 OA
ATOM     39  O   LIG     1     182.224 174.507 169.517  0.00  0.00    -0.280 OA
ATOM     40  C   LIG     1     180.028 173.574 169.816  0.00  0.00     0.238 A 
ATOM     41  O   LIG     1     179.941 173.309 168.488  0.00  0.00    -0.283 OA
ATOM     42  C   LIG     1     178.968 173.236 170.678  0.00  0.00     0.052 A 
ENDBRANCH  32  34
ENDBRANCH  31  32
ENDBRANCH   4  31
BRANCH   6  43
ATOM     43  C   LIG     1     172.551 172.728 169.960  0.00  0.00     0.215 C 
ATOM     44  O   LIG     1     171.504 173.693 170.000  0.00  0.00    -0.218 OA
ENDBRANCH   6  43
BRANCH   5  45
ATOM     45  O   LIG     1     175.017 171.620 171.300  0.00  0.00    -0.443 OA
BRANCH  45  46
ATOM     46  C   LIG     1     174.682 170.633 172.186  0.00  0.00     0.341 C 
ATOM     47  O   LIG     1     173.598 170.050 171.952  0.00  0.00    -0.245 OA
BRANCH  46  48
ATOM     48  C   LIG     1     175.411 170.312 173.359  0.00  0.00     0.082 A 
ATOM     49  C   LIG     1     176.464 169.311 173.252  0.00  0.00     0.052 A 
ATOM     50  C   LIG     1     177.173 168.961 174.422  0.00  0.00     0.238 A 
ATOM     51  O   LIG     1     178.146 168.018 174.357  0.00  0.00    -0.283 OA
ATOM     52  C   LIG     1     176.903 169.560 175.674  0.00  0.00     0.273 A 
ATOM     53  O   LIG     1     177.629 169.189 176.764  0.00  0.00    -0.280 OA
ATOM     54  C   LIG     1     175.848 170.558 175.745  0.00  0.00     0.238 A 
ATOM     55  O   LIG     1     175.676 171.080 177.028  0.00  0.00    -0.283 OA
ATOM     56  C   LIG     1     175.037 170.982 174.591  0.00  0.00     0.052 A 
ENDBRANCH  46  48
ENDBRANCH  45  46
ENDBRANCH   5  45
TORSDOF 13
