REMARK VINA RESULT:      -6.3      1.500      3.082
REMARK  10 active torsions:
REMARK  status: ('A' for Active; 'I' for Inactive)
REMARK    1  A    between atoms: O_2  and  C_12 
REMARK    2  A    between atoms: O_2  and  C_14 
REMARK    3  A    between atoms: O_3  and  C_8 
REMARK    4  A    between atoms: O_4  and  C_9 
REMARK    5  A    between atoms: O_5  and  C_10 
REMARK    6  A    between atoms: O_6  and  C_13 
REMARK    7  A    between atoms: O_7  and  C_21 
REMARK    8  A    between atoms: C_11  and  C_13 
REMARK    9  A    between atoms: C_14  and  C_15 
REMARK   10  A    between atoms: C_15  and  C_16 
ROOT
HETATM    1  O   UNK     0     185.330 184.896 173.765  0.00  0.00    -0.348 OA
HETATM    2  C   UNK     0     183.659 182.783 174.761  0.00  0.00     0.183 C 
HETATM    3  C   UNK     0     185.186 182.688 174.754  0.00  0.00     0.180 C 
HETATM    4  C   UNK     0     183.164 183.800 173.733  0.00  0.00     0.204 C 
HETATM    5  C   UNK     0     185.817 184.079 174.831  0.00  0.00     0.179 C 
HETATM    6  C   UNK     0     183.924 185.121 173.845  0.00  0.00     0.291 C 
ENDROOT
BRANCH   5   7
HETATM    7  C   UNK     0     187.335 184.019 174.707  0.00  0.00     0.198 C 
BRANCH   7   8
HETATM    8  O   UNK     0     187.881 183.723 175.979  0.00  0.00    -0.398 OA
HETATM    9  H   UNK     0     188.670 183.172 175.840  0.00  0.00     0.209 HD
ENDBRANCH   7   8
ENDBRANCH   5   7
BRANCH   6  10
HETATM   10  O   UNK     0     183.508 185.960 172.769  0.00  0.00    -0.358 OA
BRANCH  10  11
HETATM   11  C   UNK     0     184.493 186.015 171.748  0.00  0.00     0.175 C 
BRANCH  11  12
HETATM   12  C   UNK     0     183.824 186.265 170.401  0.00  0.00     0.065 C 
BRANCH  12  13
HETATM   13  C   UNK     0     183.811 187.728 170.029  0.00  0.00    -0.056 A 
HETATM   14  C   UNK     0     184.858 188.541 170.431  0.00  0.00     0.010 A 
HETATM   15  C   UNK     0     184.846 189.893 170.088  0.00  0.00     0.037 A 
HETATM   16  C   UNK     0     183.784 190.414 169.347  0.00  0.00     0.065 A 
HETATM   17  C   UNK     0     182.737 189.584 168.949  0.00  0.00     0.037 A 
HETATM   18  C   UNK     0     182.750 188.232 169.293  0.00  0.00     0.010 A 
BRANCH  16  19
HETATM   19  O   UNK     0     183.773 191.733 169.012  0.00  0.00    -0.361 OA
HETATM   20  H   UNK     0     183.847 192.265 169.823  0.00  0.00     0.217 HD
ENDBRANCH  16  19
ENDBRANCH  12  13
ENDBRANCH  11  12
ENDBRANCH  10  11
ENDBRANCH   6  10
BRANCH   3  21
HETATM   21  O   UNK     0     185.615 181.913 175.870  0.00  0.00    -0.390 OA
HETATM   22  H   UNK     0     186.013 182.516 176.520  0.00  0.00     0.210 HD
ENDBRANCH   3  21
BRANCH   4  23
HETATM   23  O   UNK     0     181.778 184.062 173.956  0.00  0.00    -0.388 OA
HETATM   24  H   UNK     0     181.405 183.312 174.451  0.00  0.00     0.210 HD
ENDBRANCH   4  23
BRANCH   2  25
HETATM   25  O   UNK     0     183.135 181.493 174.446  0.00  0.00    -0.390 OA
HETATM   26  H   UNK     0     182.348 181.354 175.000  0.00  0.00     0.210 HD
ENDBRANCH   2  25
TORSDOF 10
