REMARK VINA RESULT:      -6.2      3.941      7.188
REMARK  10 active torsions:
REMARK  status: ('A' for Active; 'I' for Inactive)
REMARK    1  A    between atoms: O_2  and  C_12 
REMARK    2  A    between atoms: O_2  and  C_14 
REMARK    3  A    between atoms: O_3  and  C_8 
REMARK    4  A    between atoms: O_4  and  C_9 
REMARK    5  A    between atoms: O_5  and  C_10 
REMARK    6  A    between atoms: O_6  and  C_13 
REMARK    7  A    between atoms: O_7  and  C_21 
REMARK    8  A    between atoms: C_11  and  C_13 
REMARK    9  A    between atoms: C_14  and  C_15 
REMARK   10  A    between atoms: C_15  and  C_16 
ROOT
HETATM    1  O   UNK     0     186.026 184.295 172.603  0.00  0.00    -0.348 OA
HETATM    2  C   UNK     0     186.057 185.429 175.241  0.00  0.00     0.183 C 
HETATM    3  C   UNK     0     187.000 185.901 174.134  0.00  0.00     0.180 C 
HETATM    4  C   UNK     0     185.545 184.015 174.966  0.00  0.00     0.204 C 
HETATM    5  C   UNK     0     186.378 185.671 172.755  0.00  0.00     0.179 C 
HETATM    6  C   UNK     0     185.030 183.878 173.534  0.00  0.00     0.291 C 
ENDROOT
BRANCH   5   7
HETATM    7  C   UNK     0     187.346 186.025 171.632  0.00  0.00     0.198 C 
BRANCH   7   8
HETATM    8  O   UNK     0     187.494 187.432 171.589  0.00  0.00    -0.398 OA
HETATM    9  H   UNK     0     188.445 187.629 171.639  0.00  0.00     0.209 HD
ENDBRANCH   7   8
ENDBRANCH   5   7
BRANCH   6  10
HETATM   10  O   UNK     0     184.707 182.506 173.313  0.00  0.00    -0.358 OA
BRANCH  10  11
HETATM   11  C   UNK     0     183.739 182.363 172.284  0.00  0.00     0.175 C 
BRANCH  11  12
HETATM   12  C   UNK     0     182.339 182.514 172.869  0.00  0.00     0.065 C 
BRANCH  12  13
HETATM   13  C   UNK     0     181.474 181.306 172.606  0.00  0.00    -0.056 A 
HETATM   14  C   UNK     0     182.068 180.063 172.465  0.00  0.00     0.010 A 
HETATM   15  C   UNK     0     181.268 178.946 172.222  0.00  0.00     0.037 A 
HETATM   16  C   UNK     0     179.883 179.089 172.123  0.00  0.00     0.065 A 
HETATM   17  C   UNK     0     179.299 180.346 172.268  0.00  0.00     0.037 A 
HETATM   18  C   UNK     0     180.100 181.462 172.511  0.00  0.00     0.010 A 
BRANCH  16  19
HETATM   19  O   UNK     0     179.103 177.998 171.886  0.00  0.00    -0.361 OA
HETATM   20  H   UNK     0     178.182 178.289 171.770  0.00  0.00     0.217 HD
ENDBRANCH  16  19
ENDBRANCH  12  13
ENDBRANCH  11  12
ENDBRANCH  10  11
ENDBRANCH   6  10
BRANCH   3  21
HETATM   21  O   UNK     0     187.268 187.291 174.304  0.00  0.00    -0.390 OA
HETATM   22  H   UNK     0     188.231 187.404 174.384  0.00  0.00     0.210 HD
ENDBRANCH   3  21
BRANCH   4  23
HETATM   23  O   UNK     0     184.471 183.718 175.859  0.00  0.00    -0.388 OA
HETATM   24  H   UNK     0     183.658 184.107 175.492  0.00  0.00     0.210 HD
ENDBRANCH   4  23
BRANCH   2  25
HETATM   25  O   UNK     0     186.780 185.443 176.472  0.00  0.00    -0.390 OA
HETATM   26  H   UNK     0     186.150 185.671 177.178  0.00  0.00     0.210 HD
ENDBRANCH   2  25
TORSDOF 10
