REMARK VINA RESULT:      -6.3     10.566     13.777
REMARK  10 active torsions:
REMARK  status: ('A' for Active; 'I' for Inactive)
REMARK    1  A    between atoms: O_2  and  C_12 
REMARK    2  A    between atoms: O_2  and  C_14 
REMARK    3  A    between atoms: O_3  and  C_8 
REMARK    4  A    between atoms: O_4  and  C_9 
REMARK    5  A    between atoms: O_5  and  C_10 
REMARK    6  A    between atoms: O_6  and  C_13 
REMARK    7  A    between atoms: O_7  and  C_21 
REMARK    8  A    between atoms: C_11  and  C_13 
REMARK    9  A    between atoms: C_14  and  C_15 
REMARK   10  A    between atoms: C_15  and  C_16 
ROOT
HETATM    1  O   UNK     0     191.106 186.512 182.673  0.00  0.00    -0.348 OA
HETATM    2  C   UNK     0     192.051 189.182 182.198  0.00  0.00     0.183 C 
HETATM    3  C   UNK     0     191.311 188.371 181.133  0.00  0.00     0.180 C 
HETATM    4  C   UNK     0     192.680 188.268 183.251  0.00  0.00     0.204 C 
HETATM    5  C   UNK     0     190.372 187.352 181.781  0.00  0.00     0.179 C 
HETATM    6  C   UNK     0     191.676 187.235 183.762  0.00  0.00     0.291 C 
ENDROOT
BRANCH   5   7
HETATM    7  C   UNK     0     189.712 186.452 180.742  0.00  0.00     0.198 C 
BRANCH   7   8
HETATM    8  O   UNK     0     188.431 186.080 181.215  0.00  0.00    -0.398 OA
HETATM    9  H   UNK     0     187.876 186.878 181.220  0.00  0.00     0.209 HD
ENDBRANCH   7   8
ENDBRANCH   5   7
BRANCH   6  10
HETATM   10  O   UNK     0     192.372 186.338 184.625  0.00  0.00    -0.358 OA
BRANCH  10  11
HETATM   11  C   UNK     0     193.251 185.496 183.895  0.00  0.00     0.175 C 
BRANCH  11  12
HETATM   12  C   UNK     0     193.056 184.047 184.327  0.00  0.00     0.065 C 
BRANCH  12  13
HETATM   13  C   UNK     0     191.757 183.468 183.820  0.00  0.00    -0.056 A 
HETATM   14  C   UNK     0     190.819 183.006 184.728  0.00  0.00     0.010 A 
HETATM   15  C   UNK     0     189.619 182.471 184.260  0.00  0.00     0.037 A 
HETATM   16  C   UNK     0     189.374 182.404 182.888  0.00  0.00     0.065 A 
HETATM   17  C   UNK     0     190.328 182.873 181.985  0.00  0.00     0.037 A 
HETATM   18  C   UNK     0     191.528 183.408 182.455  0.00  0.00     0.010 A 
BRANCH  16  19
HETATM   19  O   UNK     0     188.203 181.881 182.431  0.00  0.00    -0.361 OA
HETATM   20  H   UNK     0     188.323 181.597 181.509  0.00  0.00     0.217 HD
ENDBRANCH  16  19
ENDBRANCH  12  13
ENDBRANCH  11  12
ENDBRANCH  10  11
ENDBRANCH   6  10
BRANCH   3  21
HETATM   21  O   UNK     0     190.553 189.255 180.311  0.00  0.00    -0.390 OA
HETATM   22  H   UNK     0     190.639 190.153 180.675  0.00  0.00     0.210 HD
ENDBRANCH   3  21
BRANCH   4  23
HETATM   23  O   UNK     0     193.117 189.054 184.360  0.00  0.00    -0.388 OA
HETATM   24  H   UNK     0     192.545 188.848 185.120  0.00  0.00     0.210 HD
ENDBRANCH   4  23
BRANCH   2  25
HETATM   25  O   UNK     0     193.075 189.935 181.548  0.00  0.00    -0.390 OA
HETATM   26  H   UNK     0     193.626 189.308 181.050  0.00  0.00     0.210 HD
ENDBRANCH   2  25
TORSDOF 10
