MODEL 1
REMARK VINA RESULT:      -7.7      0.000      0.000
REMARK  11 active torsions:
REMARK  status: ('A' for Active; 'I' for Inactive)
REMARK    1  A    between atoms: O_1  and  C_9 
REMARK    2  A    between atoms: O_2  and  C_19 
REMARK    3  A    between atoms: O_3  and  C_26 
REMARK    4  A    between atoms: O_4  and  C_27 
REMARK    5  A    between atoms: O_6  and  C_28 
REMARK    6  A    between atoms: O_7  and  C_32 
REMARK    7  A    between atoms: C_10  and  C_19 
REMARK    8  A    between atoms: C_19  and  C_27 
REMARK    9  A    between atoms: C_27  and  C_30 
REMARK   10  A    between atoms: C_30  and  C_31 
REMARK   11  A    between atoms: C_31  and  C_32 
ROOT
HETATM    1  O   UNK     0     167.221 172.150 167.820  0.00  0.00    -0.384 OA
HETATM    2  H   UNK     0     167.825 172.061 167.063  0.00  0.00     0.211 HD
ENDROOT
BRANCH   1   3
HETATM    3  C   UNK     0     167.212 173.539 168.218  0.00  0.00     0.089 C 
HETATM    4  C   UNK     0     166.890 173.639 169.732  0.00  0.00    -0.002 C 
HETATM    5  C   UNK     0     165.445 173.079 169.758  0.00  0.00     0.034 C 
HETATM    6  C   UNK     0     167.906 172.779 170.507  0.00  0.00     0.014 C 
HETATM    7  C   UNK     0     166.928 175.098 170.264  0.00  0.00     0.019 C 
HETATM    8  C   UNK     0     164.796 173.680 168.490  0.00  0.00     0.012 C 
HETATM    9  C   UNK     0     165.953 174.143 167.578  0.00  0.00     0.044 C 
HETATM   10  C   UNK     0     169.344 173.255 170.245  0.00  0.00     0.011 C 
HETATM   11  C   UNK     0     169.722 173.429 168.741  0.00  0.00     0.027 C 
HETATM   12  C   UNK     0     171.118 174.143 168.551  0.00  0.00    -0.023 C 
HETATM   13  C   UNK     0     168.598 174.062 167.906  0.00  0.00    -0.037 C 
HETATM   14  C   UNK     0     171.350 174.468 167.049  0.00  0.00     0.071 C 
HETATM   15  C   UNK     0     172.290 173.251 169.050  0.00  0.00     0.044 C 
HETATM   16  C   UNK     0     171.191 175.474 169.348  0.00  0.00     0.016 C 
HETATM   17  C   UNK     0     171.593 173.221 166.181  0.00  0.00     0.047 C 
HETATM   18  C   UNK     0     170.193 175.265 166.475  0.00  0.00     0.154 C 
HETATM   19  C   UNK     0     172.752 172.379 166.713  0.00  0.00     0.147 C 
HETATM   20  C   UNK     0     172.532 172.012 168.181  0.00  0.00     0.147 C 
HETATM   21  O   UNK     0     170.366 176.126 165.614  0.00  0.00    -0.293 OA
HETATM   22  C   UNK     0     168.818 174.933 166.909  0.00  0.00     0.057 C 
BRANCH   5  23
HETATM   23  C   UNK     0     164.634 173.346 171.020  0.00  0.00     0.084 C 
HETATM   24  C   UNK     0     164.192 172.014 171.648  0.00  0.00     0.049 C 
BRANCH  23  25
HETATM   25  O   UNK     0     165.479 174.008 171.971  0.00  0.00    -0.387 OA
HETATM   26  H   UNK     0     166.314 173.517 172.044  0.00  0.00     0.210 HD
ENDBRANCH  23  25
BRANCH  23  27
HETATM   27  C   UNK     0     163.406 174.258 170.747  0.00  0.00     0.152 C 
BRANCH  27  28
HETATM   28  O   UNK     0     163.415 175.360 171.660  0.00  0.00    -0.393 OA
HETATM   29  H   UNK     0     162.492 175.649 171.775  0.00  0.00     0.210 HD
ENDBRANCH  27  28
BRANCH  27  30
HETATM   30  C   UNK     0     162.048 173.541 170.865  0.00  0.00     0.037 C 
BRANCH  30  31
HETATM   31  C   UNK     0     160.975 174.186 169.967  0.00  0.00     0.040 C 
BRANCH  31  32
HETATM   32  C   UNK     0     160.759 173.475 168.616  0.00  0.00     0.051 C 
HETATM   33  C   UNK     0     161.037 174.455 167.471  0.00  0.00     0.045 C 
HETATM   34  C   UNK     0     161.635 172.230 168.461  0.00  0.00     0.045 C 
BRANCH  32  35
HETATM   35  O   UNK     0     159.389 173.078 168.530  0.00  0.00    -0.391 OA
HETATM   36  H   UNK     0     159.009 173.487 167.734  0.00  0.00     0.210 HD
ENDBRANCH  32  35
ENDBRANCH  31  32
ENDBRANCH  30  31
ENDBRANCH  27  30
ENDBRANCH  23  27
ENDBRANCH   5  23
BRANCH  19  37
HETATM   37  O   UNK     0     173.966 173.123 166.591  0.00  0.00    -0.393 OA
HETATM   38  H   UNK     0     174.392 172.855 165.759  0.00  0.00     0.210 HD
ENDBRANCH  19  37
BRANCH  20  39
HETATM   39  O   UNK     0     173.675 171.308 168.660  0.00  0.00    -0.393 OA
HETATM   40  H   UNK     0     173.660 170.420 168.261  0.00  0.00     0.210 HD
ENDBRANCH  20  39
ENDBRANCH   1   3
TORSDOF 11
ENDMDL
MODEL 2
REMARK VINA RESULT:      -7.3      1.959      8.364
REMARK  11 active torsions:
REMARK  status: ('A' for Active; 'I' for Inactive)
REMARK    1  A    between atoms: O_1  and  C_9 
REMARK    2  A    between atoms: O_2  and  C_19 
REMARK    3  A    between atoms: O_3  and  C_26 
REMARK    4  A    between atoms: O_4  and  C_27 
REMARK    5  A    between atoms: O_6  and  C_28 
REMARK    6  A    between atoms: O_7  and  C_32 
REMARK    7  A    between atoms: C_10  and  C_19 
REMARK    8  A    between atoms: C_19  and  C_27 
REMARK    9  A    between atoms: C_27  and  C_30 
REMARK   10  A    between atoms: C_30  and  C_31 
REMARK   11  A    between atoms: C_31  and  C_32 
ROOT
HETATM    1  O   UNK     0     166.110 175.664 167.930  0.00  0.00    -0.384 OA
HETATM    2  H   UNK     0     165.139 175.718 167.963  0.00  0.00     0.211 HD
ENDROOT
BRANCH   1   3
HETATM    3  C   UNK     0     166.477 174.266 167.944  0.00  0.00     0.089 C 
HETATM    4  C   UNK     0     167.405 173.990 169.155  0.00  0.00    -0.002 C 
HETATM    5  C   UNK     0     168.638 174.849 168.777  0.00  0.00     0.034 C 
HETATM    6  C   UNK     0     166.690 174.456 170.437  0.00  0.00     0.014 C 
HETATM    7  C   UNK     0     167.795 172.493 169.290  0.00  0.00     0.019 C 
HETATM    8  C   UNK     0     168.784 174.632 167.253  0.00  0.00     0.012 C 
HETATM    9  C   UNK     0     167.431 174.078 166.754  0.00  0.00     0.044 C 
HETATM   10  C   UNK     0     165.355 173.718 170.622  0.00  0.00     0.011 C 
HETATM   11  C   UNK     0     164.418 173.717 169.374  0.00  0.00     0.027 C 
HETATM   12  C   UNK     0     163.184 172.748 169.550  0.00  0.00    -0.023 C 
HETATM   13  C   UNK     0     165.173 173.504 168.053  0.00  0.00    -0.037 C 
HETATM   14  C   UNK     0     162.400 172.635 168.212  0.00  0.00     0.071 C 
HETATM   15  C   UNK     0     162.209 173.256 170.651  0.00  0.00     0.044 C 
HETATM   16  C   UNK     0     163.632 171.321 169.966  0.00  0.00     0.016 C 
HETATM   17  C   UNK     0     161.648 173.922 167.830  0.00  0.00     0.047 C 
HETATM   18  C   UNK     0     163.316 172.228 167.073  0.00  0.00     0.154 C 
HETATM   19  C   UNK     0     160.707 174.379 168.944  0.00  0.00     0.147 C 
HETATM   20  C   UNK     0     161.460 174.536 170.265  0.00  0.00     0.147 C 
HETATM   21  O   UNK     0     162.926 171.507 166.156  0.00  0.00    -0.293 OA
HETATM   22  C   UNK     0     164.687 172.785 167.030  0.00  0.00     0.057 C 
BRANCH   5  23
HETATM   23  C   UNK     0     169.927 174.565 169.539  0.00  0.00     0.084 C 
HETATM   24  C   UNK     0     170.997 175.601 169.158  0.00  0.00     0.049 C 
BRANCH  23  25
HETATM   25  O   UNK     0     169.666 174.715 170.941  0.00  0.00    -0.387 OA
HETATM   26  H   UNK     0     170.452 174.437 171.439  0.00  0.00     0.210 HD
ENDBRANCH  23  25
BRANCH  23  27
HETATM   27  C   UNK     0     170.447 173.123 169.295  0.00  0.00     0.152 C 
BRANCH  27  28
HETATM   28  O   UNK     0     170.981 172.593 170.513  0.00  0.00    -0.393 OA
HETATM   29  H   UNK     0     171.079 171.632 170.394  0.00  0.00     0.210 HD
ENDBRANCH  27  28
BRANCH  27  30
HETATM   30  C   UNK     0     171.531 173.017 168.205  0.00  0.00     0.037 C 
BRANCH  30  31
HETATM   31  C   UNK     0     171.245 171.872 167.216  0.00  0.00     0.040 C 
BRANCH  31  32
HETATM   32  C   UNK     0     171.663 172.165 165.759  0.00  0.00     0.051 C 
HETATM   33  C   UNK     0     172.019 173.649 165.617  0.00  0.00     0.045 C 
HETATM   34  C   UNK     0     172.839 171.300 165.300  0.00  0.00     0.045 C 
BRANCH  32  35
HETATM   35  O   UNK     0     170.546 171.899 164.909  0.00  0.00    -0.391 OA
HETATM   36  H   UNK     0     170.372 170.943 164.933  0.00  0.00     0.210 HD
ENDBRANCH  32  35
ENDBRANCH  31  32
ENDBRANCH  30  31
ENDBRANCH  27  30
ENDBRANCH  23  27
ENDBRANCH   5  23
BRANCH  19  37
HETATM   37  O   UNK     0     159.668 173.411 169.105  0.00  0.00    -0.393 OA
HETATM   38  H   UNK     0     158.940 173.661 168.512  0.00  0.00     0.210 HD
ENDBRANCH  19  37
BRANCH  20  39
HETATM   39  O   UNK     0     160.529 174.873 171.292  0.00  0.00    -0.393 OA
HETATM   40  H   UNK     0     161.016 175.361 171.979  0.00  0.00     0.210 HD
ENDBRANCH  20  39
ENDBRANCH   1   3
TORSDOF 11
ENDMDL
MODEL 3
REMARK VINA RESULT:      -7.3      2.007      8.272
REMARK  11 active torsions:
REMARK  status: ('A' for Active; 'I' for Inactive)
REMARK    1  A    between atoms: O_1  and  C_9 
REMARK    2  A    between atoms: O_2  and  C_19 
REMARK    3  A    between atoms: O_3  and  C_26 
REMARK    4  A    between atoms: O_4  and  C_27 
REMARK    5  A    between atoms: O_6  and  C_28 
REMARK    6  A    between atoms: O_7  and  C_32 
REMARK    7  A    between atoms: C_10  and  C_19 
REMARK    8  A    between atoms: C_19  and  C_27 
REMARK    9  A    between atoms: C_27  and  C_30 
REMARK   10  A    between atoms: C_30  and  C_31 
REMARK   11  A    between atoms: C_31  and  C_32 
ROOT
HETATM    1  O   UNK     0     167.469 172.525 171.452  0.00  0.00    -0.384 OA
HETATM    2  H   UNK     0     167.315 171.836 170.782  0.00  0.00     0.211 HD
ENDROOT
BRANCH   1   3
HETATM    3  C   UNK     0     167.547 173.797 170.768  0.00  0.00     0.089 C 
HETATM    4  C   UNK     0     168.678 173.743 169.708  0.00  0.00    -0.002 C 
HETATM    5  C   UNK     0     169.919 173.563 170.619  0.00  0.00     0.034 C 
HETATM    6  C   UNK     0     168.415 172.550 168.771  0.00  0.00     0.014 C 
HETATM    7  C   UNK     0     168.789 175.048 168.875  0.00  0.00     0.019 C 
HETATM    8  C   UNK     0     169.630 174.490 171.822  0.00  0.00     0.012 C 
HETATM    9  C   UNK     0     168.114 174.785 171.799  0.00  0.00     0.044 C 
HETATM   10  C   UNK     0     167.052 172.688 168.074  0.00  0.00     0.011 C 
HETATM   11  C   UNK     0     165.849 172.988 169.021  0.00  0.00     0.027 C 
HETATM   12  C   UNK     0     164.534 173.353 168.227  0.00  0.00    -0.023 C 
HETATM   13  C   UNK     0     166.190 173.999 170.127  0.00  0.00    -0.037 C 
HETATM   14  C   UNK     0     163.432 173.833 169.213  0.00  0.00     0.071 C 
HETATM   15  C   UNK     0     163.987 172.132 167.433  0.00  0.00     0.044 C 
HETATM   16  C   UNK     0     164.786 174.487 167.197  0.00  0.00     0.016 C 
HETATM   17  C   UNK     0     162.875 172.711 170.105  0.00  0.00     0.047 C 
HETATM   18  C   UNK     0     163.934 174.970 170.083  0.00  0.00     0.154 C 
HETATM   19  C   UNK     0     162.353 171.537 169.278  0.00  0.00     0.147 C 
HETATM   20  C   UNK     0     163.430 171.018 168.325  0.00  0.00     0.147 C 
HETATM   21  O   UNK     0     163.192 175.881 170.447  0.00  0.00    -0.293 OA
HETATM   22  C   UNK     0     165.330 174.929 170.571  0.00  0.00     0.057 C 
BRANCH   5  23
HETATM   23  C   UNK     0     171.277 173.829 169.981  0.00  0.00     0.084 C 
HETATM   24  C   UNK     0     171.301 175.243 169.377  0.00  0.00     0.049 C 
BRANCH  23  25
HETATM   25  O   UNK     0     172.277 173.785 171.008  0.00  0.00    -0.387 OA
HETATM   26  H   UNK     0     173.120 174.096 170.640  0.00  0.00     0.210 HD
ENDBRANCH  23  25
BRANCH  23  27
HETATM   27  C   UNK     0     171.639 172.767 168.907  0.00  0.00     0.152 C 
BRANCH  27  28
HETATM   28  O   UNK     0     172.904 172.177 169.224  0.00  0.00    -0.393 OA
HETATM   29  H   UNK     0     172.998 172.193 170.192  0.00  0.00     0.210 HD
ENDBRANCH  27  28
BRANCH  27  30
HETATM   30  C   UNK     0     171.709 173.320 167.470  0.00  0.00     0.037 C 
BRANCH  30  31
HETATM   31  C   UNK     0     172.938 172.791 166.707  0.00  0.00     0.040 C 
BRANCH  31  32
HETATM   32  C   UNK     0     172.658 171.564 165.815  0.00  0.00     0.051 C 
HETATM   33  C   UNK     0     171.247 171.668 165.227  0.00  0.00     0.045 C 
HETATM   34  C   UNK     0     173.682 171.412 164.688  0.00  0.00     0.045 C 
BRANCH  32  35
HETATM   35  O   UNK     0     172.707 170.393 166.633  0.00  0.00    -0.391 OA
HETATM   36  H   UNK     0     171.802 170.050 166.719  0.00  0.00     0.210 HD
ENDBRANCH  32  35
ENDBRANCH  31  32
ENDBRANCH  30  31
ENDBRANCH  27  30
ENDBRANCH  23  27
ENDBRANCH   5  23
BRANCH  19  37
HETATM   37  O   UNK     0     161.220 171.965 168.520  0.00  0.00    -0.393 OA
HETATM   38  H   UNK     0     160.620 171.205 168.434  0.00  0.00     0.210 HD
ENDBRANCH  19  37
BRANCH  20  39
HETATM   39  O   UNK     0     162.873 169.987 167.513  0.00  0.00    -0.393 OA
HETATM   40  H   UNK     0     162.936 169.155 168.012  0.00  0.00     0.210 HD
ENDBRANCH  20  39
ENDBRANCH   1   3
TORSDOF 11
ENDMDL
MODEL 4
REMARK VINA RESULT:      -7.2      1.593      1.934
REMARK  11 active torsions:
REMARK  status: ('A' for Active; 'I' for Inactive)
REMARK    1  A    between atoms: O_1  and  C_9 
REMARK    2  A    between atoms: O_2  and  C_19 
REMARK    3  A    between atoms: O_3  and  C_26 
REMARK    4  A    between atoms: O_4  and  C_27 
REMARK    5  A    between atoms: O_6  and  C_28 
REMARK    6  A    between atoms: O_7  and  C_32 
REMARK    7  A    between atoms: C_10  and  C_19 
REMARK    8  A    between atoms: C_19  and  C_27 
REMARK    9  A    between atoms: C_27  and  C_30 
REMARK   10  A    between atoms: C_30  and  C_31 
REMARK   11  A    between atoms: C_31  and  C_32 
ROOT
HETATM    1  O   UNK     0     167.411 172.297 168.096  0.00  0.00    -0.384 OA
HETATM    2  H   UNK     0     167.989 171.722 168.627  0.00  0.00     0.211 HD
ENDROOT
BRANCH   1   3
HETATM    3  C   UNK     0     167.572 173.651 168.578  0.00  0.00     0.089 C 
HETATM    4  C   UNK     0     167.442 173.666 170.123  0.00  0.00    -0.002 C 
HETATM    5  C   UNK     0     165.967 173.223 170.294  0.00  0.00     0.034 C 
HETATM    6  C   UNK     0     168.463 172.674 170.711  0.00  0.00     0.014 C 
HETATM    7  C   UNK     0     167.671 175.075 170.735  0.00  0.00     0.019 C 
HETATM    8  C   UNK     0     165.227 173.964 169.156  0.00  0.00     0.012 C 
HETATM    9  C   UNK     0     166.304 174.398 168.138  0.00  0.00     0.044 C 
HETATM   10  C   UNK     0     169.896 173.051 170.302  0.00  0.00     0.011 C 
HETATM   11  C   UNK     0     170.107 173.303 168.777  0.00  0.00     0.027 C 
HETATM   12  C   UNK     0     171.528 173.914 168.459  0.00  0.00    -0.023 C 
HETATM   13  C   UNK     0     168.952 174.081 168.128  0.00  0.00    -0.037 C 
HETATM   14  C   UNK     0     171.607 174.327 166.963  0.00  0.00     0.071 C 
HETATM   15  C   UNK     0     172.668 172.898 168.752  0.00  0.00     0.044 C 
HETATM   16  C   UNK     0     171.812 175.174 169.321  0.00  0.00     0.016 C 
HETATM   17  C   UNK     0     171.636 173.130 165.996  0.00  0.00     0.047 C 
HETATM   18  C   UNK     0     170.466 175.253 166.588  0.00  0.00     0.154 C 
HETATM   19  C   UNK     0     172.770 172.162 166.327  0.00  0.00     0.147 C 
HETATM   20  C   UNK     0     172.694 171.709 167.785  0.00  0.00     0.147 C 
HETATM   21  O   UNK     0     170.610 176.157 165.767  0.00  0.00    -0.293 OA
HETATM   22  C   UNK     0     169.128 175.002 167.168  0.00  0.00     0.057 C 
BRANCH   5  23
HETATM   23  C   UNK     0     165.338 173.463 171.661  0.00  0.00     0.084 C 
HETATM   24  C   UNK     0     166.367 173.172 172.766  0.00  0.00     0.049 C 
BRANCH  23  25
HETATM   25  O   UNK     0     164.983 174.849 171.760  0.00  0.00    -0.387 OA
HETATM   26  H   UNK     0     164.712 175.040 172.673  0.00  0.00     0.210 HD
ENDBRANCH  23  25
BRANCH  23  27
HETATM   27  C   UNK     0     164.052 172.618 171.872  0.00  0.00     0.152 C 
BRANCH  27  28
HETATM   28  O   UNK     0     163.975 172.194 173.237  0.00  0.00    -0.393 OA
HETATM   29  H   UNK     0     163.977 171.220 173.239  0.00  0.00     0.210 HD
ENDBRANCH  27  28
BRANCH  27  30
HETATM   30  C   UNK     0     163.960 171.371 170.971  0.00  0.00     0.037 C 
BRANCH  30  31
HETATM   31  C   UNK     0     162.787 171.463 169.976  0.00  0.00     0.040 C 
BRANCH  31  32
HETATM   32  C   UNK     0     163.061 170.813 168.604  0.00  0.00     0.051 C 
HETATM   33  C   UNK     0     162.281 169.498 168.496  0.00  0.00     0.045 C 
HETATM   34  C   UNK     0     162.697 171.732 167.436  0.00  0.00     0.045 C 
BRANCH  32  35
HETATM   35  O   UNK     0     164.454 170.505 168.522  0.00  0.00    -0.391 OA
HETATM   36  H   UNK     0     164.766 170.293 169.417  0.00  0.00     0.210 HD
ENDBRANCH  32  35
ENDBRANCH  31  32
ENDBRANCH  30  31
ENDBRANCH  27  30
ENDBRANCH  23  27
ENDBRANCH   5  23
BRANCH  19  37
HETATM   37  O   UNK     0     174.022 172.813 166.101  0.00  0.00    -0.393 OA
HETATM   38  H   UNK     0     174.135 172.907 165.140  0.00  0.00     0.210 HD
ENDBRANCH  19  37
BRANCH  20  39
HETATM   39  O   UNK     0     173.820 170.883 168.074  0.00  0.00    -0.393 OA
HETATM   40  H   UNK     0     173.945 170.284 167.317  0.00  0.00     0.210 HD
ENDBRANCH  20  39
ENDBRANCH   1   3
TORSDOF 11
ENDMDL
MODEL 5
REMARK VINA RESULT:      -7.1      8.731     10.554
REMARK  11 active torsions:
REMARK  status: ('A' for Active; 'I' for Inactive)
REMARK    1  A    between atoms: O_1  and  C_9 
REMARK    2  A    between atoms: O_2  and  C_19 
REMARK    3  A    between atoms: O_3  and  C_26 
REMARK    4  A    between atoms: O_4  and  C_27 
REMARK    5  A    between atoms: O_6  and  C_28 
REMARK    6  A    between atoms: O_7  and  C_32 
REMARK    7  A    between atoms: C_10  and  C_19 
REMARK    8  A    between atoms: C_19  and  C_27 
REMARK    9  A    between atoms: C_27  and  C_30 
REMARK   10  A    between atoms: C_30  and  C_31 
REMARK   11  A    between atoms: C_31  and  C_32 
ROOT
HETATM    1  O   UNK     0     168.111 178.909 178.123  0.00  0.00    -0.384 OA
HETATM    2  H   UNK     0     168.910 179.439 177.955  0.00  0.00     0.211 HD
ENDROOT
BRANCH   1   3
HETATM    3  C   UNK     0     167.397 178.779 176.872  0.00  0.00     0.089 C 
HETATM    4  C   UNK     0     166.057 179.554 176.961  0.00  0.00    -0.002 C 
HETATM    5  C   UNK     0     165.329 178.747 178.065  0.00  0.00     0.034 C 
HETATM    6  C   UNK     0     166.360 181.012 177.352  0.00  0.00     0.014 C 
HETATM    7  C   UNK     0     165.253 179.526 175.633  0.00  0.00     0.019 C 
HETATM    8  C   UNK     0     165.689 177.278 177.745  0.00  0.00     0.012 C 
HETATM    9  C   UNK     0     166.924 177.318 176.818  0.00  0.00     0.044 C 
HETATM   10  C   UNK     0     167.283 181.680 176.320  0.00  0.00     0.011 C 
HETATM   11  C   UNK     0     168.568 180.872 175.959  0.00  0.00     0.027 C 
HETATM   12  C   UNK     0     169.342 181.491 174.729  0.00  0.00    -0.023 C 
HETATM   13  C   UNK     0     168.313 179.363 175.818  0.00  0.00    -0.037 C 
HETATM   14  C   UNK     0     170.492 180.541 174.291  0.00  0.00     0.071 C 
HETATM   15  C   UNK     0     169.953 182.878 175.077  0.00  0.00     0.044 C 
HETATM   16  C   UNK     0     168.402 181.702 173.511  0.00  0.00     0.016 C 
HETATM   17  C   UNK     0     171.652 180.474 175.300  0.00  0.00     0.047 C 
HETATM   18  C   UNK     0     169.975 179.141 174.022  0.00  0.00     0.154 C 
HETATM   19  C   UNK     0     172.214 181.861 175.608  0.00  0.00     0.147 C 
HETATM   20  C   UNK     0     171.109 182.807 176.080  0.00  0.00     0.147 C 
HETATM   21  O   UNK     0     170.457 178.433 173.139  0.00  0.00    -0.293 OA
HETATM   22  C   UNK     0     168.920 178.592 174.902  0.00  0.00     0.057 C 
BRANCH   5  23
HETATM   23  C   UNK     0     163.827 178.971 178.194  0.00  0.00     0.084 C 
HETATM   24  C   UNK     0     163.067 177.818 177.518  0.00  0.00     0.049 C 
BRANCH  23  25
HETATM   25  O   UNK     0     163.484 178.952 179.586  0.00  0.00    -0.387 OA
HETATM   26  H   UNK     0     164.067 178.325 180.045  0.00  0.00     0.210 HD
ENDBRANCH  23  25
BRANCH  23  27
HETATM   27  C   UNK     0     163.385 180.339 177.606  0.00  0.00     0.152 C 
BRANCH  27  28
HETATM   28  O   UNK     0     163.370 181.325 178.644  0.00  0.00    -0.393 OA
HETATM   29  H   UNK     0     163.953 181.007 179.355  0.00  0.00     0.210 HD
ENDBRANCH  27  28
BRANCH  27  30
HETATM   30  C   UNK     0     161.999 180.321 176.934  0.00  0.00     0.037 C 
BRANCH  30  31
HETATM   31  C   UNK     0     161.030 181.329 177.582  0.00  0.00     0.040 C 
BRANCH  31  32
HETATM   32  C   UNK     0     159.674 180.730 178.008  0.00  0.00     0.051 C 
HETATM   33  C   UNK     0     158.686 180.815 176.839  0.00  0.00     0.045 C 
HETATM   34  C   UNK     0     159.795 179.280 178.482  0.00  0.00     0.045 C 
BRANCH  32  35
HETATM   35  O   UNK     0     159.152 181.516 179.081  0.00  0.00    -0.391 OA
HETATM   36  H   UNK     0     158.338 181.945 178.769  0.00  0.00     0.210 HD
ENDBRANCH  32  35
ENDBRANCH  31  32
ENDBRANCH  30  31
ENDBRANCH  27  30
ENDBRANCH  23  27
ENDBRANCH   5  23
BRANCH  19  37
HETATM   37  O   UNK     0     172.819 182.394 174.429  0.00  0.00    -0.393 OA
HETATM   38  H   UNK     0     173.768 182.501 174.608  0.00  0.00     0.210 HD
ENDBRANCH  19  37
BRANCH  20  39
HETATM   39  O   UNK     0     171.661 184.108 176.268  0.00  0.00    -0.393 OA
HETATM   40  H   UNK     0     171.369 184.427 177.139  0.00  0.00     0.210 HD
ENDBRANCH  20  39
ENDBRANCH   1   3
TORSDOF 11
ENDMDL
MODEL 6
REMARK VINA RESULT:      -7.1      9.077     10.918
REMARK  11 active torsions:
REMARK  status: ('A' for Active; 'I' for Inactive)
REMARK    1  A    between atoms: O_1  and  C_9 
REMARK    2  A    between atoms: O_2  and  C_19 
REMARK    3  A    between atoms: O_3  and  C_26 
REMARK    4  A    between atoms: O_4  and  C_27 
REMARK    5  A    between atoms: O_6  and  C_28 
REMARK    6  A    between atoms: O_7  and  C_32 
REMARK    7  A    between atoms: C_10  and  C_19 
REMARK    8  A    between atoms: C_19  and  C_27 
REMARK    9  A    between atoms: C_27  and  C_30 
REMARK   10  A    between atoms: C_30  and  C_31 
REMARK   11  A    between atoms: C_31  and  C_32 
ROOT
HETATM    1  O   UNK     0     165.689 181.276 177.597  0.00  0.00    -0.384 OA
HETATM    2  H   UNK     0     165.134 180.967 176.860  0.00  0.00     0.211 HD
ENDROOT
BRANCH   1   3
HETATM    3  C   UNK     0     166.494 180.160 178.043  0.00  0.00     0.089 C 
HETATM    4  C   UNK     0     165.820 178.833 177.608  0.00  0.00    -0.002 C 
HETATM    5  C   UNK     0     164.507 178.892 178.430  0.00  0.00     0.034 C 
HETATM    6  C   UNK     0     165.602 178.871 176.084  0.00  0.00     0.014 C 
HETATM    7  C   UNK     0     166.653 177.579 177.986  0.00  0.00     0.019 C 
HETATM    8  C   UNK     0     164.955 179.460 179.796  0.00  0.00     0.012 C 
HETATM    9  C   UNK     0     166.333 180.121 179.570  0.00  0.00     0.044 C 
HETATM   10  C   UNK     0     166.936 179.048 175.341  0.00  0.00     0.011 C 
HETATM   11  C   UNK     0     167.830 180.220 175.853  0.00  0.00     0.027 C 
HETATM   12  C   UNK     0     169.275 180.197 175.215  0.00  0.00    -0.023 C 
HETATM   13  C   UNK     0     167.844 180.344 177.384  0.00  0.00    -0.037 C 
HETATM   14  C   UNK     0     170.178 181.257 175.905  0.00  0.00     0.071 C 
HETATM   15  C   UNK     0     169.233 180.501 173.691  0.00  0.00     0.044 C 
HETATM   16  C   UNK     0     169.950 178.808 175.382  0.00  0.00     0.016 C 
HETATM   17  C   UNK     0     169.788 182.708 175.571  0.00  0.00     0.047 C 
HETATM   18  C   UNK     0     170.191 181.071 177.410  0.00  0.00     0.154 C 
HETATM   19  C   UNK     0     169.760 182.953 174.063  0.00  0.00     0.147 C 
HETATM   20  C   UNK     0     168.846 181.947 173.362  0.00  0.00     0.147 C 
HETATM   21  O   UNK     0     171.196 181.300 178.081  0.00  0.00    -0.293 OA
HETATM   22  C   UNK     0     168.934 180.684 178.089  0.00  0.00     0.057 C 
BRANCH   5  23
HETATM   23  C   UNK     0     163.726 177.591 178.560  0.00  0.00     0.084 C 
HETATM   24  C   UNK     0     163.807 176.800 177.243  0.00  0.00     0.049 C 
BRANCH  23  25
HETATM   25  O   UNK     0     164.343 176.791 179.578  0.00  0.00    -0.387 OA
HETATM   26  H   UNK     0     165.271 177.063 179.672  0.00  0.00     0.210 HD
ENDBRANCH  23  25
BRANCH  23  27
HETATM   27  C   UNK     0     162.246 177.832 178.965  0.00  0.00     0.152 C 
BRANCH  27  28
HETATM   28  O   UNK     0     161.643 176.589 179.341  0.00  0.00    -0.393 OA
HETATM   29  H   UNK     0     161.155 176.742 180.169  0.00  0.00     0.210 HD
ENDBRANCH  27  28
BRANCH  27  30
HETATM   30  C   UNK     0     161.385 178.474 177.860  0.00  0.00     0.037 C 
BRANCH  30  31
HETATM   31  C   UNK     0     160.171 179.226 178.438  0.00  0.00     0.040 C 
BRANCH  31  32
HETATM   32  C   UNK     0     159.967 180.645 177.866  0.00  0.00     0.051 C 
HETATM   33  C   UNK     0     161.315 181.212 177.409  0.00  0.00     0.045 C 
HETATM   34  C   UNK     0     158.969 180.672 176.707  0.00  0.00     0.045 C 
BRANCH  32  35
HETATM   35  O   UNK     0     159.470 181.483 178.911  0.00  0.00    -0.391 OA
HETATM   36  H   UNK     0     158.646 181.089 179.245  0.00  0.00     0.210 HD
ENDBRANCH  32  35
ENDBRANCH  31  32
ENDBRANCH  30  31
ENDBRANCH  27  30
ENDBRANCH  23  27
ENDBRANCH   5  23
BRANCH  19  37
HETATM   37  O   UNK     0     171.085 182.828 173.544  0.00  0.00    -0.393 OA
HETATM   38  H   UNK     0     171.576 183.628 173.797  0.00  0.00     0.210 HD
ENDBRANCH  19  37
BRANCH  20  39
HETATM   39  O   UNK     0     168.922 182.154 171.954  0.00  0.00    -0.393 OA
HETATM   40  H   UNK     0     169.468 181.440 171.582  0.00  0.00     0.210 HD
ENDBRANCH  20  39
ENDBRANCH   1   3
TORSDOF 11
ENDMDL
MODEL 7
REMARK VINA RESULT:      -7.1      2.455      8.571
REMARK  11 active torsions:
REMARK  status: ('A' for Active; 'I' for Inactive)
REMARK    1  A    between atoms: O_1  and  C_9 
REMARK    2  A    between atoms: O_2  and  C_19 
REMARK    3  A    between atoms: O_3  and  C_26 
REMARK    4  A    between atoms: O_4  and  C_27 
REMARK    5  A    between atoms: O_6  and  C_28 
REMARK    6  A    between atoms: O_7  and  C_32 
REMARK    7  A    between atoms: C_10  and  C_19 
REMARK    8  A    between atoms: C_19  and  C_27 
REMARK    9  A    between atoms: C_27  and  C_30 
REMARK   10  A    between atoms: C_30  and  C_31 
REMARK   11  A    between atoms: C_31  and  C_32 
ROOT
HETATM    1  O   UNK     0     165.885 175.165 169.535  0.00  0.00    -0.384 OA
HETATM    2  H   UNK     0     164.939 175.359 169.416  0.00  0.00     0.211 HD
ENDROOT
BRANCH   1   3
HETATM    3  C   UNK     0     166.001 173.800 169.997  0.00  0.00     0.089 C 
HETATM    4  C   UNK     0     166.318 173.795 171.515  0.00  0.00    -0.002 C 
HETATM    5  C   UNK     0     167.714 174.468 171.521  0.00  0.00     0.034 C 
HETATM    6  C   UNK     0     165.232 174.605 172.245  0.00  0.00     0.014 C 
HETATM    7  C   UNK     0     166.392 172.364 172.113  0.00  0.00     0.019 C 
HETATM    8  C   UNK     0     168.419 173.865 170.284  0.00  0.00     0.012 C 
HETATM    9  C   UNK     0     167.309 173.269 169.390  0.00  0.00     0.044 C 
HETATM   10  C   UNK     0     163.838 174.005 172.000  0.00  0.00     0.011 C 
HETATM   11  C   UNK     0     163.486 173.733 170.504  0.00  0.00     0.027 C 
HETATM   12  C   UNK     0     162.153 172.903 170.341  0.00  0.00    -0.023 C 
HETATM   13  C   UNK     0     164.663 173.155 169.703  0.00  0.00    -0.037 C 
HETATM   14  C   UNK     0     161.959 172.492 168.854  0.00  0.00     0.071 C 
HETATM   15  C   UNK     0     160.910 173.720 170.794  0.00  0.00     0.044 C 
HETATM   16  C   UNK     0     162.179 171.607 171.198  0.00  0.00     0.016 C 
HETATM   17  C   UNK     0     161.624 173.675 167.929  0.00  0.00     0.047 C 
HETATM   18  C   UNK     0     163.180 171.765 168.323  0.00  0.00     0.154 C 
HETATM   19  C   UNK     0     160.398 174.446 168.418  0.00  0.00     0.147 C 
HETATM   20  C   UNK     0     160.577 174.896 169.868  0.00  0.00     0.147 C 
HETATM   21  O   UNK     0     163.082 170.855 167.501  0.00  0.00    -0.293 OA
HETATM   22  C   UNK     0     164.521 172.225 168.746  0.00  0.00     0.057 C 
BRANCH   5  23
HETATM   23  C   UNK     0     168.534 174.324 172.797  0.00  0.00     0.084 C 
HETATM   24  C   UNK     0     167.603 174.032 173.985  0.00  0.00     0.049 C 
BRANCH  23  25
HETATM   25  O   UNK     0     169.407 173.196 172.649  0.00  0.00    -0.387 OA
HETATM   26  H   UNK     0     169.127 172.681 171.875  0.00  0.00     0.210 HD
ENDBRANCH  23  25
BRANCH  23  27
HETATM   27  C   UNK     0     169.407 175.578 173.079  0.00  0.00     0.152 C 
BRANCH  27  28
HETATM   28  O   UNK     0     168.728 176.749 172.613  0.00  0.00    -0.393 OA
HETATM   29  H   UNK     0     169.407 177.416 172.407  0.00  0.00     0.210 HD
ENDBRANCH  27  28
BRANCH  27  30
HETATM   30  C   UNK     0     170.803 175.536 172.428  0.00  0.00     0.037 C 
BRANCH  30  31
HETATM   31  C   UNK     0     170.843 176.311 171.097  0.00  0.00     0.040 C 
BRANCH  31  32
HETATM   32  C   UNK     0     171.712 175.657 170.002  0.00  0.00     0.051 C 
HETATM   33  C   UNK     0     172.122 174.249 170.447  0.00  0.00     0.045 C 
HETATM   34  C   UNK     0     171.000 175.590 168.650  0.00  0.00     0.045 C 
BRANCH  32  35
HETATM   35  O   UNK     0     172.902 176.433 169.850  0.00  0.00    -0.391 OA
HETATM   36  H   UNK     0     172.665 177.369 169.966  0.00  0.00     0.210 HD
ENDBRANCH  32  35
ENDBRANCH  31  32
ENDBRANCH  30  31
ENDBRANCH  27  30
ENDBRANCH  23  27
ENDBRANCH   5  23
BRANCH  19  37
HETATM   37  O   UNK     0     159.248 173.603 168.325  0.00  0.00    -0.393 OA
HETATM   38  H   UNK     0     158.689 173.947 167.609  0.00  0.00     0.210 HD
ENDBRANCH  19  37
BRANCH  20  39
HETATM   39  O   UNK     0     159.378 175.528 170.310  0.00  0.00    -0.393 OA
HETATM   40  H   UNK     0     159.583 176.465 170.469  0.00  0.00     0.210 HD
ENDBRANCH  20  39
ENDBRANCH   1   3
TORSDOF 11
ENDMDL
MODEL 8
REMARK VINA RESULT:      -6.9      9.237     10.907
REMARK  11 active torsions:
REMARK  status: ('A' for Active; 'I' for Inactive)
REMARK    1  A    between atoms: O_1  and  C_9 
REMARK    2  A    between atoms: O_2  and  C_19 
REMARK    3  A    between atoms: O_3  and  C_26 
REMARK    4  A    between atoms: O_4  and  C_27 
REMARK    5  A    between atoms: O_6  and  C_28 
REMARK    6  A    between atoms: O_7  and  C_32 
REMARK    7  A    between atoms: C_10  and  C_19 
REMARK    8  A    between atoms: C_19  and  C_27 
REMARK    9  A    between atoms: C_27  and  C_30 
REMARK   10  A    between atoms: C_30  and  C_31 
REMARK   11  A    between atoms: C_31  and  C_32 
ROOT
HETATM    1  O   UNK     0     167.389 182.082 177.741  0.00  0.00    -0.384 OA
HETATM    2  H   UNK     0     168.305 182.373 177.891  0.00  0.00     0.211 HD
ENDROOT
BRANCH   1   3
HETATM    3  C   UNK     0     167.413 180.659 177.484  0.00  0.00     0.089 C 
HETATM    4  C   UNK     0     166.593 180.354 176.203  0.00  0.00    -0.002 C 
HETATM    5  C   UNK     0     165.174 180.778 176.661  0.00  0.00     0.034 C 
HETATM    6  C   UNK     0     167.154 181.202 175.048  0.00  0.00     0.014 C 
HETATM    7  C   UNK     0     166.621 178.852 175.811  0.00  0.00     0.019 C 
HETATM    8  C   UNK     0     165.093 180.276 178.121  0.00  0.00     0.012 C 
HETATM    9  C   UNK     0     166.546 180.027 178.583  0.00  0.00     0.044 C 
HETATM   10  C   UNK     0     168.640 180.888 174.805  0.00  0.00     0.011 C 
HETATM   11  C   UNK     0     169.542 180.927 176.077  0.00  0.00     0.027 C 
HETATM   12  C   UNK     0     170.993 180.365 175.802  0.00  0.00    -0.023 C 
HETATM   13  C   UNK     0     168.874 180.301 177.311  0.00  0.00    -0.037 C 
HETATM   14  C   UNK     0     171.778 180.242 177.138  0.00  0.00     0.071 C 
HETATM   15  C   UNK     0     171.793 181.292 174.843  0.00  0.00     0.044 C 
HETATM   16  C   UNK     0     170.945 178.961 175.141  0.00  0.00     0.016 C 
HETATM   17  C   UNK     0     172.155 181.599 177.757  0.00  0.00     0.047 C 
HETATM   18  C   UNK     0     171.007 179.420 178.153  0.00  0.00     0.154 C 
HETATM   19  C   UNK     0     172.937 182.470 176.776  0.00  0.00     0.147 C 
HETATM   20  C   UNK     0     172.169 182.641 175.464  0.00  0.00     0.147 C 
HETATM   21  O   UNK     0     171.578 178.685 178.958  0.00  0.00    -0.293 OA
HETATM   22  C   UNK     0     169.537 179.576 178.225  0.00  0.00     0.057 C 
BRANCH   5  23
HETATM   23  C   UNK     0     164.009 180.293 175.805  0.00  0.00     0.084 C 
HETATM   24  C   UNK     0     163.786 181.262 174.632  0.00  0.00     0.049 C 
BRANCH  23  25
HETATM   25  O   UNK     0     164.356 179.019 175.248  0.00  0.00    -0.387 OA
HETATM   26  H   UNK     0     164.229 179.051 174.285  0.00  0.00     0.210 HD
ENDBRANCH  23  25
BRANCH  23  27
HETATM   27  C   UNK     0     162.705 180.122 176.631  0.00  0.00     0.152 C 
BRANCH  27  28
HETATM   28  O   UNK     0     162.147 178.828 176.383  0.00  0.00    -0.393 OA
HETATM   29  H   UNK     0     161.203 178.953 176.182  0.00  0.00     0.210 HD
ENDBRANCH  27  28
BRANCH  27  30
HETATM   30  C   UNK     0     161.626 181.181 176.335  0.00  0.00     0.037 C 
BRANCH  30  31
HETATM   31  C   UNK     0     160.425 180.585 175.576  0.00  0.00     0.040 C 
BRANCH  31  32
HETATM   32  C   UNK     0     159.152 180.408 176.430  0.00  0.00     0.051 C 
HETATM   33  C   UNK     0     159.393 180.976 177.833  0.00  0.00     0.045 C 
HETATM   34  C   UNK     0     157.927 181.074 175.801  0.00  0.00     0.045 C 
BRANCH  32  35
HETATM   35  O   UNK     0     158.891 179.009 176.562  0.00  0.00    -0.391 OA
HETATM   36  H   UNK     0     159.400 178.544 175.878  0.00  0.00     0.210 HD
ENDBRANCH  32  35
ENDBRANCH  31  32
ENDBRANCH  30  31
ENDBRANCH  27  30
ENDBRANCH  23  27
ENDBRANCH   5  23
BRANCH  19  37
HETATM   37  O   UNK     0     174.199 181.856 176.506  0.00  0.00    -0.393 OA
HETATM   38  H   UNK     0     174.723 181.892 177.323  0.00  0.00     0.210 HD
ENDBRANCH  19  37
BRANCH  20  39
HETATM   39  O   UNK     0     172.974 183.382 174.549  0.00  0.00    -0.393 OA
HETATM   40  H   UNK     0     172.387 183.998 174.077  0.00  0.00     0.210 HD
ENDBRANCH  20  39
ENDBRANCH   1   3
TORSDOF 11
ENDMDL
MODEL 9
REMARK VINA RESULT:      -6.8      2.245      2.751
REMARK  11 active torsions:
REMARK  status: ('A' for Active; 'I' for Inactive)
REMARK    1  A    between atoms: O_1  and  C_9 
REMARK    2  A    between atoms: O_2  and  C_19 
REMARK    3  A    between atoms: O_3  and  C_26 
REMARK    4  A    between atoms: O_4  and  C_27 
REMARK    5  A    between atoms: O_6  and  C_28 
REMARK    6  A    between atoms: O_7  and  C_32 
REMARK    7  A    between atoms: C_10  and  C_19 
REMARK    8  A    between atoms: C_19  and  C_27 
REMARK    9  A    between atoms: C_27  and  C_30 
REMARK   10  A    between atoms: C_30  and  C_31 
REMARK   11  A    between atoms: C_31  and  C_32 
ROOT
HETATM    1  O   UNK     0     167.696 172.254 168.905  0.00  0.00    -0.384 OA
HETATM    2  H   UNK     0     168.192 172.078 168.086  0.00  0.00     0.211 HD
ENDROOT
BRANCH   1   3
HETATM    3  C   UNK     0     167.941 173.627 169.284  0.00  0.00     0.089 C 
HETATM    4  C   UNK     0     168.058 173.722 170.827  0.00  0.00    -0.002 C 
HETATM    5  C   UNK     0     166.625 173.310 171.252  0.00  0.00     0.034 C 
HETATM    6  C   UNK     0     169.152 172.745 171.297  0.00  0.00     0.014 C 
HETATM    7  C   UNK     0     168.391 175.156 171.322  0.00  0.00     0.019 C 
HETATM    8  C   UNK     0     165.719 174.004 170.209  0.00  0.00     0.012 C 
HETATM    9  C   UNK     0     166.624 174.371 169.012  0.00  0.00     0.044 C 
HETATM   10  C   UNK     0     170.505 173.080 170.648  0.00  0.00     0.011 C 
HETATM   11  C   UNK     0     170.473 173.252 169.097  0.00  0.00     0.027 C 
HETATM   12  C   UNK     0     171.829 173.826 168.528  0.00  0.00    -0.023 C 
HETATM   13  C   UNK     0     169.235 174.014 168.600  0.00  0.00    -0.037 C 
HETATM   14  C   UNK     0     171.673 174.162 167.018  0.00  0.00     0.071 C 
HETATM   15  C   UNK     0     172.994 172.808 168.688  0.00  0.00     0.044 C 
HETATM   16  C   UNK     0     172.256 175.123 169.267  0.00  0.00     0.016 C 
HETATM   17  C   UNK     0     171.539 172.918 166.122  0.00  0.00     0.047 C 
HETATM   18  C   UNK     0     170.493 175.085 166.781  0.00  0.00     0.154 C 
HETATM   19  C   UNK     0     172.706 171.951 166.319  0.00  0.00     0.147 C 
HETATM   20  C   UNK     0     172.859 171.572 167.792  0.00  0.00     0.147 C 
HETATM   21  O   UNK     0     170.511 175.945 165.902  0.00  0.00    -0.293 OA
HETATM   22  C   UNK     0     169.262 174.883 167.578  0.00  0.00     0.057 C 
BRANCH   5  23
HETATM   23  C   UNK     0     166.223 173.627 172.687  0.00  0.00     0.084 C 
HETATM   24  C   UNK     0     167.372 173.263 173.643  0.00  0.00     0.049 C 
BRANCH  23  25
HETATM   25  O   UNK     0     166.007 175.040 172.796  0.00  0.00    -0.387 OA
HETATM   26  H   UNK     0     165.346 175.309 172.137  0.00  0.00     0.210 HD
ENDBRANCH  23  25
BRANCH  23  27
HETATM   27  C   UNK     0     164.913 172.903 173.103  0.00  0.00     0.152 C 
BRANCH  27  28
HETATM   28  O   UNK     0     164.685 173.093 174.503  0.00  0.00    -0.393 OA
HETATM   29  H   UNK     0     163.998 172.458 174.774  0.00  0.00     0.210 HD
ENDBRANCH  27  28
BRANCH  27  30
HETATM   30  C   UNK     0     164.906 171.391 172.811  0.00  0.00     0.037 C 
BRANCH  30  31
HETATM   31  C   UNK     0     164.046 171.044 171.581  0.00  0.00     0.040 C 
BRANCH  31  32
HETATM   32  C   UNK     0     163.094 169.847 171.784  0.00  0.00     0.051 C 
HETATM   33  C   UNK     0     163.898 168.542 171.758  0.00  0.00     0.045 C 
HETATM   34  C   UNK     0     162.299 169.943 173.087  0.00  0.00     0.045 C 
BRANCH  32  35
HETATM   35  O   UNK     0     162.173 169.816 170.692  0.00  0.00    -0.391 OA
HETATM   36  H   UNK     0     161.285 169.994 171.045  0.00  0.00     0.210 HD
ENDBRANCH  32  35
ENDBRANCH  31  32
ENDBRANCH  30  31
ENDBRANCH  27  30
ENDBRANCH  23  27
ENDBRANCH   5  23
BRANCH  19  37
HETATM   37  O   UNK     0     173.910 172.571 165.864  0.00  0.00    -0.393 OA
HETATM   38  H   UNK     0     174.482 172.703 166.639  0.00  0.00     0.210 HD
ENDBRANCH  19  37
BRANCH  20  39
HETATM   39  O   UNK     0     174.010 170.745 167.941  0.00  0.00    -0.393 OA
HETATM   40  H   UNK     0     174.302 170.814 168.867  0.00  0.00     0.210 HD
ENDBRANCH  20  39
ENDBRANCH   1   3
TORSDOF 11
ENDMDL
MODEL 10
REMARK VINA RESULT:      -6.8      3.388      8.758
REMARK  11 active torsions:
REMARK  status: ('A' for Active; 'I' for Inactive)
REMARK    1  A    between atoms: O_1  and  C_9 
REMARK    2  A    between atoms: O_2  and  C_19 
REMARK    3  A    between atoms: O_3  and  C_26 
REMARK    4  A    between atoms: O_4  and  C_27 
REMARK    5  A    between atoms: O_6  and  C_28 
REMARK    6  A    between atoms: O_7  and  C_32 
REMARK    7  A    between atoms: C_10  and  C_19 
REMARK    8  A    between atoms: C_19  and  C_27 
REMARK    9  A    between atoms: C_27  and  C_30 
REMARK   10  A    between atoms: C_30  and  C_31 
REMARK   11  A    between atoms: C_31  and  C_32 
ROOT
HETATM    1  O   UNK     0     166.001 175.025 169.039  0.00  0.00    -0.384 OA
HETATM    2  H   UNK     0     166.872 175.298 168.704  0.00  0.00     0.211 HD
ENDROOT
BRANCH   1   3
HETATM    3  C   UNK     0     166.146 173.716 169.635  0.00  0.00     0.089 C 
HETATM    4  C   UNK     0     166.556 173.871 171.123  0.00  0.00    -0.002 C 
HETATM    5  C   UNK     0     167.949 174.534 170.972  0.00  0.00     0.034 C 
HETATM    6  C   UNK     0     165.516 174.760 171.828  0.00  0.00     0.014 C 
HETATM    7  C   UNK     0     166.669 172.511 171.864  0.00  0.00     0.019 C 
HETATM    8  C   UNK     0     168.577 173.799 169.766  0.00  0.00     0.012 C 
HETATM    9  C   UNK     0     167.416 173.118 169.009  0.00  0.00     0.044 C 
HETATM   10  C   UNK     0     164.110 174.144 171.734  0.00  0.00     0.011 C 
HETATM   11  C   UNK     0     163.668 173.717 170.300  0.00  0.00     0.027 C 
HETATM   12  C   UNK     0     162.328 172.881 170.308  0.00  0.00    -0.023 C 
HETATM   13  C   UNK     0     164.794 173.051 169.494  0.00  0.00    -0.037 C 
HETATM   14  C   UNK     0     162.044 172.316 168.888  0.00  0.00     0.071 C 
HETATM   15  C   UNK     0     161.114 173.748 170.747  0.00  0.00     0.044 C 
HETATM   16  C   UNK     0     162.409 171.684 171.294  0.00  0.00     0.016 C 
HETATM   17  C   UNK     0     161.651 173.396 167.865  0.00  0.00     0.047 C 
HETATM   18  C   UNK     0     163.230 171.531 168.363  0.00  0.00     0.154 C 
HETATM   19  C   UNK     0     160.456 174.220 168.343  0.00  0.00     0.147 C 
HETATM   20  C   UNK     0     160.724 174.821 169.724  0.00  0.00     0.147 C 
HETATM   21  O   UNK     0     163.084 170.539 167.650  0.00  0.00    -0.293 OA
HETATM   22  C   UNK     0     164.595 172.026 168.652  0.00  0.00     0.057 C 
BRANCH   5  23
HETATM   23  C   UNK     0     168.846 174.522 172.203  0.00  0.00     0.084 C 
HETATM   24  C   UNK     0     167.984 174.490 173.476  0.00  0.00     0.049 C 
BRANCH  23  25
HETATM   25  O   UNK     0     169.626 173.319 172.184  0.00  0.00    -0.387 OA
HETATM   26  H   UNK     0     170.305 173.372 172.877  0.00  0.00     0.210 HD
ENDBRANCH  23  25
BRANCH  23  27
HETATM   27  C   UNK     0     169.821 175.730 172.232  0.00  0.00     0.152 C 
BRANCH  27  28
HETATM   28  O   UNK     0     171.170 175.260 172.140  0.00  0.00    -0.393 OA
HETATM   29  H   UNK     0     171.423 174.928 173.019  0.00  0.00     0.210 HD
ENDBRANCH  27  28
BRANCH  27  30
HETATM   30  C   UNK     0     169.700 176.612 173.489  0.00  0.00     0.037 C 
BRANCH  30  31
HETATM   31  C   UNK     0     169.912 178.104 173.172  0.00  0.00     0.040 C 
BRANCH  31  32
HETATM   32  C   UNK     0     170.079 179.005 174.413  0.00  0.00     0.051 C 
HETATM   33  C   UNK     0     169.949 180.475 174.000  0.00  0.00     0.045 C 
HETATM   34  C   UNK     0     169.067 178.681 175.513  0.00  0.00     0.045 C 
BRANCH  32  35
HETATM   35  O   UNK     0     171.395 178.812 174.935  0.00  0.00    -0.391 OA
HETATM   36  H   UNK     0     171.720 177.953 174.616  0.00  0.00     0.210 HD
ENDBRANCH  32  35
ENDBRANCH  31  32
ENDBRANCH  30  31
ENDBRANCH  27  30
ENDBRANCH  23  27
ENDBRANCH   5  23
BRANCH  19  37
HETATM   37  O   UNK     0     159.304 173.378 168.411  0.00  0.00    -0.393 OA
HETATM   38  H   UNK     0     159.018 173.198 167.500  0.00  0.00     0.210 HD
ENDBRANCH  19  37
BRANCH  20  39
HETATM   39  O   UNK     0     159.553 175.502 170.168  0.00  0.00    -0.393 OA
HETATM   40  H   UNK     0     159.098 174.919 170.801  0.00  0.00     0.210 HD
ENDBRANCH  20  39
ENDBRANCH   1   3
TORSDOF 11
ENDMDL
