MODEL 1
REMARK VINA RESULT:      -9.9      0.000      0.000
REMARK  21 active torsions:
REMARK  status: ('A' for Active; 'I' for Inactive)
REMARK    1  A    between atoms: C_2  and  O_11 
REMARK    2  A    between atoms: C_3  and  O_7 
REMARK    3  A    between atoms: C_4  and  O_42 
REMARK    4  A    between atoms: C_5  and  O_9 
REMARK    5  A    between atoms: C_6  and  C_26 
REMARK    6  A    between atoms: O_11  and  C_12 
REMARK    7  A    between atoms: C_12  and  C_14 
REMARK    8  A    between atoms: C_16  and  O_20 
REMARK    9  A    between atoms: C_17  and  O_22 
REMARK   10  A    between atoms: C_18  and  O_24 
REMARK   11  A    between atoms: C_26  and  O_27 
REMARK   12  A    between atoms: O_27  and  C_28 
REMARK   13  A    between atoms: C_28  and  C_30 
REMARK   14  A    between atoms: C_32  and  O_36 
REMARK   15  A    between atoms: C_33  and  O_38 
REMARK   16  A    between atoms: C_34  and  O_40 
REMARK   17  A    between atoms: O_42  and  C_43 
REMARK   18  A    between atoms: C_43  and  C_45 
REMARK   19  A    between atoms: C_47  and  O_51 
REMARK   20  A    between atoms: C_48  and  O_53 
REMARK   21  A    between atoms: C_49  and  O_55 
ROOT
ATOM      1  O   UNL     1     151.350 153.816 148.994  0.00  0.00    -0.330 OA
ATOM      2  C   UNL     1     152.465 153.019 148.601  0.00  0.00     0.344 C 
ATOM      3  C   UNL     1     151.993 151.674 148.046  0.00  0.00     0.226 C 
ATOM      4  C   UNL     1     150.975 151.864 146.921  0.00  0.00     0.242 C 
ATOM      5  C   UNL     1     149.880 152.850 147.325  0.00  0.00     0.190 C 
ATOM      6  C   UNL     1     150.489 154.133 147.898  0.00  0.00     0.192 C 
ENDROOT
BRANCH   6   7
ATOM      7  C   UNL     1     149.416 155.084 148.416  0.00  0.00     0.266 C 
BRANCH   7   8
ATOM      8  O   UNL     1     148.356 154.316 148.956  0.00  0.00    -0.458 OA
BRANCH   8   9
ATOM      9  C   UNL     1     147.859 154.732 150.156  0.00  0.00     0.340 C 
ATOM     10  O   UNL     1     148.005 154.161 151.226  0.00  0.00    -0.245 OA
BRANCH   9  11
ATOM     11  C   UNL     1     147.094 155.996 150.007  0.00  0.00     0.066 A 
ATOM     12  C   UNL     1     147.658 157.204 150.417  0.00  0.00     0.064 A 
ATOM     13  C   UNL     1     146.941 158.392 150.275  0.00  0.00     0.163 A 
ATOM     14  C   UNL     1     145.661 158.372 149.722  0.00  0.00     0.201 A 
ATOM     15  C   UNL     1     145.097 157.164 149.311  0.00  0.00     0.163 A 
ATOM     16  C   UNL     1     145.814 155.976 149.454  0.00  0.00     0.064 A 
BRANCH  13  17
ATOM     17  O   UNL     1     147.502 159.566 150.680  0.00  0.00    -0.503 OA
ATOM     18  H   UNL     1     148.364 159.674 150.241  0.00  0.00     0.292 HD
ENDBRANCH  13  17
BRANCH  14  19
ATOM     19  O   UNL     1     144.959 159.533 149.583  0.00  0.00    -0.501 OA
ATOM     20  H   UNL     1     145.558 160.278 149.765  0.00  0.00     0.292 HD
ENDBRANCH  14  19
BRANCH  15  21
ATOM     21  O   UNL     1     143.848 157.130 148.768  0.00  0.00    -0.503 OA
ATOM     22  H   UNL     1     143.816 156.437 148.088  0.00  0.00     0.292 HD
ENDBRANCH  15  21
ENDBRANCH   9  11
ENDBRANCH   8   9
ENDBRANCH   7   8
ENDBRANCH   6   7
BRANCH   5  23
ATOM     23  O   UNL     1     149.092 153.173 146.183  0.00  0.00    -0.385 OA
ATOM     24  H   UNL     1     148.537 152.402 145.972  0.00  0.00     0.210 HD
ENDBRANCH   5  23
BRANCH   4  25
ATOM     25  O   UNL     1     150.355 150.611 146.626  0.00  0.00    -0.452 OA
BRANCH  25  26
ATOM     26  C   UNL     1     150.250 150.299 145.308  0.00  0.00     0.340 C 
ATOM     27  O   UNL     1     149.224 150.299 144.646  0.00  0.00    -0.245 OA
BRANCH  26  28
ATOM     28  C   UNL     1     151.579 149.941 144.750  0.00  0.00     0.066 A 
ATOM     29  C   UNL     1     152.199 148.752 145.133  0.00  0.00     0.064 A 
ATOM     30  C   UNL     1     153.446 148.415 144.606  0.00  0.00     0.163 A 
ATOM     31  C   UNL     1     154.074 149.268 143.698  0.00  0.00     0.201 A 
ATOM     32  C   UNL     1     153.453 150.457 143.316  0.00  0.00     0.163 A 
ATOM     33  C   UNL     1     152.205 150.794 143.842  0.00  0.00     0.064 A 
BRANCH  30  34
ATOM     34  O   UNL     1     154.042 147.250 144.987  0.00  0.00    -0.503 OA
ATOM     35  H   UNL     1     154.581 147.414 145.781  0.00  0.00     0.292 HD
ENDBRANCH  30  34
BRANCH  31  36
ATOM     36  O   UNL     1     155.294 148.940 143.185  0.00  0.00    -0.501 OA
ATOM     37  H   UNL     1     155.828 149.751 143.123  0.00  0.00     0.292 HD
ENDBRANCH  31  36
BRANCH  32  38
ATOM     38  O   UNL     1     154.055 151.300 142.429  0.00  0.00    -0.503 OA
ATOM     39  H   UNL     1     153.384 151.646 141.816  0.00  0.00     0.292 HD
ENDBRANCH  32  38
ENDBRANCH  26  28
ENDBRANCH  25  26
ENDBRANCH   4  25
BRANCH   2  40
ATOM     40  O   UNL     1     153.295 152.760 149.732  0.00  0.00    -0.429 OA
BRANCH  40  41
ATOM     41  C   UNL     1     152.805 153.168 150.932  0.00  0.00     0.342 C 
ATOM     42  O   UNL     1     151.829 152.709 151.506  0.00  0.00    -0.245 OA
BRANCH  41  43
ATOM     43  C   UNL     1     153.625 154.278 151.481  0.00  0.00     0.066 A 
ATOM     44  C   UNL     1     153.035 155.509 151.762  0.00  0.00     0.064 A 
ATOM     45  C   UNL     1     153.806 156.552 152.276  0.00  0.00     0.163 A 
ATOM     46  C   UNL     1     155.168 156.363 152.509  0.00  0.00     0.201 A 
ATOM     47  C   UNL     1     155.759 155.130 152.227  0.00  0.00     0.163 A 
ATOM     48  C   UNL     1     154.988 154.088 151.714  0.00  0.00     0.064 A 
BRANCH  45  49
ATOM     49  O   UNL     1     153.217 157.750 152.546  0.00  0.00    -0.503 OA
ATOM     50  H   UNL     1     153.690 158.180 153.278  0.00  0.00     0.292 HD
ENDBRANCH  45  49
BRANCH  46  51
ATOM     51  O   UNL     1     155.921 157.381 153.012  0.00  0.00    -0.501 OA
ATOM     52  H   UNL     1     156.356 157.836 152.270  0.00  0.00     0.292 HD
ENDBRANCH  46  51
BRANCH  47  53
ATOM     53  O   UNL     1     157.088 154.933 152.450  0.00  0.00    -0.503 OA
ATOM     54  H   UNL     1     157.313 154.011 152.240  0.00  0.00     0.292 HD
ENDBRANCH  47  53
ENDBRANCH  41  43
ENDBRANCH  40  41
ENDBRANCH   2  40
BRANCH   3  55
ATOM     55  O   UNL     1     153.131 150.975 147.543  0.00  0.00    -0.382 OA
ATOM     56  H   UNL     1     153.743 150.821 148.283  0.00  0.00     0.210 HD
ENDBRANCH   3  55
TORSDOF 21
ENDMDL
MODEL 2
REMARK VINA RESULT:      -9.8      1.889      3.389
REMARK  21 active torsions:
REMARK  status: ('A' for Active; 'I' for Inactive)
REMARK    1  A    between atoms: C_2  and  O_11 
REMARK    2  A    between atoms: C_3  and  O_7 
REMARK    3  A    between atoms: C_4  and  O_42 
REMARK    4  A    between atoms: C_5  and  O_9 
REMARK    5  A    between atoms: C_6  and  C_26 
REMARK    6  A    between atoms: O_11  and  C_12 
REMARK    7  A    between atoms: C_12  and  C_14 
REMARK    8  A    between atoms: C_16  and  O_20 
REMARK    9  A    between atoms: C_17  and  O_22 
REMARK   10  A    between atoms: C_18  and  O_24 
REMARK   11  A    between atoms: C_26  and  O_27 
REMARK   12  A    between atoms: O_27  and  C_28 
REMARK   13  A    between atoms: C_28  and  C_30 
REMARK   14  A    between atoms: C_32  and  O_36 
REMARK   15  A    between atoms: C_33  and  O_38 
REMARK   16  A    between atoms: C_34  and  O_40 
REMARK   17  A    between atoms: O_42  and  C_43 
REMARK   18  A    between atoms: C_43  and  C_45 
REMARK   19  A    between atoms: C_47  and  O_51 
REMARK   20  A    between atoms: C_48  and  O_53 
REMARK   21  A    between atoms: C_49  and  O_55 
ROOT
ATOM      1  O   UNL     1     151.900 154.715 148.608  0.00  0.00    -0.330 OA
ATOM      2  C   UNL     1     152.722 154.853 147.451  0.00  0.00     0.344 C 
ATOM      3  C   UNL     1     152.928 153.498 146.775  0.00  0.00     0.226 C 
ATOM      4  C   UNL     1     151.592 152.818 146.473  0.00  0.00     0.242 C 
ATOM      5  C   UNL     1     150.675 152.831 147.696  0.00  0.00     0.190 C 
ATOM      6  C   UNL     1     150.590 154.237 148.295  0.00  0.00     0.192 C 
ENDROOT
BRANCH   6   7
ATOM      7  C   UNL     1     149.775 154.252 149.584  0.00  0.00     0.266 C 
BRANCH   7   8
ATOM      8  O   UNL     1     148.401 154.330 149.247  0.00  0.00    -0.458 OA
BRANCH   8   9
ATOM      9  C   UNL     1     147.542 154.596 150.273  0.00  0.00     0.340 C 
ATOM     10  O   UNL     1     147.337 153.874 151.238  0.00  0.00    -0.245 OA
BRANCH   9  11
ATOM     11  C   UNL     1     146.862 155.901 150.075  0.00  0.00     0.066 A 
ATOM     12  C   UNL     1     145.567 155.941 149.558  0.00  0.00     0.064 A 
ATOM     13  C   UNL     1     144.928 157.166 149.374  0.00  0.00     0.163 A 
ATOM     14  C   UNL     1     145.582 158.351 149.706  0.00  0.00     0.201 A 
ATOM     15  C   UNL     1     146.877 158.312 150.223  0.00  0.00     0.163 A 
ATOM     16  C   UNL     1     147.517 157.087 150.407  0.00  0.00     0.064 A 
BRANCH  13  17
ATOM     17  O   UNL     1     143.662 157.192 148.868  0.00  0.00    -0.503 OA
ATOM     18  H   UNL     1     143.029 157.018 149.586  0.00  0.00     0.292 HD
ENDBRANCH  13  17
BRANCH  14  19
ATOM     19  O   UNL     1     144.958 159.550 149.525  0.00  0.00    -0.501 OA
ATOM     20  H   UNL     1     145.185 160.130 150.273  0.00  0.00     0.292 HD
ENDBRANCH  14  19
BRANCH  15  21
ATOM     21  O   UNL     1     147.528 159.463 150.553  0.00  0.00    -0.503 OA
ATOM     22  H   UNL     1     147.513 160.066 149.791  0.00  0.00     0.292 HD
ENDBRANCH  15  21
ENDBRANCH   9  11
ENDBRANCH   8   9
ENDBRANCH   7   8
ENDBRANCH   6   7
BRANCH   5  23
ATOM     23  O   UNL     1     149.372 152.402 147.313  0.00  0.00    -0.385 OA
ATOM     24  H   UNL     1     149.463 151.806 146.549  0.00  0.00     0.210 HD
ENDBRANCH   5  23
BRANCH   4  25
ATOM     25  O   UNL     1     151.824 151.456 146.109  0.00  0.00    -0.452 OA
BRANCH  25  26
ATOM     26  C   UNL     1     151.514 151.125 144.829  0.00  0.00     0.340 C 
ATOM     27  O   UNL     1     152.138 151.444 143.829  0.00  0.00    -0.245 OA
BRANCH  26  28
ATOM     28  C   UNL     1     150.279 150.300 144.789  0.00  0.00     0.066 A 
ATOM     29  C   UNL     1     150.074 149.306 145.746  0.00  0.00     0.064 A 
ATOM     30  C   UNL     1     148.912 148.534 145.711  0.00  0.00     0.163 A 
ATOM     31  C   UNL     1     147.958 148.754 144.718  0.00  0.00     0.201 A 
ATOM     32  C   UNL     1     148.164 149.748 143.760  0.00  0.00     0.163 A 
ATOM     33  C   UNL     1     149.325 150.521 143.796  0.00  0.00     0.064 A 
BRANCH  30  34
ATOM     34  O   UNL     1     148.723 147.566 146.651  0.00  0.00    -0.503 OA
ATOM     35  H   UNL     1     148.084 146.915 146.313  0.00  0.00     0.292 HD
ENDBRANCH  30  34
BRANCH  31  36
ATOM     36  O   UNL     1     146.824 147.998 144.681  0.00  0.00    -0.501 OA
ATOM     37  H   UNL     1     146.269 148.240 145.443  0.00  0.00     0.292 HD
ENDBRANCH  31  36
BRANCH  32  38
ATOM     38  O   UNL     1     147.240 149.974 142.785  0.00  0.00    -0.503 OA
ATOM     39  H   UNL     1     147.280 149.250 142.136  0.00  0.00     0.292 HD
ENDBRANCH  32  38
ENDBRANCH  26  28
ENDBRANCH  25  26
ENDBRANCH   4  25
BRANCH   2  40
ATOM     40  O   UNL     1     154.003 155.356 147.828  0.00  0.00    -0.429 OA
BRANCH  40  41
ATOM     41  C   UNL     1     153.997 156.403 148.694  0.00  0.00     0.342 C 
ATOM     42  O   UNL     1     153.560 157.522 148.470  0.00  0.00    -0.245 OA
BRANCH  41  43
ATOM     43  C   UNL     1     154.605 156.012 149.991  0.00  0.00     0.066 A 
ATOM     44  C   UNL     1     154.845 154.667 150.271  0.00  0.00     0.064 A 
ATOM     45  C   UNL     1     155.415 154.299 151.491  0.00  0.00     0.163 A 
ATOM     46  C   UNL     1     155.745 155.277 152.429  0.00  0.00     0.201 A 
ATOM     47  C   UNL     1     155.505 156.622 152.148  0.00  0.00     0.163 A 
ATOM     48  C   UNL     1     154.935 156.990 150.929  0.00  0.00     0.064 A 
BRANCH  45  49
ATOM     49  O   UNL     1     155.643 152.982 151.751  0.00  0.00    -0.503 OA
ATOM     50  H   UNL     1     155.879 152.530 150.924  0.00  0.00     0.292 HD
ENDBRANCH  45  49
BRANCH  46  51
ATOM     51  O   UNL     1     156.302 154.917 153.619  0.00  0.00    -0.501 OA
ATOM     52  H   UNL     1     156.680 155.713 154.034  0.00  0.00     0.292 HD
ENDBRANCH  46  51
BRANCH  47  53
ATOM     53  O   UNL     1     155.822 157.586 153.057  0.00  0.00    -0.503 OA
ATOM     54  H   UNL     1     155.883 157.184 153.940  0.00  0.00     0.292 HD
ENDBRANCH  47  53
ENDBRANCH  41  43
ENDBRANCH  40  41
ENDBRANCH   2  40
BRANCH   3  55
ATOM     55  O   UNL     1     153.638 153.710 145.554  0.00  0.00    -0.382 OA
ATOM     56  H   UNL     1     154.589 153.721 145.756  0.00  0.00     0.210 HD
ENDBRANCH   3  55
TORSDOF 21
ENDMDL
MODEL 3
REMARK VINA RESULT:      -9.8      1.014      2.052
REMARK  21 active torsions:
REMARK  status: ('A' for Active; 'I' for Inactive)
REMARK    1  A    between atoms: C_2  and  O_11 
REMARK    2  A    between atoms: C_3  and  O_7 
REMARK    3  A    between atoms: C_4  and  O_42 
REMARK    4  A    between atoms: C_5  and  O_9 
REMARK    5  A    between atoms: C_6  and  C_26 
REMARK    6  A    between atoms: O_11  and  C_12 
REMARK    7  A    between atoms: C_12  and  C_14 
REMARK    8  A    between atoms: C_16  and  O_20 
REMARK    9  A    between atoms: C_17  and  O_22 
REMARK   10  A    between atoms: C_18  and  O_24 
REMARK   11  A    between atoms: C_26  and  O_27 
REMARK   12  A    between atoms: O_27  and  C_28 
REMARK   13  A    between atoms: C_28  and  C_30 
REMARK   14  A    between atoms: C_32  and  O_36 
REMARK   15  A    between atoms: C_33  and  O_38 
REMARK   16  A    between atoms: C_34  and  O_40 
REMARK   17  A    between atoms: O_42  and  C_43 
REMARK   18  A    between atoms: C_43  and  C_45 
REMARK   19  A    between atoms: C_47  and  O_51 
REMARK   20  A    between atoms: C_48  and  O_53 
REMARK   21  A    between atoms: C_49  and  O_55 
ROOT
ATOM      1  O   UNL     1     151.007 153.423 148.623  0.00  0.00    -0.330 OA
ATOM      2  C   UNL     1     152.057 152.548 148.214  0.00  0.00     0.344 C 
ATOM      3  C   UNL     1     151.486 151.329 147.489  0.00  0.00     0.226 C 
ATOM      4  C   UNL     1     150.578 151.745 146.332  0.00  0.00     0.242 C 
ATOM      5  C   UNL     1     149.567 152.804 146.773  0.00  0.00     0.190 C 
ATOM      6  C   UNL     1     150.266 153.944 147.518  0.00  0.00     0.192 C 
ENDROOT
BRANCH   6   7
ATOM      7  C   UNL     1     149.266 154.954 148.071  0.00  0.00     0.266 C 
BRANCH   7   8
ATOM      8  O   UNL     1     148.233 154.248 148.733  0.00  0.00    -0.458 OA
BRANCH   8   9
ATOM      9  C   UNL     1     147.889 154.703 149.973  0.00  0.00     0.340 C 
ATOM     10  O   UNL     1     148.160 154.159 151.033  0.00  0.00    -0.245 OA
BRANCH   9  11
ATOM     11  C   UNL     1     147.123 155.971 149.880  0.00  0.00     0.066 A 
ATOM     12  C   UNL     1     145.824 155.966 149.370  0.00  0.00     0.064 A 
ATOM     13  C   UNL     1     145.103 157.156 149.286  0.00  0.00     0.163 A 
ATOM     14  C   UNL     1     145.679 158.352 149.711  0.00  0.00     0.201 A 
ATOM     15  C   UNL     1     146.978 158.358 150.221  0.00  0.00     0.163 A 
ATOM     16  C   UNL     1     147.699 157.168 150.306  0.00  0.00     0.064 A 
BRANCH  13  17
ATOM     17  O   UNL     1     143.835 157.138 148.786  0.00  0.00    -0.503 OA
ATOM     18  H   UNL     1     143.756 156.409 148.146  0.00  0.00     0.292 HD
ENDBRANCH  13  17
BRANCH  14  19
ATOM     19  O   UNL     1     144.976 159.517 149.628  0.00  0.00    -0.501 OA
ATOM     20  H   UNL     1     144.641 159.737 150.515  0.00  0.00     0.292 HD
ENDBRANCH  14  19
BRANCH  15  21
ATOM     21  O   UNL     1     147.553 159.520 150.641  0.00  0.00    -0.503 OA
ATOM     22  H   UNL     1     147.429 160.200 149.959  0.00  0.00     0.292 HD
ENDBRANCH  15  21
ENDBRANCH   9  11
ENDBRANCH   8   9
ENDBRANCH   7   8
ENDBRANCH   6   7
BRANCH   5  23
ATOM     23  O   UNL     1     148.902 153.328 145.628  0.00  0.00    -0.385 OA
ATOM     24  H   UNL     1     149.319 152.945 144.837  0.00  0.00     0.210 HD
ENDBRANCH   5  23
BRANCH   4  25
ATOM     25  O   UNL     1     149.851 150.608 145.866  0.00  0.00    -0.452 OA
BRANCH  25  26
ATOM     26  C   UNL     1     149.817 150.438 144.518  0.00  0.00     0.340 C 
ATOM     27  O   UNL     1     148.862 150.654 143.788  0.00  0.00    -0.245 OA
BRANCH  26  28
ATOM     28  C   UNL     1     151.125 149.939 144.023  0.00  0.00     0.066 A 
ATOM     29  C   UNL     1     152.028 150.820 143.428  0.00  0.00     0.064 A 
ATOM     30  C   UNL     1     153.258 150.351 142.966  0.00  0.00     0.163 A 
ATOM     31  C   UNL     1     153.584 149.002 143.097  0.00  0.00     0.201 A 
ATOM     32  C   UNL     1     152.680 148.120 143.691  0.00  0.00     0.163 A 
ATOM     33  C   UNL     1     151.450 148.589 144.155  0.00  0.00     0.064 A 
BRANCH  30  34
ATOM     34  O   UNL     1     154.132 151.222 142.387  0.00  0.00    -0.503 OA
ATOM     35  H   UNL     1     154.093 152.072 142.858  0.00  0.00     0.292 HD
ENDBRANCH  30  34
BRANCH  31  36
ATOM     36  O   UNL     1     154.785 148.542 142.643  0.00  0.00    -0.501 OA
ATOM     37  H   UNL     1     154.809 147.577 142.764  0.00  0.00     0.292 HD
ENDBRANCH  31  36
BRANCH  32  38
ATOM     38  O   UNL     1     152.986 146.799 143.826  0.00  0.00    -0.503 OA
ATOM     39  H   UNL     1     152.377 146.396 144.468  0.00  0.00     0.292 HD
ENDBRANCH  32  38
ENDBRANCH  26  28
ENDBRANCH  25  26
ENDBRANCH   4  25
BRANCH   2  40
ATOM     40  O   UNL     1     152.771 152.084 149.360  0.00  0.00    -0.429 OA
BRANCH  40  41
ATOM     41  C   UNL     1     152.316 152.527 150.561  0.00  0.00     0.342 C 
ATOM     42  O   UNL     1     151.242 152.251 151.072  0.00  0.00    -0.245 OA
BRANCH  41  43
ATOM     43  C   UNL     1     153.316 153.420 151.200  0.00  0.00     0.066 A 
ATOM     44  C   UNL     1     153.258 153.662 152.572  0.00  0.00     0.064 A 
ATOM     45  C   UNL     1     154.197 154.503 153.172  0.00  0.00     0.163 A 
ATOM     46  C   UNL     1     155.193 155.101 152.399  0.00  0.00     0.201 A 
ATOM     47  C   UNL     1     155.250 154.858 151.026  0.00  0.00     0.163 A 
ATOM     48  C   UNL     1     154.312 154.018 150.427  0.00  0.00     0.064 A 
BRANCH  45  49
ATOM     49  O   UNL     1     154.129 154.732 154.513  0.00  0.00    -0.503 OA
ATOM     50  H   UNL     1     153.468 155.423 154.685  0.00  0.00     0.292 HD
ENDBRANCH  45  49
BRANCH  46  51
ATOM     51  O   UNL     1     156.109 155.921 152.986  0.00  0.00    -0.501 OA
ATOM     52  H   UNL     1     155.649 156.480 153.636  0.00  0.00     0.292 HD
ENDBRANCH  46  51
BRANCH  47  53
ATOM     53  O   UNL     1     156.217 155.436 150.261  0.00  0.00    -0.503 OA
ATOM     54  H   UNL     1     157.025 154.898 150.309  0.00  0.00     0.292 HD
ENDBRANCH  47  53
ENDBRANCH  41  43
ENDBRANCH  40  41
ENDBRANCH   2  40
BRANCH   3  55
ATOM     55  O   UNL     1     152.576 150.559 146.983  0.00  0.00    -0.382 OA
ATOM     56  H   UNL     1     152.227 149.943 146.316  0.00  0.00     0.210 HD
ENDBRANCH   3  55
TORSDOF 21
ENDMDL
MODEL 4
REMARK VINA RESULT:      -9.8      1.674      2.528
REMARK  21 active torsions:
REMARK  status: ('A' for Active; 'I' for Inactive)
REMARK    1  A    between atoms: C_2  and  O_11 
REMARK    2  A    between atoms: C_3  and  O_7 
REMARK    3  A    between atoms: C_4  and  O_42 
REMARK    4  A    between atoms: C_5  and  O_9 
REMARK    5  A    between atoms: C_6  and  C_26 
REMARK    6  A    between atoms: O_11  and  C_12 
REMARK    7  A    between atoms: C_12  and  C_14 
REMARK    8  A    between atoms: C_16  and  O_20 
REMARK    9  A    between atoms: C_17  and  O_22 
REMARK   10  A    between atoms: C_18  and  O_24 
REMARK   11  A    between atoms: C_26  and  O_27 
REMARK   12  A    between atoms: O_27  and  C_28 
REMARK   13  A    between atoms: C_28  and  C_30 
REMARK   14  A    between atoms: C_32  and  O_36 
REMARK   15  A    between atoms: C_33  and  O_38 
REMARK   16  A    between atoms: C_34  and  O_40 
REMARK   17  A    between atoms: O_42  and  C_43 
REMARK   18  A    between atoms: C_43  and  C_45 
REMARK   19  A    between atoms: C_47  and  O_51 
REMARK   20  A    between atoms: C_48  and  O_53 
REMARK   21  A    between atoms: C_49  and  O_55 
ROOT
ATOM      1  O   UNL     1     149.840 153.530 148.838  0.00  0.00    -0.330 OA
ATOM      2  C   UNL     1     151.198 153.489 149.270  0.00  0.00     0.344 C 
ATOM      3  C   UNL     1     151.864 152.187 148.826  0.00  0.00     0.226 C 
ATOM      4  C   UNL     1     151.717 151.973 147.319  0.00  0.00     0.242 C 
ATOM      5  C   UNL     1     150.271 152.181 146.869  0.00  0.00     0.190 C 
ATOM      6  C   UNL     1     149.717 153.501 147.414  0.00  0.00     0.192 C 
ENDROOT
BRANCH   6   7
ATOM      7  C   UNL     1     148.240 153.675 147.076  0.00  0.00     0.266 C 
BRANCH   7   8
ATOM      8  O   UNL     1     147.544 154.014 148.262  0.00  0.00    -0.458 OA
BRANCH   8   9
ATOM      9  C   UNL     1     146.448 154.813 148.111  0.00  0.00     0.340 C 
ATOM     10  O   UNL     1     145.426 154.517 147.510  0.00  0.00    -0.245 OA
BRANCH   9  11
ATOM     11  C   UNL     1     146.649 156.124 148.778  0.00  0.00     0.066 A 
ATOM     12  C   UNL     1     147.885 156.435 149.346  0.00  0.00     0.064 A 
ATOM     13  C   UNL     1     148.075 157.667 149.971  0.00  0.00     0.163 A 
ATOM     14  C   UNL     1     147.030 158.588 150.029  0.00  0.00     0.201 A 
ATOM     15  C   UNL     1     145.794 158.277 149.461  0.00  0.00     0.163 A 
ATOM     16  C   UNL     1     145.604 157.046 148.836  0.00  0.00     0.064 A 
BRANCH  13  17
ATOM     17  O   UNL     1     149.287 157.960 150.521  0.00  0.00    -0.503 OA
ATOM     18  H   UNL     1     149.938 158.084 149.809  0.00  0.00     0.292 HD
ENDBRANCH  13  17
BRANCH  14  19
ATOM     19  O   UNL     1     147.214 159.793 150.641  0.00  0.00    -0.501 OA
ATOM     20  H   UNL     1     147.025 159.686 151.590  0.00  0.00     0.292 HD
ENDBRANCH  14  19
BRANCH  15  21
ATOM     21  O   UNL     1     144.764 159.169 149.510  0.00  0.00    -0.503 OA
ATOM     22  H   UNL     1     144.008 158.806 149.019  0.00  0.00     0.292 HD
ENDBRANCH  15  21
ENDBRANCH   9  11
ENDBRANCH   8   9
ENDBRANCH   7   8
ENDBRANCH   6   7
BRANCH   5  23
ATOM     23  O   UNL     1     150.219 152.202 145.445  0.00  0.00    -0.385 OA
ATOM     24  H   UNL     1     149.511 151.599 145.161  0.00  0.00     0.210 HD
ENDBRANCH   5  23
BRANCH   4  25
ATOM     25  O   UNL     1     152.094 150.636 146.990  0.00  0.00    -0.452 OA
BRANCH  25  26
ATOM     26  C   UNL     1     153.215 150.505 146.234  0.00  0.00     0.340 C 
ATOM     27  O   UNL     1     154.275 151.084 146.411  0.00  0.00    -0.245 OA
BRANCH  26  28
ATOM     28  C   UNL     1     152.987 149.543 145.127  0.00  0.00     0.066 A 
ATOM     29  C   UNL     1     153.992 149.307 144.189  0.00  0.00     0.064 A 
ATOM     30  C   UNL     1     153.778 148.400 143.151  0.00  0.00     0.163 A 
ATOM     31  C   UNL     1     152.559 147.731 143.049  0.00  0.00     0.201 A 
ATOM     32  C   UNL     1     151.553 147.967 143.987  0.00  0.00     0.163 A 
ATOM     33  C   UNL     1     151.767 148.873 145.026  0.00  0.00     0.064 A 
BRANCH  30  34
ATOM     34  O   UNL     1     154.769 148.177 142.242  0.00  0.00    -0.503 OA
ATOM     35  H   UNL     1     155.368 147.492 142.585  0.00  0.00     0.292 HD
ENDBRANCH  30  34
BRANCH  31  36
ATOM     36  O   UNL     1     152.349 146.846 142.033  0.00  0.00    -0.501 OA
ATOM     37  H   UNL     1     152.693 147.236 141.211  0.00  0.00     0.292 HD
ENDBRANCH  31  36
BRANCH  32  38
ATOM     38  O   UNL     1     150.358 147.319 143.899  0.00  0.00    -0.503 OA
ATOM     39  H   UNL     1     149.695 147.926 143.525  0.00  0.00     0.292 HD
ENDBRANCH  32  38
ENDBRANCH  26  28
ENDBRANCH  25  26
ENDBRANCH   4  25
BRANCH   2  40
ATOM     40  O   UNL     1     151.251 153.546 150.696  0.00  0.00    -0.429 OA
BRANCH  40  41
ATOM     41  C   UNL     1     151.481 154.774 151.231  0.00  0.00     0.342 C 
ATOM     42  O   UNL     1     150.715 155.726 151.208  0.00  0.00    -0.245 OA
BRANCH  41  43
ATOM     43  C   UNL     1     152.821 154.822 151.868  0.00  0.00     0.066 A 
ATOM     44  C   UNL     1     153.963 154.969 151.081  0.00  0.00     0.064 A 
ATOM     45  C   UNL     1     155.223 155.012 151.681  0.00  0.00     0.163 A 
ATOM     46  C   UNL     1     155.340 154.909 153.066  0.00  0.00     0.201 A 
ATOM     47  C   UNL     1     154.197 154.763 153.854  0.00  0.00     0.163 A 
ATOM     48  C   UNL     1     152.938 154.719 153.255  0.00  0.00     0.064 A 
BRANCH  45  49
ATOM     49  O   UNL     1     156.330 155.155 150.899  0.00  0.00    -0.503 OA
ATOM     50  H   UNL     1     156.256 155.980 150.391  0.00  0.00     0.292 HD
ENDBRANCH  45  49
BRANCH  46  51
ATOM     51  O   UNL     1     156.569 154.953 153.651  0.00  0.00    -0.501 OA
ATOM     52  H   UNL     1     156.493 154.597 154.554  0.00  0.00     0.292 HD
ENDBRANCH  46  51
BRANCH  47  53
ATOM     53  O   UNL     1     154.298 154.661 155.208  0.00  0.00    -0.503 OA
ATOM     54  H   UNL     1     154.712 153.811 155.434  0.00  0.00     0.292 HD
ENDBRANCH  47  53
ENDBRANCH  41  43
ENDBRANCH  40  41
ENDBRANCH   2  40
BRANCH   3  55
ATOM     55  O   UNL     1     153.250 152.256 149.162  0.00  0.00    -0.382 OA
ATOM     56  H   UNL     1     153.728 151.620 148.603  0.00  0.00     0.210 HD
ENDBRANCH   3  55
TORSDOF 21
ENDMDL
MODEL 5
REMARK VINA RESULT:      -9.7      1.493      6.247
REMARK  21 active torsions:
REMARK  status: ('A' for Active; 'I' for Inactive)
REMARK    1  A    between atoms: C_2  and  O_11 
REMARK    2  A    between atoms: C_3  and  O_7 
REMARK    3  A    between atoms: C_4  and  O_42 
REMARK    4  A    between atoms: C_5  and  O_9 
REMARK    5  A    between atoms: C_6  and  C_26 
REMARK    6  A    between atoms: O_11  and  C_12 
REMARK    7  A    between atoms: C_12  and  C_14 
REMARK    8  A    between atoms: C_16  and  O_20 
REMARK    9  A    between atoms: C_17  and  O_22 
REMARK   10  A    between atoms: C_18  and  O_24 
REMARK   11  A    between atoms: C_26  and  O_27 
REMARK   12  A    between atoms: O_27  and  C_28 
REMARK   13  A    between atoms: C_28  and  C_30 
REMARK   14  A    between atoms: C_32  and  O_36 
REMARK   15  A    between atoms: C_33  and  O_38 
REMARK   16  A    between atoms: C_34  and  O_40 
REMARK   17  A    between atoms: O_42  and  C_43 
REMARK   18  A    between atoms: C_43  and  C_45 
REMARK   19  A    between atoms: C_47  and  O_51 
REMARK   20  A    between atoms: C_48  and  O_53 
REMARK   21  A    between atoms: C_49  and  O_55 
ROOT
ATOM      1  O   UNL     1     151.408 153.835 151.057  0.00  0.00    -0.330 OA
ATOM      2  C   UNL     1     150.202 153.818 150.296  0.00  0.00     0.344 C 
ATOM      3  C   UNL     1     150.513 153.763 148.800  0.00  0.00     0.226 C 
ATOM      4  C   UNL     1     151.438 152.592 148.467  0.00  0.00     0.242 C 
ATOM      5  C   UNL     1     152.641 152.552 149.410  0.00  0.00     0.190 C 
ATOM      6  C   UNL     1     152.191 152.654 150.869  0.00  0.00     0.192 C 
ENDROOT
BRANCH   6   7
ATOM      7  C   UNL     1     153.379 152.733 151.822  0.00  0.00     0.266 C 
BRANCH   7   8
ATOM      8  O   UNL     1     153.972 154.012 151.696  0.00  0.00    -0.458 OA
BRANCH   8   9
ATOM      9  C   UNL     1     153.813 154.859 152.754  0.00  0.00     0.340 C 
ATOM     10  O   UNL     1     153.748 154.528 153.929  0.00  0.00    -0.245 OA
BRANCH   9  11
ATOM     11  C   UNL     1     153.722 156.269 152.299  0.00  0.00     0.066 A 
ATOM     12  C   UNL     1     152.474 156.850 152.073  0.00  0.00     0.064 A 
ATOM     13  C   UNL     1     152.389 158.175 151.648  0.00  0.00     0.163 A 
ATOM     14  C   UNL     1     153.550 158.920 151.450  0.00  0.00     0.201 A 
ATOM     15  C   UNL     1     154.798 158.340 151.676  0.00  0.00     0.163 A 
ATOM     16  C   UNL     1     154.884 157.015 152.101  0.00  0.00     0.064 A 
BRANCH  13  17
ATOM     17  O   UNL     1     151.163 158.731 151.431  0.00  0.00    -0.503 OA
ATOM     18  H   UNL     1     150.475 158.097 151.695  0.00  0.00     0.292 HD
ENDBRANCH  13  17
BRANCH  14  19
ATOM     19  O   UNL     1     153.467 160.216 151.033  0.00  0.00    -0.501 OA
ATOM     20  H   UNL     1     153.654 160.243 150.078  0.00  0.00     0.292 HD
ENDBRANCH  14  19
BRANCH  15  21
ATOM     21  O   UNL     1     155.941 159.057 151.486  0.00  0.00    -0.503 OA
ATOM     22  H   UNL     1     155.726 160.005 151.494  0.00  0.00     0.292 HD
ENDBRANCH  15  21
ENDBRANCH   9  11
ENDBRANCH   8   9
ENDBRANCH   7   8
ENDBRANCH   6   7
BRANCH   5  23
ATOM     23  O   UNL     1     153.348 151.330 149.219  0.00  0.00    -0.385 OA
ATOM     24  H   UNL     1     152.695 150.613 149.142  0.00  0.00     0.210 HD
ENDBRANCH   5  23
BRANCH   4  25
ATOM     25  O   UNL     1     151.927 152.738 147.133  0.00  0.00    -0.452 OA
BRANCH  25  26
ATOM     26  C   UNL     1     151.306 151.983 146.190  0.00  0.00     0.340 C 
ATOM     27  O   UNL     1     150.105 151.938 145.978  0.00  0.00    -0.245 OA
BRANCH  26  28
ATOM     28  C   UNL     1     152.299 151.189 145.422  0.00  0.00     0.066 A 
ATOM     29  C   UNL     1     152.742 151.640 144.179  0.00  0.00     0.064 A 
ATOM     30  C   UNL     1     153.678 150.896 143.460  0.00  0.00     0.163 A 
ATOM     31  C   UNL     1     154.168 149.700 143.983  0.00  0.00     0.201 A 
ATOM     32  C   UNL     1     153.724 149.248 145.226  0.00  0.00     0.163 A 
ATOM     33  C   UNL     1     152.789 149.993 145.946  0.00  0.00     0.064 A 
BRANCH  30  34
ATOM     34  O   UNL     1     154.103 151.348 142.247  0.00  0.00    -0.503 OA
ATOM     35  H   UNL     1     153.392 151.866 141.833  0.00  0.00     0.292 HD
ENDBRANCH  30  34
BRANCH  31  36
ATOM     36  O   UNL     1     155.080 148.971 143.279  0.00  0.00    -0.501 OA
ATOM     37  H   UNL     1     155.736 148.614 143.904  0.00  0.00     0.292 HD
ENDBRANCH  31  36
BRANCH  32  38
ATOM     38  O   UNL     1     154.196 148.081 145.749  0.00  0.00    -0.503 OA
ATOM     39  H   UNL     1     153.451 147.575 146.118  0.00  0.00     0.292 HD
ENDBRANCH  32  38
ENDBRANCH  26  28
ENDBRANCH  25  26
ENDBRANCH   4  25
BRANCH   2  40
ATOM     40  O   UNL     1     149.458 155.010 150.547  0.00  0.00    -0.429 OA
BRANCH  40  41
ATOM     41  C   UNL     1     148.107 154.875 150.548  0.00  0.00     0.342 C 
ATOM     42  O   UNL     1     147.485 153.838 150.723  0.00  0.00    -0.245 OA
BRANCH  41  43
ATOM     43  C   UNL     1     147.451 156.185 150.302  0.00  0.00     0.066 A 
ATOM     44  C   UNL     1     146.199 156.234 149.691  0.00  0.00     0.064 A 
ATOM     45  C   UNL     1     145.584 157.466 149.458  0.00  0.00     0.163 A 
ATOM     46  C   UNL     1     146.223 158.646 149.837  0.00  0.00     0.201 A 
ATOM     47  C   UNL     1     147.476 158.596 150.449  0.00  0.00     0.163 A 
ATOM     48  C   UNL     1     148.090 157.366 150.681  0.00  0.00     0.064 A 
BRANCH  45  49
ATOM     49  O   UNL     1     144.361 157.499 148.860  0.00  0.00    -0.503 OA
ATOM     50  H   UNL     1     144.477 157.458 147.895  0.00  0.00     0.292 HD
ENDBRANCH  45  49
BRANCH  46  51
ATOM     51  O   UNL     1     145.622 159.848 149.610  0.00  0.00    -0.501 OA
ATOM     52  H   UNL     1     146.200 160.550 149.956  0.00  0.00     0.292 HD
ENDBRANCH  46  51
BRANCH  47  53
ATOM     53  O   UNL     1     148.110 159.742 150.823  0.00  0.00    -0.503 OA
ATOM     54  H   UNL     1     148.736 160.003 150.126  0.00  0.00     0.292 HD
ENDBRANCH  47  53
ENDBRANCH  41  43
ENDBRANCH  40  41
ENDBRANCH   2  40
BRANCH   3  55
ATOM     55  O   UNL     1     149.282 153.610 148.094  0.00  0.00    -0.382 OA
ATOM     56  H   UNL     1     149.481 153.587 147.142  0.00  0.00     0.210 HD
ENDBRANCH   3  55
TORSDOF 21
ENDMDL
MODEL 6
REMARK VINA RESULT:      -9.7      1.460      8.845
REMARK  21 active torsions:
REMARK  status: ('A' for Active; 'I' for Inactive)
REMARK    1  A    between atoms: C_2  and  O_11 
REMARK    2  A    between atoms: C_3  and  O_7 
REMARK    3  A    between atoms: C_4  and  O_42 
REMARK    4  A    between atoms: C_5  and  O_9 
REMARK    5  A    between atoms: C_6  and  C_26 
REMARK    6  A    between atoms: O_11  and  C_12 
REMARK    7  A    between atoms: C_12  and  C_14 
REMARK    8  A    between atoms: C_16  and  O_20 
REMARK    9  A    between atoms: C_17  and  O_22 
REMARK   10  A    between atoms: C_18  and  O_24 
REMARK   11  A    between atoms: C_26  and  O_27 
REMARK   12  A    between atoms: O_27  and  C_28 
REMARK   13  A    between atoms: C_28  and  C_30 
REMARK   14  A    between atoms: C_32  and  O_36 
REMARK   15  A    between atoms: C_33  and  O_38 
REMARK   16  A    between atoms: C_34  and  O_40 
REMARK   17  A    between atoms: O_42  and  C_43 
REMARK   18  A    between atoms: C_43  and  C_45 
REMARK   19  A    between atoms: C_47  and  O_51 
REMARK   20  A    between atoms: C_48  and  O_53 
REMARK   21  A    between atoms: C_49  and  O_55 
ROOT
ATOM      1  O   UNL     1     149.522 153.547 148.617  0.00  0.00    -0.330 OA
ATOM      2  C   UNL     1     149.754 154.788 149.279  0.00  0.00     0.344 C 
ATOM      3  C   UNL     1     151.254 155.055 149.408  0.00  0.00     0.226 C 
ATOM      4  C   UNL     1     151.952 154.969 148.050  0.00  0.00     0.242 C 
ATOM      5  C   UNL     1     151.553 153.698 147.300  0.00  0.00     0.190 C 
ATOM      6  C   UNL     1     150.031 153.535 147.281  0.00  0.00     0.192 C 
ENDROOT
BRANCH   6   7
ATOM      7  C   UNL     1     149.613 152.216 146.641  0.00  0.00     0.266 C 
BRANCH   7   8
ATOM      8  O   UNL     1     149.721 152.343 145.235  0.00  0.00    -0.458 OA
BRANCH   8   9
ATOM      9  C   UNL     1     149.695 151.182 144.520  0.00  0.00     0.340 C 
ATOM     10  O   UNL     1     148.696 150.646 144.063  0.00  0.00    -0.245 OA
BRANCH   9  11
ATOM     11  C   UNL     1     151.063 150.625 144.358  0.00  0.00     0.066 A 
ATOM     12  C   UNL     1     151.949 151.208 143.452  0.00  0.00     0.064 A 
ATOM     13  C   UNL     1     153.234 150.688 143.302  0.00  0.00     0.163 A 
ATOM     14  C   UNL     1     153.633 149.586 144.057  0.00  0.00     0.201 A 
ATOM     15  C   UNL     1     152.747 149.003 144.963  0.00  0.00     0.163 A 
ATOM     16  C   UNL     1     151.462 149.524 145.114  0.00  0.00     0.064 A 
BRANCH  13  17
ATOM     17  O   UNL     1     154.091 151.266 142.414  0.00  0.00    -0.503 OA
ATOM     18  H   UNL     1     154.360 150.603 141.754  0.00  0.00     0.292 HD
ENDBRANCH  13  17
BRANCH  14  19
ATOM     19  O   UNL     1     154.889 149.075 143.910  0.00  0.00    -0.501 OA
ATOM     20  H   UNL     1     155.325 149.541 143.174  0.00  0.00     0.292 HD
ENDBRANCH  14  19
BRANCH  15  21
ATOM     21  O   UNL     1     153.124 147.927 145.709  0.00  0.00    -0.503 OA
ATOM     22  H   UNL     1     154.073 147.765 145.575  0.00  0.00     0.292 HD
ENDBRANCH  15  21
ENDBRANCH   9  11
ENDBRANCH   8   9
ENDBRANCH   7   8
ENDBRANCH   6   7
BRANCH   5  23
ATOM     23  O   UNL     1     152.036 153.768 145.962  0.00  0.00    -0.385 OA
ATOM     24  H   UNL     1     152.316 154.684 145.791  0.00  0.00     0.210 HD
ENDBRANCH   5  23
BRANCH   4  25
ATOM     25  O   UNL     1     153.367 154.942 148.244  0.00  0.00    -0.452 OA
BRANCH  25  26
ATOM     26  C   UNL     1     153.912 156.062 148.786  0.00  0.00     0.340 C 
ATOM     27  O   UNL     1     153.887 157.183 148.301  0.00  0.00    -0.245 OA
BRANCH  26  28
ATOM     28  C   UNL     1     154.567 155.749 150.081  0.00  0.00     0.066 A 
ATOM     29  C   UNL     1     154.820 154.424 150.433  0.00  0.00     0.064 A 
ATOM     30  C   UNL     1     155.438 154.130 151.648  0.00  0.00     0.163 A 
ATOM     31  C   UNL     1     155.800 155.162 152.513  0.00  0.00     0.201 A 
ATOM     32  C   UNL     1     155.547 156.488 152.162  0.00  0.00     0.163 A 
ATOM     33  C   UNL     1     154.930 156.782 150.946  0.00  0.00     0.064 A 
BRANCH  30  34
ATOM     34  O   UNL     1     155.680 152.831 151.980  0.00  0.00    -0.503 OA
ATOM     35  H   UNL     1     154.832 152.368 152.094  0.00  0.00     0.292 HD
ENDBRANCH  30  34
BRANCH  31  36
ATOM     36  O   UNL     1     156.402 154.876 153.703  0.00  0.00    -0.501 OA
ATOM     37  H   UNL     1     157.014 154.132 153.566  0.00  0.00     0.292 HD
ENDBRANCH  31  36
BRANCH  32  38
ATOM     38  O   UNL     1     155.896 157.506 152.998  0.00  0.00    -0.503 OA
ATOM     39  H   UNL     1     155.290 158.254 152.858  0.00  0.00     0.292 HD
ENDBRANCH  32  38
ENDBRANCH  26  28
ENDBRANCH  25  26
ENDBRANCH   4  25
BRANCH   2  40
ATOM     40  O   UNL     1     149.202 154.743 150.594  0.00  0.00    -0.429 OA
BRANCH  40  41
ATOM     41  C   UNL     1     147.852 154.603 150.665  0.00  0.00     0.342 C 
ATOM     42  O   UNL     1     147.247 153.588 150.974  0.00  0.00    -0.245 OA
BRANCH  41  43
ATOM     43  C   UNL     1     147.176 155.877 150.309  0.00  0.00     0.066 A 
ATOM     44  C   UNL     1     146.004 155.857 149.555  0.00  0.00     0.064 A 
ATOM     45  C   UNL     1     145.371 157.054 149.219  0.00  0.00     0.163 A 
ATOM     46  C   UNL     1     145.910 158.270 149.637  0.00  0.00     0.201 A 
ATOM     47  C   UNL     1     147.084 158.289 150.391  0.00  0.00     0.163 A 
ATOM     48  C   UNL     1     147.717 157.093 150.727  0.00  0.00     0.064 A 
BRANCH  45  49
ATOM     49  O   UNL     1     144.226 157.021 148.481  0.00  0.00    -0.503 OA
ATOM     50  H   UNL     1     144.451 156.843 147.552  0.00  0.00     0.292 HD
ENDBRANCH  45  49
BRANCH  46  51
ATOM     51  O   UNL     1     145.291 159.439 149.309  0.00  0.00    -0.501 OA
ATOM     52  H   UNL     1     144.515 159.232 148.759  0.00  0.00     0.292 HD
ENDBRANCH  46  51
BRANCH  47  53
ATOM     53  O   UNL     1     147.622 159.471 150.805  0.00  0.00    -0.503 OA
ATOM     54  H   UNL     1     146.990 159.920 151.392  0.00  0.00     0.292 HD
ENDBRANCH  47  53
ENDBRANCH  41  43
ENDBRANCH  40  41
ENDBRANCH   2  40
BRANCH   3  55
ATOM     55  O   UNL     1     151.431 156.363 149.950  0.00  0.00    -0.382 OA
ATOM     56  H   UNL     1     150.593 156.635 150.361  0.00  0.00     0.210 HD
ENDBRANCH   3  55
TORSDOF 21
ENDMDL
MODEL 7
REMARK VINA RESULT:      -9.7      1.608      6.410
REMARK  21 active torsions:
REMARK  status: ('A' for Active; 'I' for Inactive)
REMARK    1  A    between atoms: C_2  and  O_11 
REMARK    2  A    between atoms: C_3  and  O_7 
REMARK    3  A    between atoms: C_4  and  O_42 
REMARK    4  A    between atoms: C_5  and  O_9 
REMARK    5  A    between atoms: C_6  and  C_26 
REMARK    6  A    between atoms: O_11  and  C_12 
REMARK    7  A    between atoms: C_12  and  C_14 
REMARK    8  A    between atoms: C_16  and  O_20 
REMARK    9  A    between atoms: C_17  and  O_22 
REMARK   10  A    between atoms: C_18  and  O_24 
REMARK   11  A    between atoms: C_26  and  O_27 
REMARK   12  A    between atoms: O_27  and  C_28 
REMARK   13  A    between atoms: C_28  and  C_30 
REMARK   14  A    between atoms: C_32  and  O_36 
REMARK   15  A    between atoms: C_33  and  O_38 
REMARK   16  A    between atoms: C_34  and  O_40 
REMARK   17  A    between atoms: O_42  and  C_43 
REMARK   18  A    between atoms: C_43  and  C_45 
REMARK   19  A    between atoms: C_47  and  O_51 
REMARK   20  A    between atoms: C_48  and  O_53 
REMARK   21  A    between atoms: C_49  and  O_55 
ROOT
ATOM      1  O   UNL     1     151.475 154.291 151.027  0.00  0.00    -0.330 OA
ATOM      2  C   UNL     1     150.235 154.103 150.349  0.00  0.00     0.344 C 
ATOM      3  C   UNL     1     150.474 153.780 148.874  0.00  0.00     0.226 C 
ATOM      4  C   UNL     1     151.422 152.592 148.711  0.00  0.00     0.242 C 
ATOM      5  C   UNL     1     152.670 152.757 149.578  0.00  0.00     0.190 C 
ATOM      6  C   UNL     1     152.288 153.116 151.017  0.00  0.00     0.192 C 
ENDROOT
BRANCH   6   7
ATOM      7  C   UNL     1     153.518 153.401 151.873  0.00  0.00     0.266 C 
BRANCH   7   8
ATOM      8  O   UNL     1     154.494 154.029 151.063  0.00  0.00    -0.458 OA
BRANCH   8   9
ATOM      9  C   UNL     1     155.284 154.955 151.679  0.00  0.00     0.340 C 
ATOM     10  O   UNL     1     156.162 154.717 152.495  0.00  0.00    -0.245 OA
BRANCH   9  11
ATOM     11  C   UNL     1     154.941 156.329 151.231  0.00  0.00     0.066 A 
ATOM     12  C   UNL     1     155.186 156.713 149.912  0.00  0.00     0.064 A 
ATOM     13  C   UNL     1     154.862 158.002 149.490  0.00  0.00     0.163 A 
ATOM     14  C   UNL     1     154.293 158.907 150.386  0.00  0.00     0.201 A 
ATOM     15  C   UNL     1     154.048 158.523 151.704  0.00  0.00     0.163 A 
ATOM     16  C   UNL     1     154.372 157.234 152.126  0.00  0.00     0.064 A 
BRANCH  13  17
ATOM     17  O   UNL     1     155.105 158.366 148.200  0.00  0.00    -0.503 OA
ATOM     18  H   UNL     1     155.483 157.608 147.721  0.00  0.00     0.292 HD
ENDBRANCH  13  17
BRANCH  14  19
ATOM     19  O   UNL     1     153.977 160.169 149.975  0.00  0.00    -0.501 OA
ATOM     20  H   UNL     1     154.254 160.795 150.667  0.00  0.00     0.292 HD
ENDBRANCH  14  19
BRANCH  15  21
ATOM     21  O   UNL     1     153.492 159.397 152.590  0.00  0.00    -0.503 OA
ATOM     22  H   UNL     1     154.122 159.561 153.312  0.00  0.00     0.292 HD
ENDBRANCH  15  21
ENDBRANCH   9  11
ENDBRANCH   8   9
ENDBRANCH   7   8
ENDBRANCH   6   7
BRANCH   5  23
ATOM     23  O   UNL     1     153.409 151.540 149.577  0.00  0.00    -0.385 OA
ATOM     24  H   UNL     1     152.815 150.827 149.288  0.00  0.00     0.210 HD
ENDBRANCH   5  23
BRANCH   4  25
ATOM     25  O   UNL     1     151.840 152.501 147.349  0.00  0.00    -0.452 OA
BRANCH  25  26
ATOM     26  C   UNL     1     151.289 151.490 146.627  0.00  0.00     0.340 C 
ATOM     27  O   UNL     1     150.128 151.117 146.679  0.00  0.00    -0.245 OA
BRANCH  26  28
ATOM     28  C   UNL     1     152.306 150.871 145.739  0.00  0.00     0.066 A 
ATOM     29  C   UNL     1     152.898 149.659 146.095  0.00  0.00     0.064 A 
ATOM     30  C   UNL     1     153.850 149.076 145.259  0.00  0.00     0.163 A 
ATOM     31  C   UNL     1     154.212 149.706 144.069  0.00  0.00     0.201 A 
ATOM     32  C   UNL     1     153.621 150.918 143.713  0.00  0.00     0.163 A 
ATOM     33  C   UNL     1     152.667 151.501 144.549  0.00  0.00     0.064 A 
BRANCH  30  34
ATOM     34  O   UNL     1     154.421 147.892 145.618  0.00  0.00    -0.503 OA
ATOM     35  H   UNL     1     155.151 147.692 145.006  0.00  0.00     0.292 HD
ENDBRANCH  30  34
BRANCH  31  36
ATOM     36  O   UNL     1     155.145 149.138 143.252  0.00  0.00    -0.501 OA
ATOM     37  H   UNL     1     155.149 149.622 142.408  0.00  0.00     0.292 HD
ENDBRANCH  31  36
BRANCH  32  38
ATOM     38  O   UNL     1     153.965 151.544 142.552  0.00  0.00    -0.503 OA
ATOM     39  H   UNL     1     154.463 150.923 141.993  0.00  0.00     0.292 HD
ENDBRANCH  32  38
ENDBRANCH  26  28
ENDBRANCH  25  26
ENDBRANCH   4  25
BRANCH   2  40
ATOM     40  O   UNL     1     149.462 155.302 150.417  0.00  0.00    -0.429 OA
BRANCH  40  41
ATOM     41  C   UNL     1     148.127 155.135 150.605  0.00  0.00     0.342 C 
ATOM     42  O   UNL     1     147.570 154.105 150.952  0.00  0.00    -0.245 OA
BRANCH  41  43
ATOM     43  C   UNL     1     147.400 156.401 150.329  0.00  0.00     0.066 A 
ATOM     44  C   UNL     1     146.127 156.363 149.759  0.00  0.00     0.064 A 
ATOM     45  C   UNL     1     145.445 157.552 149.497  0.00  0.00     0.163 A 
ATOM     46  C   UNL     1     146.036 158.778 149.806  0.00  0.00     0.201 A 
ATOM     47  C   UNL     1     147.309 158.814 150.376  0.00  0.00     0.163 A 
ATOM     48  C   UNL     1     147.991 157.626 150.637  0.00  0.00     0.064 A 
BRANCH  45  49
ATOM     49  O   UNL     1     144.203 157.502 148.940  0.00  0.00    -0.503 OA
ATOM     50  H   UNL     1     144.193 158.046 148.135  0.00  0.00     0.292 HD
ENDBRANCH  45  49
BRANCH  46  51
ATOM     51  O   UNL     1     145.369 159.938 149.551  0.00  0.00    -0.501 OA
ATOM     52  H   UNL     1     144.782 159.794 148.789  0.00  0.00     0.292 HD
ENDBRANCH  46  51
BRANCH  47  53
ATOM     53  O   UNL     1     147.897 160.004 150.681  0.00  0.00    -0.503 OA
ATOM     54  H   UNL     1     148.044 160.051 151.641  0.00  0.00     0.292 HD
ENDBRANCH  47  53
ENDBRANCH  41  43
ENDBRANCH  40  41
ENDBRANCH   2  40
BRANCH   3  55
ATOM     55  O   UNL     1     149.216 153.468 148.275  0.00  0.00    -0.382 OA
ATOM     56  H   UNL     1     149.382 152.899 147.504  0.00  0.00     0.210 HD
ENDBRANCH   3  55
TORSDOF 21
ENDMDL
MODEL 8
REMARK VINA RESULT:      -9.6      1.581      2.509
REMARK  21 active torsions:
REMARK  status: ('A' for Active; 'I' for Inactive)
REMARK    1  A    between atoms: C_2  and  O_11 
REMARK    2  A    between atoms: C_3  and  O_7 
REMARK    3  A    between atoms: C_4  and  O_42 
REMARK    4  A    between atoms: C_5  and  O_9 
REMARK    5  A    between atoms: C_6  and  C_26 
REMARK    6  A    between atoms: O_11  and  C_12 
REMARK    7  A    between atoms: C_12  and  C_14 
REMARK    8  A    between atoms: C_16  and  O_20 
REMARK    9  A    between atoms: C_17  and  O_22 
REMARK   10  A    between atoms: C_18  and  O_24 
REMARK   11  A    between atoms: C_26  and  O_27 
REMARK   12  A    between atoms: O_27  and  C_28 
REMARK   13  A    between atoms: C_28  and  C_30 
REMARK   14  A    between atoms: C_32  and  O_36 
REMARK   15  A    between atoms: C_33  and  O_38 
REMARK   16  A    between atoms: C_34  and  O_40 
REMARK   17  A    between atoms: O_42  and  C_43 
REMARK   18  A    between atoms: C_43  and  C_45 
REMARK   19  A    between atoms: C_47  and  O_51 
REMARK   20  A    between atoms: C_48  and  O_53 
REMARK   21  A    between atoms: C_49  and  O_55 
ROOT
ATOM      1  O   UNL     1     149.305 153.682 148.876  0.00  0.00    -0.330 OA
ATOM      2  C   UNL     1     150.722 153.749 149.022  0.00  0.00     0.344 C 
ATOM      3  C   UNL     1     151.397 152.636 148.221  0.00  0.00     0.226 C 
ATOM      4  C   UNL     1     150.952 152.655 146.758  0.00  0.00     0.242 C 
ATOM      5  C   UNL     1     149.430 152.743 146.643  0.00  0.00     0.190 C 
ATOM      6  C   UNL     1     148.884 153.871 147.523  0.00  0.00     0.192 C 
ENDROOT
BRANCH   6   7
ATOM      7  C   UNL     1     147.359 153.903 147.516  0.00  0.00     0.266 C 
BRANCH   7   8
ATOM      8  O   UNL     1     146.919 154.584 148.677  0.00  0.00    -0.458 OA
BRANCH   8   9
ATOM      9  C   UNL     1     146.041 155.610 148.479  0.00  0.00     0.340 C 
ATOM     10  O   UNL     1     144.971 155.531 147.895  0.00  0.00    -0.245 OA
BRANCH   9  11
ATOM     11  C   UNL     1     146.554 156.871 149.070  0.00  0.00     0.066 A 
ATOM     12  C   UNL     1     145.738 158.002 149.117  0.00  0.00     0.064 A 
ATOM     13  C   UNL     1     146.219 159.186 149.674  0.00  0.00     0.163 A 
ATOM     14  C   UNL     1     147.514 159.241 150.186  0.00  0.00     0.201 A 
ATOM     15  C   UNL     1     148.331 158.110 150.139  0.00  0.00     0.163 A 
ATOM     16  C   UNL     1     147.850 156.926 149.582  0.00  0.00     0.064 A 
BRANCH  13  17
ATOM     17  O   UNL     1     145.412 160.284 149.714  0.00  0.00    -0.503 OA
ATOM     18  H   UNL     1     145.155 160.523 148.806  0.00  0.00     0.292 HD
ENDBRANCH  13  17
BRANCH  14  19
ATOM     19  O   UNL     1     147.986 160.399 150.730  0.00  0.00    -0.501 OA
ATOM     20  H   UNL     1     147.401 161.127 150.455  0.00  0.00     0.292 HD
ENDBRANCH  14  19
BRANCH  15  21
ATOM     21  O   UNL     1     149.599 158.149 150.637  0.00  0.00    -0.503 OA
ATOM     22  H   UNL     1     150.223 157.901 149.934  0.00  0.00     0.292 HD
ENDBRANCH  15  21
ENDBRANCH   9  11
ENDBRANCH   8   9
ENDBRANCH   7   8
ENDBRANCH   6   7
BRANCH   5  23
ATOM     23  O   UNL     1     149.073 152.989 145.287  0.00  0.00    -0.385 OA
ATOM     24  H   UNL     1     148.133 152.766 145.177  0.00  0.00     0.210 HD
ENDBRANCH   5  23
BRANCH   4  25
ATOM     25  O   UNL     1     151.374 151.450 146.118  0.00  0.00    -0.452 OA
BRANCH  25  26
ATOM     26  C   UNL     1     152.310 151.594 145.144  0.00  0.00     0.340 C 
ATOM     27  O   UNL     1     153.038 152.560 144.980  0.00  0.00    -0.245 OA
BRANCH  26  28
ATOM     28  C   UNL     1     152.340 150.394 144.270  0.00  0.00     0.066 A 
ATOM     29  C   UNL     1     153.556 149.913 143.786  0.00  0.00     0.064 A 
ATOM     30  C   UNL     1     153.584 148.783 142.968  0.00  0.00     0.163 A 
ATOM     31  C   UNL     1     152.396 148.137 142.631  0.00  0.00     0.201 A 
ATOM     32  C   UNL     1     151.178 148.618 143.114  0.00  0.00     0.163 A 
ATOM     33  C   UNL     1     151.151 149.747 143.934  0.00  0.00     0.064 A 
BRANCH  30  34
ATOM     34  O   UNL     1     154.779 148.323 142.503  0.00  0.00    -0.503 OA
ATOM     35  H   UNL     1     155.293 149.070 142.150  0.00  0.00     0.292 HD
ENDBRANCH  30  34
BRANCH  31  36
ATOM     36  O   UNL     1     152.422 147.034 141.829  0.00  0.00    -0.501 OA
ATOM     37  H   UNL     1     152.094 146.274 142.342  0.00  0.00     0.292 HD
ENDBRANCH  31  36
BRANCH  32  38
ATOM     38  O   UNL     1     150.010 147.995 142.793  0.00  0.00    -0.503 OA
ATOM     39  H   UNL     1     149.645 147.574 143.591  0.00  0.00     0.292 HD
ENDBRANCH  32  38
ENDBRANCH  26  28
ENDBRANCH  25  26
ENDBRANCH   4  25
BRANCH   2  40
ATOM     40  O   UNL     1     151.073 153.579 150.395  0.00  0.00    -0.429 OA
BRANCH  40  41
ATOM     41  C   UNL     1     151.131 154.715 151.137  0.00  0.00     0.342 C 
ATOM     42  O   UNL     1     150.196 155.460 151.390  0.00  0.00    -0.245 OA
BRANCH  41  43
ATOM     43  C   UNL     1     152.515 154.954 151.619  0.00  0.00     0.066 A 
ATOM     44  C   UNL     1     152.853 156.180 152.191  0.00  0.00     0.064 A 
ATOM     45  C   UNL     1     154.155 156.404 152.642  0.00  0.00     0.163 A 
ATOM     46  C   UNL     1     155.117 155.402 152.520  0.00  0.00     0.201 A 
ATOM     47  C   UNL     1     154.778 154.175 151.948  0.00  0.00     0.163 A 
ATOM     48  C   UNL     1     153.478 153.951 151.497  0.00  0.00     0.064 A 
BRANCH  45  49
ATOM     49  O   UNL     1     154.471 157.606 153.198  0.00  0.00    -0.503 OA
ATOM     50  H   UNL     1     154.546 157.501 154.162  0.00  0.00     0.292 HD
ENDBRANCH  45  49
BRANCH  46  51
ATOM     51  O   UNL     1     156.388 155.621 152.962  0.00  0.00    -0.501 OA
ATOM     52  H   UNL     1     157.008 155.292 152.288  0.00  0.00     0.292 HD
ENDBRANCH  46  51
BRANCH  47  53
ATOM     53  O   UNL     1     155.710 153.189 151.823  0.00  0.00    -0.503 OA
ATOM     54  H   UNL     1     155.973 153.115 150.890  0.00  0.00     0.292 HD
ENDBRANCH  47  53
ENDBRANCH  41  43
ENDBRANCH  40  41
ENDBRANCH   2  40
BRANCH   3  55
ATOM     55  O   UNL     1     152.810 152.830 148.289  0.00  0.00    -0.382 OA
ATOM     56  H   UNL     1     153.232 152.188 147.694  0.00  0.00     0.210 HD
ENDBRANCH   3  55
TORSDOF 21
ENDMDL
MODEL 9
REMARK VINA RESULT:      -9.6      1.408      6.533
REMARK  21 active torsions:
REMARK  status: ('A' for Active; 'I' for Inactive)
REMARK    1  A    between atoms: C_2  and  O_11 
REMARK    2  A    between atoms: C_3  and  O_7 
REMARK    3  A    between atoms: C_4  and  O_42 
REMARK    4  A    between atoms: C_5  and  O_9 
REMARK    5  A    between atoms: C_6  and  C_26 
REMARK    6  A    between atoms: O_11  and  C_12 
REMARK    7  A    between atoms: C_12  and  C_14 
REMARK    8  A    between atoms: C_16  and  O_20 
REMARK    9  A    between atoms: C_17  and  O_22 
REMARK   10  A    between atoms: C_18  and  O_24 
REMARK   11  A    between atoms: C_26  and  O_27 
REMARK   12  A    between atoms: O_27  and  C_28 
REMARK   13  A    between atoms: C_28  and  C_30 
REMARK   14  A    between atoms: C_32  and  O_36 
REMARK   15  A    between atoms: C_33  and  O_38 
REMARK   16  A    between atoms: C_34  and  O_40 
REMARK   17  A    between atoms: O_42  and  C_43 
REMARK   18  A    between atoms: C_43  and  C_45 
REMARK   19  A    between atoms: C_47  and  O_51 
REMARK   20  A    between atoms: C_48  and  O_53 
REMARK   21  A    between atoms: C_49  and  O_55 
ROOT
ATOM      1  O   UNL     1     149.789 154.975 148.077  0.00  0.00    -0.330 OA
ATOM      2  C   UNL     1     148.547 154.321 147.824  0.00  0.00     0.344 C 
ATOM      3  C   UNL     1     148.630 153.489 146.545  0.00  0.00     0.226 C 
ATOM      4  C   UNL     1     149.811 152.518 146.589  0.00  0.00     0.242 C 
ATOM      5  C   UNL     1     151.095 153.228 147.019  0.00  0.00     0.190 C 
ATOM      6  C   UNL     1     150.860 154.054 148.287  0.00  0.00     0.192 C 
ENDROOT
BRANCH   6   7
ATOM      7  C   UNL     1     152.095 154.863 148.669  0.00  0.00     0.266 C 
BRANCH   7   8
ATOM      8  O   UNL     1     151.699 155.898 149.551  0.00  0.00    -0.458 OA
BRANCH   8   9
ATOM      9  C   UNL     1     151.707 155.594 150.881  0.00  0.00     0.340 C 
ATOM     10  O   UNL     1     150.721 155.481 151.594  0.00  0.00    -0.245 OA
BRANCH   9  11
ATOM     11  C   UNL     1     153.095 155.413 151.378  0.00  0.00     0.066 A 
ATOM     12  C   UNL     1     153.669 154.142 151.394  0.00  0.00     0.064 A 
ATOM     13  C   UNL     1     154.973 153.971 151.858  0.00  0.00     0.163 A 
ATOM     14  C   UNL     1     155.703 155.072 152.305  0.00  0.00     0.201 A 
ATOM     15  C   UNL     1     155.129 156.343 152.288  0.00  0.00     0.163 A 
ATOM     16  C   UNL     1     153.825 156.513 151.824  0.00  0.00     0.064 A 
BRANCH  13  17
ATOM     17  O   UNL     1     155.523 152.725 151.869  0.00  0.00    -0.503 OA
ATOM     18  H   UNL     1     156.101 152.639 152.647  0.00  0.00     0.292 HD
ENDBRANCH  13  17
BRANCH  14  19
ATOM     19  O   UNL     1     156.978 154.906 152.760  0.00  0.00    -0.501 OA
ATOM     20  H   UNL     1     156.937 154.559 153.668  0.00  0.00     0.292 HD
ENDBRANCH  14  19
BRANCH  15  21
ATOM     21  O   UNL     1     155.832 157.427 152.721  0.00  0.00    -0.503 OA
ATOM     22  H   UNL     1     156.185 157.905 151.952  0.00  0.00     0.292 HD
ENDBRANCH  15  21
ENDBRANCH   9  11
ENDBRANCH   8   9
ENDBRANCH   7   8
ENDBRANCH   6   7
BRANCH   5  23
ATOM     23  O   UNL     1     152.108 152.259 147.269  0.00  0.00    -0.385 OA
ATOM     24  H   UNL     1     151.912 151.830 148.120  0.00  0.00     0.210 HD
ENDBRANCH   5  23
BRANCH   4  25
ATOM     25  O   UNL     1     150.024 151.970 145.287  0.00  0.00    -0.452 OA
BRANCH  25  26
ATOM     26  C   UNL     1     150.120 150.616 145.224  0.00  0.00     0.340 C 
ATOM     27  O   UNL     1     149.242 149.817 145.509  0.00  0.00    -0.245 OA
BRANCH  26  28
ATOM     28  C   UNL     1     151.468 150.211 144.751  0.00  0.00     0.066 A 
ATOM     29  C   UNL     1     152.116 150.957 143.767  0.00  0.00     0.064 A 
ATOM     30  C   UNL     1     153.384 150.578 143.326  0.00  0.00     0.163 A 
ATOM     31  C   UNL     1     154.003 149.452 143.867  0.00  0.00     0.201 A 
ATOM     32  C   UNL     1     153.354 148.705 144.852  0.00  0.00     0.163 A 
ATOM     33  C   UNL     1     152.087 149.085 145.294  0.00  0.00     0.064 A 
BRANCH  30  34
ATOM     34  O   UNL     1     154.007 151.316 142.365  0.00  0.00    -0.503 OA
ATOM     35  H   UNL     1     153.387 151.984 142.025  0.00  0.00     0.292 HD
ENDBRANCH  30  34
BRANCH  31  36
ATOM     36  O   UNL     1     155.241 149.079 143.435  0.00  0.00    -0.501 OA
ATOM     37  H   UNL     1     155.393 148.155 143.699  0.00  0.00     0.292 HD
ENDBRANCH  31  36
BRANCH  32  38
ATOM     38  O   UNL     1     153.948 147.603 145.389  0.00  0.00    -0.503 OA
ATOM     39  H   UNL     1     153.456 146.810 145.112  0.00  0.00     0.292 HD
ENDBRANCH  32  38
ENDBRANCH  26  28
ENDBRANCH  25  26
ENDBRANCH   4  25
BRANCH   2  40
ATOM     40  O   UNL     1     147.517 155.294 147.649  0.00  0.00    -0.429 OA
BRANCH  40  41
ATOM     41  C   UNL     1     146.760 155.559 148.746  0.00  0.00     0.342 C 
ATOM     42  O   UNL     1     145.918 154.823 149.236  0.00  0.00    -0.245 OA
BRANCH  41  43
ATOM     43  C   UNL     1     147.091 156.898 149.296  0.00  0.00     0.066 A 
ATOM     44  C   UNL     1     148.331 157.120 149.894  0.00  0.00     0.064 A 
ATOM     45  C   UNL     1     148.640 158.378 150.413  0.00  0.00     0.163 A 
ATOM     46  C   UNL     1     147.709 159.413 150.335  0.00  0.00     0.201 A 
ATOM     47  C   UNL     1     146.468 159.190 149.737  0.00  0.00     0.163 A 
ATOM     48  C   UNL     1     146.159 157.933 149.218  0.00  0.00     0.064 A 
BRANCH  45  49
ATOM     49  O   UNL     1     149.856 158.581 150.994  0.00  0.00    -0.503 OA
ATOM     50  H   UNL     1     150.524 158.705 150.300  0.00  0.00     0.292 HD
ENDBRANCH  45  49
BRANCH  46  51
ATOM     51  O   UNL     1     148.012 160.641 150.841  0.00  0.00    -0.501 OA
ATOM     52  H   UNL     1     147.274 161.244 150.645  0.00  0.00     0.292 HD
ENDBRANCH  46  51
BRANCH  47  53
ATOM     53  O   UNL     1     145.550 160.193 149.655  0.00  0.00    -0.503 OA
ATOM     54  H   UNL     1     145.962 160.970 149.241  0.00  0.00     0.292 HD
ENDBRANCH  47  53
ENDBRANCH  41  43
ENDBRANCH  40  41
ENDBRANCH   2  40
BRANCH   3  55
ATOM     55  O   UNL     1     147.416 152.750 146.412  0.00  0.00    -0.382 OA
ATOM     56  H   UNL     1     147.077 152.887 145.511  0.00  0.00     0.210 HD
ENDBRANCH   3  55
TORSDOF 21
ENDMDL
MODEL 10
REMARK VINA RESULT:      -9.5      3.617      7.989
REMARK  21 active torsions:
REMARK  status: ('A' for Active; 'I' for Inactive)
REMARK    1  A    between atoms: C_2  and  O_11 
REMARK    2  A    between atoms: C_3  and  O_7 
REMARK    3  A    between atoms: C_4  and  O_42 
REMARK    4  A    between atoms: C_5  and  O_9 
REMARK    5  A    between atoms: C_6  and  C_26 
REMARK    6  A    between atoms: O_11  and  C_12 
REMARK    7  A    between atoms: C_12  and  C_14 
REMARK    8  A    between atoms: C_16  and  O_20 
REMARK    9  A    between atoms: C_17  and  O_22 
REMARK   10  A    between atoms: C_18  and  O_24 
REMARK   11  A    between atoms: C_26  and  O_27 
REMARK   12  A    between atoms: O_27  and  C_28 
REMARK   13  A    between atoms: C_28  and  C_30 
REMARK   14  A    between atoms: C_32  and  O_36 
REMARK   15  A    between atoms: C_33  and  O_38 
REMARK   16  A    between atoms: C_34  and  O_40 
REMARK   17  A    between atoms: O_42  and  C_43 
REMARK   18  A    between atoms: C_43  and  C_45 
REMARK   19  A    between atoms: C_47  and  O_51 
REMARK   20  A    between atoms: C_48  and  O_53 
REMARK   21  A    between atoms: C_49  and  O_55 
ROOT
ATOM      1  O   UNL     1     150.039 155.087 148.130  0.00  0.00    -0.330 OA
ATOM      2  C   UNL     1     149.606 154.621 149.407  0.00  0.00     0.344 C 
ATOM      3  C   UNL     1     150.453 153.431 149.858  0.00  0.00     0.226 C 
ATOM      4  C   UNL     1     151.945 153.765 149.825  0.00  0.00     0.242 C 
ATOM      5  C   UNL     1     152.339 154.410 148.496  0.00  0.00     0.190 C 
ATOM      6  C   UNL     1     151.388 155.559 148.148  0.00  0.00     0.192 C 
ENDROOT
BRANCH   6   7
ATOM      7  C   UNL     1     151.689 156.142 146.771  0.00  0.00     0.266 C 
BRANCH   7   8
ATOM      8  O   UNL     1     152.755 157.066 146.898  0.00  0.00    -0.458 OA
BRANCH   8   9
ATOM      9  C   UNL     1     152.424 158.312 147.345  0.00  0.00     0.340 C 
ATOM     10  O   UNL     1     151.816 159.160 146.709  0.00  0.00    -0.245 OA
BRANCH   9  11
ATOM     11  C   UNL     1     152.905 158.525 148.733  0.00  0.00     0.066 A 
ATOM     12  C   UNL     1     154.271 158.478 149.012  0.00  0.00     0.064 A 
ATOM     13  C   UNL     1     154.724 158.680 150.315  0.00  0.00     0.163 A 
ATOM     14  C   UNL     1     153.812 158.929 151.340  0.00  0.00     0.201 A 
ATOM     15  C   UNL     1     152.446 158.976 151.061  0.00  0.00     0.163 A 
ATOM     16  C   UNL     1     151.993 158.774 149.758  0.00  0.00     0.064 A 
BRANCH  13  17
ATOM     17  O   UNL     1     156.061 158.632 150.575  0.00  0.00    -0.503 OA
ATOM     18  H   UNL     1     156.263 157.810 151.054  0.00  0.00     0.292 HD
ENDBRANCH  13  17
BRANCH  14  19
ATOM     19  O   UNL     1     154.254 159.125 152.615  0.00  0.00    -0.501 OA
ATOM     20  H   UNL     1     155.214 159.279 152.586  0.00  0.00     0.292 HD
ENDBRANCH  14  19
BRANCH  15  21
ATOM     21  O   UNL     1     151.543 159.219 152.053  0.00  0.00    -0.503 OA
ATOM     22  H   UNL     1     151.989 159.685 152.780  0.00  0.00     0.292 HD
ENDBRANCH  15  21
ENDBRANCH   9  11
ENDBRANCH   8   9
ENDBRANCH   7   8
ENDBRANCH   6   7
BRANCH   5  23
ATOM     23  O   UNL     1     153.668 154.912 148.592  0.00  0.00    -0.385 OA
ATOM     24  H   UNL     1     154.281 154.163 148.497  0.00  0.00     0.210 HD
ENDBRANCH   5  23
BRANCH   4  25
ATOM     25  O   UNL     1     152.704 152.565 149.976  0.00  0.00    -0.452 OA
BRANCH  25  26
ATOM     26  C   UNL     1     153.218 152.341 151.213  0.00  0.00     0.340 C 
ATOM     27  O   UNL     1     153.082 151.325 151.877  0.00  0.00    -0.245 OA
BRANCH  26  28
ATOM     28  C   UNL     1     153.989 153.521 151.678  0.00  0.00     0.066 A 
ATOM     29  C   UNL     1     153.385 154.469 152.504  0.00  0.00     0.064 A 
ATOM     30  C   UNL     1     154.111 155.576 152.944  0.00  0.00     0.163 A 
ATOM     31  C   UNL     1     155.440 155.737 152.555  0.00  0.00     0.201 A 
ATOM     32  C   UNL     1     156.045 154.789 151.728  0.00  0.00     0.163 A 
ATOM     33  C   UNL     1     155.319 153.681 151.289  0.00  0.00     0.064 A 
BRANCH  30  34
ATOM     34  O   UNL     1     153.510 156.494 153.751  0.00  0.00    -0.503 OA
ATOM     35  H   UNL     1     152.551 156.483 153.586  0.00  0.00     0.292 HD
ENDBRANCH  30  34
BRANCH  31  36
ATOM     36  O   UNL     1     156.150 156.820 152.981  0.00  0.00    -0.501 OA
ATOM     37  H   UNL     1     155.860 157.597 152.472  0.00  0.00     0.292 HD
ENDBRANCH  31  36
BRANCH  32  38
ATOM     38  O   UNL     1     157.343 154.934 151.341  0.00  0.00    -0.503 OA
ATOM     39  H   UNL     1     157.395 154.866 150.371  0.00  0.00     0.292 HD
ENDBRANCH  32  38
ENDBRANCH  26  28
ENDBRANCH  25  26
ENDBRANCH   4  25
BRANCH   2  40
ATOM     40  O   UNL     1     148.248 154.189 149.327  0.00  0.00    -0.429 OA
BRANCH  40  41
ATOM     41  C   UNL     1     147.456 154.529 150.377  0.00  0.00     0.342 C 
ATOM     42  O   UNL     1     147.276 153.868 151.389  0.00  0.00    -0.245 OA
BRANCH  41  43
ATOM     43  C   UNL     1     146.812 155.846 150.140  0.00  0.00     0.066 A 
ATOM     44  C   UNL     1     147.481 157.021 150.479  0.00  0.00     0.064 A 
ATOM     45  C   UNL     1     146.874 158.258 150.258  0.00  0.00     0.163 A 
ATOM     46  C   UNL     1     145.599 158.319 149.697  0.00  0.00     0.201 A 
ATOM     47  C   UNL     1     144.930 157.143 149.357  0.00  0.00     0.163 A 
ATOM     48  C   UNL     1     145.536 155.906 149.579  0.00  0.00     0.064 A 
BRANCH  45  49
ATOM     49  O   UNL     1     147.539 159.398 150.595  0.00  0.00    -0.503 OA
ATOM     50  H   UNL     1     147.061 160.164 150.236  0.00  0.00     0.292 HD
ENDBRANCH  45  49
BRANCH  46  51
ATOM     51  O   UNL     1     145.007 159.527 149.481  0.00  0.00    -0.501 OA
ATOM     52  H   UNL     1     144.119 159.373 149.115  0.00  0.00     0.292 HD
ENDBRANCH  46  51
BRANCH  47  53
ATOM     53  O   UNL     1     143.684 157.189 148.810  0.00  0.00    -0.503 OA
ATOM     54  H   UNL     1     143.387 158.114 148.770  0.00  0.00     0.292 HD
ENDBRANCH  47  53
ENDBRANCH  41  43
ENDBRANCH  40  41
ENDBRANCH   2  40
BRANCH   3  55
ATOM     55  O   UNL     1     150.073 153.091 151.192  0.00  0.00    -0.382 OA
ATOM     56  H   UNL     1     149.112 153.220 151.274  0.00  0.00     0.210 HD
ENDBRANCH   3  55
TORSDOF 21
ENDMDL
