MODEL 1
REMARK VINA RESULT:     -10.7      0.000      0.000
REMARK  5 active torsions:
REMARK  status: ('A' for Active; 'I' for Inactive)
REMARK    1  A    between atoms: O_2  and  C_13 
REMARK    2  A    between atoms: O_4  and  C_16 
REMARK    3  A    between atoms: O_5  and  C_19 
REMARK    4  A    between atoms: O_6  and  C_21 
REMARK    5  A    between atoms: C_9  and  C_10 
ROOT
HETATM    1  O   UNK     0      10.478  21.610  24.611  0.00  0.00    -0.309 OA
HETATM    2  O   UNK     0       9.861  17.966  22.898  0.00  0.00    -0.287 OA
HETATM    3  C   UNK     0       9.295  20.259  22.975  0.00  0.00     0.081 A 
HETATM    4  C   UNK     0       9.557  21.475  23.604  0.00  0.00     0.095 A 
HETATM    5  C   UNK     0      11.172  20.484  25.027  0.00  0.00     0.090 A 
HETATM    6  C   UNK     0      10.037  19.064  23.407  0.00  0.00     0.190 A 
HETATM    7  C   UNK     0      11.015  19.261  24.497  0.00  0.00     0.094 A 
HETATM    8  C   UNK     0       8.346  20.181  21.954  0.00  0.00     0.085 A 
HETATM    9  C   UNK     0       8.869  22.623  23.213  0.00  0.00     0.075 A 
HETATM   10  C   UNK     0       7.920  22.550  22.192  0.00  0.00     0.071 A 
HETATM   11  C   UNK     0       7.659  21.332  21.565  0.00  0.00     0.074 A 
ENDROOT
BRANCH   5  12
HETATM   12  C   UNK     0      12.140  20.742  26.111  0.00  0.00     0.001 A 
HETATM   13  C   UNK     0      11.847  21.676  27.108  0.00  0.00     0.053 A 
HETATM   14  C   UNK     0      12.762  21.920  28.131  0.00  0.00     0.099 A 
HETATM   15  C   UNK     0      13.974  21.230  28.163  0.00  0.00     0.098 A 
HETATM   16  C   UNK     0      14.272  20.298  27.169  0.00  0.00     0.040 A 
HETATM   17  C   UNK     0      13.356  20.054  26.144  0.00  0.00     0.017 A 
BRANCH  14  18
HETATM   18  O   UNK     0      12.461  22.834  29.097  0.00  0.00    -0.358 OA
HETATM   19  H   UNK     0      12.007  23.584  28.676  0.00  0.00     0.217 HD
ENDBRANCH  14  18
BRANCH  15  20
HETATM   20  O   UNK     0      14.875  21.459  29.158  0.00  0.00    -0.358 OA
HETATM   21  H   UNK     0      15.598  20.813  29.085  0.00  0.00     0.217 HD
ENDBRANCH  15  20
ENDBRANCH   5  12
BRANCH   8  22
HETATM   22  O   UNK     0       8.056  19.017  21.310  0.00  0.00    -0.360 OA
HETATM   23  H   UNK     0       8.704  18.845  20.608  0.00  0.00     0.217 HD
ENDBRANCH   8  22
BRANCH  10  24
HETATM   24  O   UNK     0       7.247  23.670  21.808  0.00  0.00    -0.361 OA
HETATM   25  H   UNK     0       7.701  24.065  21.044  0.00  0.00     0.217 HD
ENDBRANCH  10  24
TORSDOF 5
ENDMDL
MODEL 2
REMARK VINA RESULT:     -10.6      1.072      2.656
REMARK  5 active torsions:
REMARK  status: ('A' for Active; 'I' for Inactive)
REMARK    1  A    between atoms: O_2  and  C_13 
REMARK    2  A    between atoms: O_4  and  C_16 
REMARK    3  A    between atoms: O_5  and  C_19 
REMARK    4  A    between atoms: O_6  and  C_21 
REMARK    5  A    between atoms: C_9  and  C_10 
ROOT
HETATM    1  O   UNK     0      10.445  20.489  24.374  0.00  0.00    -0.309 OA
HETATM    2  O   UNK     0       8.705  24.070  23.508  0.00  0.00    -0.287 OA
HETATM    3  C   UNK     0       8.833  21.752  23.066  0.00  0.00     0.081 A 
HETATM    4  C   UNK     0       9.469  20.561  23.412  0.00  0.00     0.095 A 
HETATM    5  C   UNK     0      10.820  21.656  25.023  0.00  0.00     0.090 A 
HETATM    6  C   UNK     0       9.222  22.990  23.759  0.00  0.00     0.190 A 
HETATM    7  C   UNK     0      10.279  22.861  24.783  0.00  0.00     0.094 A 
HETATM    8  C   UNK     0       7.846  21.765  22.080  0.00  0.00     0.085 A 
HETATM    9  C   UNK     0       9.118  19.373  22.772  0.00  0.00     0.075 A 
HETATM   10  C   UNK     0       8.131  19.381  21.786  0.00  0.00     0.071 A 
HETATM   11  C   UNK     0       7.497  20.574  21.440  0.00  0.00     0.074 A 
ENDROOT
BRANCH   5  12
HETATM   12  C   UNK     0      11.872  21.465  26.040  0.00  0.00     0.001 A 
HETATM   13  C   UNK     0      11.784  22.117  27.273  0.00  0.00     0.053 A 
HETATM   14  C   UNK     0      12.778  21.936  28.234  0.00  0.00     0.099 A 
HETATM   15  C   UNK     0      13.865  21.103  27.966  0.00  0.00     0.098 A 
HETATM   16  C   UNK     0      13.957  20.451  26.737  0.00  0.00     0.040 A 
HETATM   17  C   UNK     0      12.962  20.632  25.775  0.00  0.00     0.017 A 
BRANCH  14  18
HETATM   18  O   UNK     0      12.678  22.579  29.431  0.00  0.00    -0.358 OA
HETATM   19  H   UNK     0      13.047  23.473  29.329  0.00  0.00     0.217 HD
ENDBRANCH  14  18
BRANCH  15  20
HETATM   20  O   UNK     0      14.841  20.918  28.897  0.00  0.00    -0.358 OA
HETATM   21  H   UNK     0      14.975  21.748  29.385  0.00  0.00     0.217 HD
ENDBRANCH  15  20
ENDBRANCH   5  12
BRANCH   8  22
HETATM   22  O   UNK     0       7.196  22.903  21.706  0.00  0.00    -0.360 OA
HETATM   23  H   UNK     0       7.823  23.551  21.349  0.00  0.00     0.217 HD
ENDBRANCH   8  22
BRANCH  10  24
HETATM   24  O   UNK     0       7.786  18.222  21.159  0.00  0.00    -0.361 OA
HETATM   25  H   UNK     0       7.619  18.409  20.220  0.00  0.00     0.217 HD
ENDBRANCH  10  24
TORSDOF 5
ENDMDL
MODEL 3
REMARK VINA RESULT:     -10.4      2.779      4.269
REMARK  5 active torsions:
REMARK  status: ('A' for Active; 'I' for Inactive)
REMARK    1  A    between atoms: O_2  and  C_13 
REMARK    2  A    between atoms: O_4  and  C_16 
REMARK    3  A    between atoms: O_5  and  C_19 
REMARK    4  A    between atoms: O_6  and  C_21 
REMARK    5  A    between atoms: C_9  and  C_10 
ROOT
HETATM    1  O   UNK     0      11.304  19.732  25.193  0.00  0.00    -0.309 OA
HETATM    2  O   UNK     0      10.729  22.693  27.932  0.00  0.00    -0.287 OA
HETATM    3  C   UNK     0      10.333  21.890  25.745  0.00  0.00     0.081 A 
HETATM    4  C   UNK     0      10.568  20.841  24.858  0.00  0.00     0.095 A 
HETATM    5  C   UNK     0      11.844  19.659  26.468  0.00  0.00     0.090 A 
HETATM    6  C   UNK     0      10.897  21.811  27.102  0.00  0.00     0.190 A 
HETATM    7  C   UNK     0      11.684  20.600  27.412  0.00  0.00     0.094 A 
HETATM    8  C   UNK     0       9.575  22.994  25.349  0.00  0.00     0.085 A 
HETATM    9  C   UNK     0      10.043  20.889  23.567  0.00  0.00     0.075 A 
HETATM   10  C   UNK     0       9.285  21.990  23.168  0.00  0.00     0.071 A 
HETATM   11  C   UNK     0       9.052  23.040  24.056  0.00  0.00     0.074 A 
ENDROOT
BRANCH   5  12
HETATM   12  C   UNK     0      12.612  18.424  26.724  0.00  0.00     0.001 A 
HETATM   13  C   UNK     0      13.438  18.331  27.847  0.00  0.00     0.053 A 
HETATM   14  C   UNK     0      14.163  17.165  28.089  0.00  0.00     0.099 A 
HETATM   15  C   UNK     0      14.065  16.087  27.208  0.00  0.00     0.098 A 
HETATM   16  C   UNK     0      13.243  16.176  26.085  0.00  0.00     0.040 A 
HETATM   17  C   UNK     0      12.517  17.343  25.844  0.00  0.00     0.017 A 
BRANCH  14  18
HETATM   18  O   UNK     0      14.965  17.089  29.188  0.00  0.00    -0.358 OA
HETATM   19  H   UNK     0      15.757  17.628  29.026  0.00  0.00     0.217 HD
ENDBRANCH  14  18
BRANCH  15  20
HETATM   20  O   UNK     0      14.768  14.942  27.434  0.00  0.00    -0.358 OA
HETATM   21  H   UNK     0      14.945  14.863  28.387  0.00  0.00     0.217 HD
ENDBRANCH  15  20
ENDBRANCH   5  12
BRANCH   8  22
HETATM   22  O   UNK     0       9.318  24.043  26.179  0.00  0.00    -0.360 OA
HETATM   23  H   UNK     0       9.282  23.746  27.101  0.00  0.00     0.217 HD
ENDBRANCH   8  22
BRANCH  10  24
HETATM   24  O   UNK     0       8.771  22.041  21.907  0.00  0.00    -0.361 OA
HETATM   25  H   UNK     0       8.653  21.134  21.578  0.00  0.00     0.217 HD
ENDBRANCH  10  24
TORSDOF 5
ENDMDL
MODEL 4
REMARK VINA RESULT:      -9.8     21.719     22.417
REMARK  5 active torsions:
REMARK  status: ('A' for Active; 'I' for Inactive)
REMARK    1  A    between atoms: O_2  and  C_13 
REMARK    2  A    between atoms: O_4  and  C_16 
REMARK    3  A    between atoms: O_5  and  C_19 
REMARK    4  A    between atoms: O_6  and  C_21 
REMARK    5  A    between atoms: C_9  and  C_10 
ROOT
HETATM    1  O   UNK     0      23.364  34.036  13.643  0.00  0.00    -0.309 OA
HETATM    2  O   UNK     0      23.295  34.553   9.603  0.00  0.00    -0.287 OA
HETATM    3  C   UNK     0      23.095  33.070  11.430  0.00  0.00     0.081 A 
HETATM    4  C   UNK     0      23.131  32.964  12.820  0.00  0.00     0.095 A 
HETATM    5  C   UNK     0      23.581  35.278  13.065  0.00  0.00     0.090 A 
HETATM    6  C   UNK     0      23.316  34.387  10.814  0.00  0.00     0.190 A 
HETATM    7  C   UNK     0      23.565  35.509  11.743  0.00  0.00     0.094 A 
HETATM    8  C   UNK     0      22.853  31.943  10.642  0.00  0.00     0.085 A 
HETATM    9  C   UNK     0      22.924  31.727  13.430  0.00  0.00     0.075 A 
HETATM   10  C   UNK     0      22.682  30.599  12.646  0.00  0.00     0.071 A 
HETATM   11  C   UNK     0      22.647  30.707  11.256  0.00  0.00     0.074 A 
ENDROOT
BRANCH   5  12
HETATM   12  C   UNK     0      23.815  36.361  14.040  0.00  0.00     0.001 A 
HETATM   13  C   UNK     0      22.953  37.460  14.090  0.00  0.00     0.053 A 
HETATM   14  C   UNK     0      23.175  38.483  15.011  0.00  0.00     0.099 A 
HETATM   15  C   UNK     0      24.260  38.412  15.886  0.00  0.00     0.098 A 
HETATM   16  C   UNK     0      25.123  37.318  15.838  0.00  0.00     0.040 A 
HETATM   17  C   UNK     0      24.901  36.294  14.916  0.00  0.00     0.017 A 
BRANCH  14  18
HETATM   18  O   UNK     0      22.326  39.548  15.048  0.00  0.00    -0.358 OA
HETATM   19  H   UNK     0      21.447  39.230  15.317  0.00  0.00     0.217 HD
ENDBRANCH  14  18
BRANCH  15  20
HETATM   20  O   UNK     0      24.486  39.405  16.790  0.00  0.00    -0.358 OA
HETATM   21  H   UNK     0      24.059  40.221  16.478  0.00  0.00     0.217 HD
ENDBRANCH  15  20
ENDBRANCH   5  12
BRANCH   8  22
HETATM   22  O   UNK     0      22.808  31.995   9.282  0.00  0.00    -0.360 OA
HETATM   23  H   UNK     0      22.961  31.116   8.903  0.00  0.00     0.217 HD
ENDBRANCH   8  22
BRANCH  10  24
HETATM   24  O   UNK     0      22.479  29.389  13.239  0.00  0.00    -0.361 OA
HETATM   25  H   UNK     0      22.668  29.468  14.189  0.00  0.00     0.217 HD
ENDBRANCH  10  24
TORSDOF 5
ENDMDL
MODEL 5
REMARK VINA RESULT:      -9.8     18.867     19.728
REMARK  5 active torsions:
REMARK  status: ('A' for Active; 'I' for Inactive)
REMARK    1  A    between atoms: O_2  and  C_13 
REMARK    2  A    between atoms: O_4  and  C_16 
REMARK    3  A    between atoms: O_5  and  C_19 
REMARK    4  A    between atoms: O_6  and  C_21 
REMARK    5  A    between atoms: C_9  and  C_10 
ROOT
HETATM    1  O   UNK     0      22.025  29.510  12.478  0.00  0.00    -0.309 OA
HETATM    2  O   UNK     0      22.580  30.796   8.653  0.00  0.00    -0.287 OA
HETATM    3  C   UNK     0      22.585  31.319  10.957  0.00  0.00     0.081 A 
HETATM    4  C   UNK     0      22.380  30.813  12.239  0.00  0.00     0.095 A 
HETATM    5  C   UNK     0      21.854  28.662  11.394  0.00  0.00     0.090 A 
HETATM    6  C   UNK     0      22.414  30.420   9.804  0.00  0.00     0.190 A 
HETATM    7  C   UNK     0      22.028  29.028  10.114  0.00  0.00     0.094 A 
HETATM    8  C   UNK     0      22.946  32.655  10.774  0.00  0.00     0.085 A 
HETATM    9  C   UNK     0      22.537  31.643  13.349  0.00  0.00     0.075 A 
HETATM   10  C   UNK     0      22.898  32.979  13.170  0.00  0.00     0.071 A 
HETATM   11  C   UNK     0      23.102  33.483  11.886  0.00  0.00     0.074 A 
ENDROOT
BRANCH   5  12
HETATM   12  C   UNK     0      21.478  27.284  11.763  0.00  0.00     0.001 A 
HETATM   13  C   UNK     0      20.558  27.057  12.790  0.00  0.00     0.053 A 
HETATM   14  C   UNK     0      20.203  25.755  13.139  0.00  0.00     0.099 A 
HETATM   15  C   UNK     0      20.766  24.673  12.462  0.00  0.00     0.098 A 
HETATM   16  C   UNK     0      21.686  24.894  11.437  0.00  0.00     0.040 A 
HETATM   17  C   UNK     0      22.041  26.198  11.088  0.00  0.00     0.017 A 
BRANCH  14  18
HETATM   18  O   UNK     0      19.305  25.550  14.143  0.00  0.00    -0.358 OA
HETATM   19  H   UNK     0      19.795  25.463  14.978  0.00  0.00     0.217 HD
ENDBRANCH  14  18
BRANCH  15  20
HETATM   20  O   UNK     0      20.427  23.396  12.792  0.00  0.00    -0.358 OA
HETATM   21  H   UNK     0      21.001  23.093  13.516  0.00  0.00     0.217 HD
ENDBRANCH  15  20
ENDBRANCH   5  12
BRANCH   8  22
HETATM   22  O   UNK     0      23.158  33.196   9.542  0.00  0.00    -0.360 OA
HETATM   23  H   UNK     0      23.256  32.498   8.876  0.00  0.00     0.217 HD
ENDBRANCH   8  22
BRANCH  10  24
HETATM   24  O   UNK     0      23.052  33.792  14.252  0.00  0.00    -0.361 OA
HETATM   25  H   UNK     0      23.921  33.621  14.654  0.00  0.00     0.217 HD
ENDBRANCH  10  24
TORSDOF 5
ENDMDL
MODEL 6
REMARK VINA RESULT:      -9.7     15.031     17.087
REMARK  5 active torsions:
REMARK  status: ('A' for Active; 'I' for Inactive)
REMARK    1  A    between atoms: O_2  and  C_13 
REMARK    2  A    between atoms: O_4  and  C_16 
REMARK    3  A    between atoms: O_5  and  C_19 
REMARK    4  A    between atoms: O_6  and  C_21 
REMARK    5  A    between atoms: C_9  and  C_10 
ROOT
HETATM    1  O   UNK     0      17.171  35.699  26.848  0.00  0.00    -0.309 OA
HETATM    2  O   UNK     0      19.623  38.570  25.318  0.00  0.00    -0.287 OA
HETATM    3  C   UNK     0      17.473  37.993  26.108  0.00  0.00     0.081 A 
HETATM    4  C   UNK     0      16.690  36.964  26.630  0.00  0.00     0.095 A 
HETATM    5  C   UNK     0      18.493  35.431  26.528  0.00  0.00     0.090 A 
HETATM    6  C   UNK     0      18.878  37.715  25.776  0.00  0.00     0.190 A 
HETATM    7  C   UNK     0      19.348  36.337  26.027  0.00  0.00     0.094 A 
HETATM    8  C   UNK     0      16.928  39.263  25.908  0.00  0.00     0.085 A 
HETATM    9  C   UNK     0      15.354  37.201  26.955  0.00  0.00     0.075 A 
HETATM   10  C   UNK     0      14.806  38.469  26.756  0.00  0.00     0.071 A 
HETATM   11  C   UNK     0      15.591  39.497  26.234  0.00  0.00     0.074 A 
ENDROOT
BRANCH   5  12
HETATM   12  C   UNK     0      18.909  34.042  26.807  0.00  0.00     0.001 A 
HETATM   13  C   UNK     0      18.179  33.257  27.702  0.00  0.00     0.053 A 
HETATM   14  C   UNK     0      18.572  31.945  27.966  0.00  0.00     0.099 A 
HETATM   15  C   UNK     0      19.697  31.413  27.335  0.00  0.00     0.098 A 
HETATM   16  C   UNK     0      20.430  32.195  26.442  0.00  0.00     0.040 A 
HETATM   17  C   UNK     0      20.036  33.507  26.178  0.00  0.00     0.017 A 
BRANCH  14  18
HETATM   18  O   UNK     0      17.850  31.191  28.842  0.00  0.00    -0.358 OA
HETATM   19  H   UNK     0      18.389  31.046  29.637  0.00  0.00     0.217 HD
ENDBRANCH  14  18
BRANCH  15  20
HETATM   20  O   UNK     0      20.091  30.134  27.584  0.00  0.00    -0.358 OA
HETATM   21  H   UNK     0      19.915  29.924  28.516  0.00  0.00     0.217 HD
ENDBRANCH  15  20
ENDBRANCH   5  12
BRANCH   8  22
HETATM   22  O   UNK     0      17.652  40.300  25.402  0.00  0.00    -0.360 OA
HETATM   23  H   UNK     0      17.322  40.549  24.524  0.00  0.00     0.217 HD
ENDBRANCH   8  22
BRANCH  10  24
HETATM   24  O   UNK     0      13.503  38.704  27.073  0.00  0.00    -0.361 OA
HETATM   25  H   UNK     0      13.411  39.624  27.373  0.00  0.00     0.217 HD
ENDBRANCH  10  24
TORSDOF 5
ENDMDL
MODEL 7
REMARK VINA RESULT:      -9.7     14.662     16.717
REMARK  5 active torsions:
REMARK  status: ('A' for Active; 'I' for Inactive)
REMARK    1  A    between atoms: O_2  and  C_13 
REMARK    2  A    between atoms: O_4  and  C_16 
REMARK    3  A    between atoms: O_5  and  C_19 
REMARK    4  A    between atoms: O_6  and  C_21 
REMARK    5  A    between atoms: C_9  and  C_10 
ROOT
HETATM    1  O   UNK     0      27.243  22.617  24.726  0.00  0.00    -0.309 OA
HETATM    2  O   UNK     0      25.057  20.785  21.817  0.00  0.00    -0.287 OA
HETATM    3  C   UNK     0      27.065  20.859  23.059  0.00  0.00     0.081 A 
HETATM    4  C   UNK     0      27.758  21.531  24.064  0.00  0.00     0.095 A 
HETATM    5  C   UNK     0      25.981  23.068  24.372  0.00  0.00     0.090 A 
HETATM    6  C   UNK     0      25.722  21.329  22.687  0.00  0.00     0.190 A 
HETATM    7  C   UNK     0      25.213  22.502  23.427  0.00  0.00     0.094 A 
HETATM    8  C   UNK     0      27.640  19.759  22.419  0.00  0.00     0.085 A 
HETATM    9  C   UNK     0      29.033  21.105  24.437  0.00  0.00     0.075 A 
HETATM   10  C   UNK     0      29.610  20.006  23.800  0.00  0.00     0.071 A 
HETATM   11  C   UNK     0      28.915  19.335  22.794  0.00  0.00     0.074 A 
ENDROOT
BRANCH   5  12
HETATM   12  C   UNK     0      25.521  24.236  25.149  0.00  0.00     0.001 A 
HETATM   13  C   UNK     0      26.209  24.629  26.300  0.00  0.00     0.053 A 
HETATM   14  C   UNK     0      25.775  25.732  27.034  0.00  0.00     0.099 A 
HETATM   15  C   UNK     0      24.651  26.447  26.620  0.00  0.00     0.098 A 
HETATM   16  C   UNK     0      23.961  26.058  25.472  0.00  0.00     0.040 A 
HETATM   17  C   UNK     0      24.395  24.954  24.738  0.00  0.00     0.017 A 
BRANCH  14  18
HETATM   18  O   UNK     0      26.456  26.103  28.155  0.00  0.00    -0.358 OA
HETATM   19  H   UNK     0      26.140  26.981  28.428  0.00  0.00     0.217 HD
ENDBRANCH  14  18
BRANCH  15  20
HETATM   20  O   UNK     0      24.218  27.527  27.328  0.00  0.00    -0.358 OA
HETATM   21  H   UNK     0      23.246  27.516  27.360  0.00  0.00     0.217 HD
ENDBRANCH  15  20
ENDBRANCH   5  12
BRANCH   8  22
HETATM   22  O   UNK     0      27.003  19.069  21.432  0.00  0.00    -0.360 OA
HETATM   23  H   UNK     0      27.480  18.250  21.228  0.00  0.00     0.217 HD
ENDBRANCH   8  22
BRANCH  10  24
HETATM   24  O   UNK     0      30.855  19.587  24.162  0.00  0.00    -0.361 OA
HETATM   25  H   UNK     0      31.455  20.352  24.172  0.00  0.00     0.217 HD
ENDBRANCH  10  24
TORSDOF 5
ENDMDL
MODEL 8
REMARK VINA RESULT:      -9.6      5.541      7.327
REMARK  5 active torsions:
REMARK  status: ('A' for Active; 'I' for Inactive)
REMARK    1  A    between atoms: O_2  and  C_13 
REMARK    2  A    between atoms: O_4  and  C_16 
REMARK    3  A    between atoms: O_5  and  C_19 
REMARK    4  A    between atoms: O_6  and  C_21 
REMARK    5  A    between atoms: C_9  and  C_10 
ROOT
HETATM    1  O   UNK     0      11.914  14.873  24.739  0.00  0.00    -0.309 OA
HETATM    2  O   UNK     0      12.536  11.206  26.402  0.00  0.00    -0.287 OA
HETATM    3  C   UNK     0      11.668  12.460  24.598  0.00  0.00     0.081 A 
HETATM    4  C   UNK     0      11.489  13.744  24.086  0.00  0.00     0.095 A 
HETATM    5  C   UNK     0      12.543  14.728  25.967  0.00  0.00     0.090 A 
HETATM    6  C   UNK     0      12.343  12.302  25.896  0.00  0.00     0.190 A 
HETATM    7  C   UNK     0      12.780  13.548  26.560  0.00  0.00     0.094 A 
HETATM    8  C   UNK     0      11.214  11.347  23.888  0.00  0.00     0.085 A 
HETATM    9  C   UNK     0      10.854  13.922  22.857  0.00  0.00     0.075 A 
HETATM   10  C   UNK     0      10.399  12.812  22.145  0.00  0.00     0.071 A 
HETATM   11  C   UNK     0      10.578  11.528  22.659  0.00  0.00     0.074 A 
ENDROOT
BRANCH   5  12
HETATM   12  C   UNK     0      12.965  16.003  26.579  0.00  0.00     0.001 A 
HETATM   13  C   UNK     0      13.870  16.006  27.643  0.00  0.00     0.053 A 
HETATM   14  C   UNK     0      14.269  17.211  28.221  0.00  0.00     0.099 A 
HETATM   15  C   UNK     0      13.763  18.418  27.738  0.00  0.00     0.098 A 
HETATM   16  C   UNK     0      12.858  18.420  26.677  0.00  0.00     0.040 A 
HETATM   17  C   UNK     0      12.460  17.214  26.098  0.00  0.00     0.017 A 
BRANCH  14  18
HETATM   18  O   UNK     0      15.152  17.197  29.259  0.00  0.00    -0.358 OA
HETATM   19  H   UNK     0      16.053  17.180  28.893  0.00  0.00     0.217 HD
ENDBRANCH  14  18
BRANCH  15  20
HETATM   20  O   UNK     0      14.145  19.601  28.294  0.00  0.00    -0.358 OA
HETATM   21  H   UNK     0      14.682  20.094  27.651  0.00  0.00     0.217 HD
ENDBRANCH  15  20
ENDBRANCH   5  12
BRANCH   8  22
HETATM   22  O   UNK     0      11.365  10.073  24.346  0.00  0.00    -0.360 OA
HETATM   23  H   UNK     0      11.534  10.073  25.301  0.00  0.00     0.217 HD
ENDBRANCH   8  22
BRANCH  10  24
HETATM   24  O   UNK     0       9.778  12.983  20.944  0.00  0.00    -0.361 OA
HETATM   25  H   UNK     0      10.038  13.843  20.574  0.00  0.00     0.217 HD
ENDBRANCH  10  24
TORSDOF 5
ENDMDL
MODEL 9
REMARK VINA RESULT:      -9.4      2.941      7.161
REMARK  5 active torsions:
REMARK  status: ('A' for Active; 'I' for Inactive)
REMARK    1  A    between atoms: O_2  and  C_13 
REMARK    2  A    between atoms: O_4  and  C_16 
REMARK    3  A    between atoms: O_5  and  C_19 
REMARK    4  A    between atoms: O_6  and  C_21 
REMARK    5  A    between atoms: C_9  and  C_10 
ROOT
HETATM    1  O   UNK     0      11.878  18.134  25.536  0.00  0.00    -0.309 OA
HETATM    2  O   UNK     0      14.303  19.766  28.374  0.00  0.00    -0.287 OA
HETATM    3  C   UNK     0      13.530  17.815  27.288  0.00  0.00     0.081 A 
HETATM    4  C   UNK     0      12.678  17.324  26.300  0.00  0.00     0.095 A 
HETATM    5  C   UNK     0      11.913  19.501  25.763  0.00  0.00     0.090 A 
HETATM    6  C   UNK     0      13.577  19.266  27.526  0.00  0.00     0.190 A 
HETATM    7  C   UNK     0      12.695  20.095  26.679  0.00  0.00     0.094 A 
HETATM    8  C   UNK     0      14.322  16.942  28.036  0.00  0.00     0.085 A 
HETATM    9  C   UNK     0      12.615  15.952  26.053  0.00  0.00     0.075 A 
HETATM   10  C   UNK     0      13.406  15.077  26.798  0.00  0.00     0.071 A 
HETATM   11  C   UNK     0      14.257  15.570  27.787  0.00  0.00     0.074 A 
ENDROOT
BRANCH   5  12
HETATM   12  C   UNK     0      11.020  20.280  24.883  0.00  0.00     0.001 A 
HETATM   13  C   UNK     0      10.910  21.664  25.040  0.00  0.00     0.053 A 
HETATM   14  C   UNK     0      10.065  22.399  24.209  0.00  0.00     0.099 A 
HETATM   15  C   UNK     0       9.327  21.753  23.217  0.00  0.00     0.098 A 
HETATM   16  C   UNK     0       9.433  20.371  23.057  0.00  0.00     0.040 A 
HETATM   17  C   UNK     0      10.278  19.636  23.889  0.00  0.00     0.017 A 
BRANCH  14  18
HETATM   18  O   UNK     0       9.968  23.748  24.375  0.00  0.00    -0.358 OA
HETATM   19  H   UNK     0       9.052  23.960  24.624  0.00  0.00     0.217 HD
ENDBRANCH  14  18
BRANCH  15  20
HETATM   20  O   UNK     0       8.500  22.460  22.398  0.00  0.00    -0.358 OA
HETATM   21  H   UNK     0       7.686  22.679  22.883  0.00  0.00     0.217 HD
ENDBRANCH  15  20
ENDBRANCH   5  12
BRANCH   8  22
HETATM   22  O   UNK     0      15.170  17.373  29.011  0.00  0.00    -0.360 OA
HETATM   23  H   UNK     0      16.010  16.890  28.969  0.00  0.00     0.217 HD
ENDBRANCH   8  22
BRANCH  10  24
HETATM   24  O   UNK     0      13.346  13.737  26.559  0.00  0.00    -0.361 OA
HETATM   25  H   UNK     0      13.798  13.546  25.719  0.00  0.00     0.217 HD
ENDBRANCH  10  24
TORSDOF 5
ENDMDL
