MODEL 1
REMARK VINA RESULT:    -5.350      0.000      0.000
REMARK INTER + INTRA:          -6.744
REMARK INTER:                  -6.517
REMARK INTRA:                  -0.227
REMARK UNBOUND:                -0.299
REMARK  4 active torsions:
REMARK  status: ('A' for Active; 'I' for Inactive)
REMARK    1  A    between atoms: O_1  and  C_10 
REMARK    2  A    between atoms: O_1  and  C_11 
REMARK    3  A    between atoms: N_3  and  C_7 
REMARK    4  A    between atoms: C_4  and  C_10 
ROOT
HETATM    1  O   UNK     0       3.249  43.895  22.102  0.00  0.00    -0.318 OA
ENDROOT
BRANCH   1   2
HETATM    2  C   UNK     0       4.347  44.433  22.717  0.00  0.00     0.293 C 
HETATM    3  O   UNK     0       4.629  44.255  23.909  0.00  0.00    -0.259 OA
BRANCH   2   4
HETATM    4  C   UNK     0       5.134  45.238  21.797  0.00  0.00     0.039 A 
HETATM    5  C   UNK     0       4.521  46.248  21.055  0.00  0.00     0.020 A 
HETATM    6  C   UNK     0       5.276  47.020  20.171  0.00  0.00     0.030 A 
HETATM    7  C   UNK     0       6.644  46.783  20.030  0.00  0.00     0.025 A 
HETATM    8  C   UNK     0       7.256  45.773  20.773  0.00  0.00     0.030 A 
HETATM    9  C   UNK     0       6.501  45.001  21.656  0.00  0.00     0.020 A 
BRANCH   7  10
HETATM   10  N   UNK     0       7.406  47.563  19.137  0.00  0.00    -0.399 N 
HETATM   11  H   UNK     0       6.946  48.102  18.416  0.00  0.00     0.156 HD
HETATM   12  H   UNK     0       8.415  47.582  19.216  0.00  0.00     0.156 HD
ENDBRANCH   7  10
ENDBRANCH   2   4
ENDBRANCH   1   2
BRANCH   1  13
HETATM   13  C   UNK     0       3.443  42.668  21.390  0.00  0.00     0.174 C 
HETATM   14  C   UNK     0       2.195  42.358  20.594  0.00  0.00     0.034 C 
ENDBRANCH   1  13
TORSDOF 4
ENDMDL
MODEL 2
REMARK VINA RESULT:    -5.109      1.328      2.198
REMARK INTER + INTRA:          -6.453
REMARK INTER:                  -6.180
REMARK INTRA:                  -0.274
REMARK UNBOUND:                -0.299
REMARK  4 active torsions:
REMARK  status: ('A' for Active; 'I' for Inactive)
REMARK    1  A    between atoms: O_1  and  C_10 
REMARK    2  A    between atoms: O_1  and  C_11 
REMARK    3  A    between atoms: N_3  and  C_7 
REMARK    4  A    between atoms: C_4  and  C_10 
ROOT
HETATM    1  O   UNK     0       3.474  43.944  22.461  0.00  0.00    -0.318 OA
ENDROOT
BRANCH   1   2
HETATM    2  C   UNK     0       3.835  43.689  21.166  0.00  0.00     0.293 C 
HETATM    3  O   UNK     0       3.457  42.701  20.523  0.00  0.00    -0.259 OA
BRANCH   2   4
HETATM    4  C   UNK     0       4.715  44.723  20.644  0.00  0.00     0.039 A 
HETATM    5  C   UNK     0       4.542  46.050  21.036  0.00  0.00     0.020 A 
HETATM    6  C   UNK     0       5.386  47.041  20.534  0.00  0.00     0.030 A 
HETATM    7  C   UNK     0       6.404  46.705  19.642  0.00  0.00     0.025 A 
HETATM    8  C   UNK     0       6.577  45.378  19.251  0.00  0.00     0.030 A 
HETATM    9  C   UNK     0       5.733  44.386  19.751  0.00  0.00     0.020 A 
BRANCH   7  10
HETATM   10  N   UNK     0       7.257  47.707  19.136  0.00  0.00    -0.399 N 
HETATM   11  H   UNK     0       8.244  47.520  19.020  0.00  0.00     0.156 HD
HETATM   12  H   UNK     0       6.882  48.614  18.889  0.00  0.00     0.156 HD
ENDBRANCH   7  10
ENDBRANCH   2   4
ENDBRANCH   1   2
BRANCH   1  13
HETATM   13  C   UNK     0       4.117  43.164  23.476  0.00  0.00     0.174 C 
HETATM   14  C   UNK     0       4.534  44.078  24.608  0.00  0.00     0.034 C 
ENDBRANCH   1  13
TORSDOF 4
ENDMDL
MODEL 3
REMARK VINA RESULT:    -5.041      1.991      2.975
REMARK INTER + INTRA:          -6.372
REMARK INTER:                  -6.111
REMARK INTRA:                  -0.260
REMARK UNBOUND:                -0.299
REMARK  4 active torsions:
REMARK  status: ('A' for Active; 'I' for Inactive)
REMARK    1  A    between atoms: O_1  and  C_10 
REMARK    2  A    between atoms: O_1  and  C_11 
REMARK    3  A    between atoms: N_3  and  C_7 
REMARK    4  A    between atoms: C_4  and  C_10 
ROOT
HETATM    1  O   UNK     0       3.206  41.561  22.012  0.00  0.00    -0.318 OA
ENDROOT
BRANCH   1   2
HETATM    2  C   UNK     0       2.822  42.380  20.984  0.00  0.00     0.293 C 
HETATM    3  O   UNK     0       1.854  42.156  20.246  0.00  0.00    -0.259 OA
BRANCH   2   4
HETATM    4  C   UNK     0       3.694  43.538  20.871  0.00  0.00     0.039 A 
HETATM    5  C   UNK     0       4.672  43.580  19.877  0.00  0.00     0.020 A 
HETATM    6  C   UNK     0       5.509  44.691  19.768  0.00  0.00     0.030 A 
HETATM    7  C   UNK     0       5.367  45.761  20.653  0.00  0.00     0.025 A 
HETATM    8  C   UNK     0       4.389  45.718  21.646  0.00  0.00     0.030 A 
HETATM    9  C   UNK     0       3.553  44.607  21.756  0.00  0.00     0.020 A 
BRANCH   7  10
HETATM   10  N   UNK     0       6.213  46.883  20.543  0.00  0.00    -0.399 N 
HETATM   11  H   UNK     0       7.204  46.757  20.390  0.00  0.00     0.156 HD
HETATM   12  H   UNK     0       5.828  47.816  20.618  0.00  0.00     0.156 HD
ENDBRANCH   7  10
ENDBRANCH   2   4
ENDBRANCH   1   2
BRANCH   1  13
HETATM   13  C   UNK     0       2.276  41.396  23.089  0.00  0.00     0.174 C 
HETATM   14  C   UNK     0       2.923  41.865  24.374  0.00  0.00     0.034 C 
ENDBRANCH   1  13
TORSDOF 4
ENDMDL
MODEL 4
REMARK VINA RESULT:    -5.014      3.205      4.925
REMARK INTER + INTRA:          -6.339
REMARK INTER:                  -6.155
REMARK INTRA:                  -0.185
REMARK UNBOUND:                -0.299
REMARK  4 active torsions:
REMARK  status: ('A' for Active; 'I' for Inactive)
REMARK    1  A    between atoms: O_1  and  C_10 
REMARK    2  A    between atoms: O_1  and  C_11 
REMARK    3  A    between atoms: N_3  and  C_7 
REMARK    4  A    between atoms: C_4  and  C_10 
ROOT
HETATM    1  O   UNK     0       6.964  46.244  20.614  0.00  0.00    -0.318 OA
ENDROOT
BRANCH   1   2
HETATM    2  C   UNK     0       5.640  46.532  20.427  0.00  0.00     0.293 C 
HETATM    3  O   UNK     0       5.207  47.663  20.173  0.00  0.00    -0.259 OA
BRANCH   2   4
HETATM    4  C   UNK     0       4.810  45.346  20.566  0.00  0.00     0.039 A 
HETATM    5  C   UNK     0       4.918  44.307  19.641  0.00  0.00     0.020 A 
HETATM    6  C   UNK     0       4.121  43.169  19.774  0.00  0.00     0.030 A 
HETATM    7  C   UNK     0       3.217  43.070  20.832  0.00  0.00     0.025 A 
HETATM    8  C   UNK     0       3.110  44.108  21.756  0.00  0.00     0.030 A 
HETATM    9  C   UNK     0       3.905  45.247  21.623  0.00  0.00     0.020 A 
BRANCH   7  10
HETATM   10  N   UNK     0       2.413  41.920  20.965  0.00  0.00    -0.399 N 
HETATM   11  H   UNK     0       1.605  41.936  21.574  0.00  0.00     0.156 HD
HETATM   12  H   UNK     0       2.644  41.078  20.454  0.00  0.00     0.156 HD
ENDBRANCH   7  10
ENDBRANCH   2   4
ENDBRANCH   1   2
BRANCH   1  13
HETATM   13  C   UNK     0       7.837  46.461  19.500  0.00  0.00     0.174 C 
HETATM   14  C   UNK     0       8.996  45.492  19.586  0.00  0.00     0.034 C 
ENDBRANCH   1  13
TORSDOF 4
ENDMDL
MODEL 5
REMARK VINA RESULT:    -5.013     21.914     22.789
REMARK INTER + INTRA:          -6.338
REMARK INTER:                  -6.094
REMARK INTRA:                  -0.244
REMARK UNBOUND:                -0.299
REMARK  4 active torsions:
REMARK  status: ('A' for Active; 'I' for Inactive)
REMARK    1  A    between atoms: O_1  and  C_10 
REMARK    2  A    between atoms: O_1  and  C_11 
REMARK    3  A    between atoms: N_3  and  C_7 
REMARK    4  A    between atoms: C_4  and  C_10 
ROOT
HETATM    1  O   UNK     0      -9.695  49.207   3.756  0.00  0.00    -0.318 OA
ENDROOT
BRANCH   1   2
HETATM    2  C   UNK     0      -9.643  48.020   4.436  0.00  0.00     0.293 C 
HETATM    3  O   UNK     0     -10.391  47.728   5.378  0.00  0.00    -0.259 OA
BRANCH   2   4
HETATM    4  C   UNK     0      -8.601  47.150   3.913  0.00  0.00     0.039 A 
HETATM    5  C   UNK     0      -8.760  45.765   3.961  0.00  0.00     0.020 A 
HETATM    6  C   UNK     0      -7.760  44.931   3.461  0.00  0.00     0.030 A 
HETATM    7  C   UNK     0      -6.601  45.481   2.912  0.00  0.00     0.025 A 
HETATM    8  C   UNK     0      -6.442  46.866   2.865  0.00  0.00     0.030 A 
HETATM    9  C   UNK     0      -7.442  47.701   3.366  0.00  0.00     0.020 A 
BRANCH   7  10
HETATM   10  N   UNK     0      -5.591  44.638   2.407  0.00  0.00    -0.399 N 
HETATM   11  H   UNK     0      -5.098  44.889   1.560  0.00  0.00     0.156 HD
HETATM   12  H   UNK     0      -5.359  43.780   2.891  0.00  0.00     0.156 HD
ENDBRANCH   7  10
ENDBRANCH   2   4
ENDBRANCH   1   2
BRANCH   1  13
HETATM   13  C   UNK     0     -10.881  49.466   2.997  0.00  0.00     0.174 C 
HETATM   14  C   UNK     0     -10.490  50.054   1.658  0.00  0.00     0.034 C 
ENDBRANCH   1  13
TORSDOF 4
ENDMDL
MODEL 6
REMARK VINA RESULT:    -4.969     21.813     22.464
REMARK INTER + INTRA:          -6.285
REMARK INTER:                  -6.098
REMARK INTRA:                  -0.186
REMARK UNBOUND:                -0.299
REMARK  4 active torsions:
REMARK  status: ('A' for Active; 'I' for Inactive)
REMARK    1  A    between atoms: O_1  and  C_10 
REMARK    2  A    between atoms: O_1  and  C_11 
REMARK    3  A    between atoms: N_3  and  C_7 
REMARK    4  A    between atoms: C_4  and  C_10 
ROOT
HETATM    1  O   UNK     0     -11.043  45.781   5.205  0.00  0.00    -0.318 OA
ENDROOT
BRANCH   1   2
HETATM    2  C   UNK     0     -10.157  46.773   4.882  0.00  0.00     0.293 C 
HETATM    3  O   UNK     0     -10.344  47.973   5.120  0.00  0.00    -0.259 OA
BRANCH   2   4
HETATM    4  C   UNK     0      -8.974  46.239   4.225  0.00  0.00     0.039 A 
HETATM    5  C   UNK     0      -8.613  44.905   4.415  0.00  0.00     0.020 A 
HETATM    6  C   UNK     0      -7.478  44.393   3.786  0.00  0.00     0.030 A 
HETATM    7  C   UNK     0      -6.705  45.214   2.965  0.00  0.00     0.025 A 
HETATM    8  C   UNK     0      -7.066  46.548   2.775  0.00  0.00     0.030 A 
HETATM    9  C   UNK     0      -8.200  47.060   3.405  0.00  0.00     0.020 A 
BRANCH   7  10
HETATM   10  N   UNK     0      -5.558  44.697   2.329  0.00  0.00    -0.399 N 
HETATM   11  H   UNK     0      -5.022  43.962   2.772  0.00  0.00     0.156 HD
HETATM   12  H   UNK     0      -5.269  45.061   1.431  0.00  0.00     0.156 HD
ENDBRANCH   7  10
ENDBRANCH   2   4
ENDBRANCH   1   2
BRANCH   1  13
HETATM   13  C   UNK     0     -12.271  45.746   4.469  0.00  0.00     0.174 C 
HETATM   14  C   UNK     0     -13.146  44.643   5.025  0.00  0.00     0.034 C 
ENDBRANCH   1  13
TORSDOF 4
ENDMDL
MODEL 7
REMARK VINA RESULT:    -4.574      3.498      5.119
REMARK INTER + INTRA:          -5.808
REMARK INTER:                  -5.648
REMARK INTRA:                  -0.160
REMARK UNBOUND:                -0.299
REMARK  4 active torsions:
REMARK  status: ('A' for Active; 'I' for Inactive)
REMARK    1  A    between atoms: O_1  and  C_10 
REMARK    2  A    between atoms: O_1  and  C_11 
REMARK    3  A    between atoms: N_3  and  C_7 
REMARK    4  A    between atoms: C_4  and  C_10 
ROOT
HETATM    1  O   UNK     0       5.349  44.442  20.091  0.00  0.00    -0.318 OA
ENDROOT
BRANCH   1   2
HETATM    2  C   UNK     0       4.500  44.921  21.052  0.00  0.00     0.293 C 
HETATM    3  O   UNK     0       4.350  46.123  21.307  0.00  0.00    -0.259 OA
BRANCH   2   4
HETATM    4  C   UNK     0       3.802  43.842  21.733  0.00  0.00     0.039 A 
HETATM    5  C   UNK     0       2.905  43.039  21.028  0.00  0.00     0.020 A 
HETATM    6  C   UNK     0       2.234  42.004  21.682  0.00  0.00     0.030 A 
HETATM    7  C   UNK     0       2.461  41.773  23.039  0.00  0.00     0.025 A 
HETATM    8  C   UNK     0       3.357  42.576  23.742  0.00  0.00     0.030 A 
HETATM    9  C   UNK     0       4.028  43.611  23.090  0.00  0.00     0.020 A 
BRANCH   7  10
HETATM   10  N   UNK     0       1.783  40.728  23.698  0.00  0.00    -0.399 N 
HETATM   11  H   UNK     0       1.439  39.935  23.172  0.00  0.00     0.156 HD
HETATM   12  H   UNK     0       1.638  40.770  24.699  0.00  0.00     0.156 HD
ENDBRANCH   7  10
ENDBRANCH   2   4
ENDBRANCH   1   2
BRANCH   1  13
HETATM   13  C   UNK     0       5.256  45.037  18.792  0.00  0.00     0.174 C 
HETATM   14  C   UNK     0       6.285  44.400  17.884  0.00  0.00     0.034 C 
ENDBRANCH   1  13
TORSDOF 4
ENDMDL
MODEL 8
REMARK VINA RESULT:    -4.573      3.534      5.492
REMARK INTER + INTRA:          -5.807
REMARK INTER:                  -5.509
REMARK INTRA:                  -0.299
REMARK UNBOUND:                -0.299
REMARK  4 active torsions:
REMARK  status: ('A' for Active; 'I' for Inactive)
REMARK    1  A    between atoms: O_1  and  C_10 
REMARK    2  A    between atoms: O_1  and  C_11 
REMARK    3  A    between atoms: N_3  and  C_7 
REMARK    4  A    between atoms: C_4  and  C_10 
ROOT
HETATM    1  O   UNK     0       5.211  43.938  19.975  0.00  0.00    -0.318 OA
ENDROOT
BRANCH   1   2
HETATM    2  C   UNK     0       4.160  43.109  19.691  0.00  0.00     0.293 C 
HETATM    3  O   UNK     0       3.730  42.903  18.548  0.00  0.00    -0.259 OA
BRANCH   2   4
HETATM    4  C   UNK     0       3.616  42.504  20.896  0.00  0.00     0.039 A 
HETATM    5  C   UNK     0       2.281  42.716  21.240  0.00  0.00     0.020 A 
HETATM    6  C   UNK     0       1.759  42.136  22.397  0.00  0.00     0.030 A 
HETATM    7  C   UNK     0       2.571  41.344  23.209  0.00  0.00     0.025 A 
HETATM    8  C   UNK     0       3.906  41.133  22.864  0.00  0.00     0.030 A 
HETATM    9  C   UNK     0       4.429  41.713  21.708  0.00  0.00     0.020 A 
BRANCH   7  10
HETATM   10  N   UNK     0       2.044  40.759  24.378  0.00  0.00    -0.399 N 
HETATM   11  H   UNK     0       2.224  39.785  24.583  0.00  0.00     0.156 HD
HETATM   12  H   UNK     0       1.482  41.312  25.012  0.00  0.00     0.156 HD
ENDBRANCH   7  10
ENDBRANCH   2   4
ENDBRANCH   1   2
BRANCH   1  13
HETATM   13  C   UNK     0       4.936  45.343  20.006  0.00  0.00     0.174 C 
HETATM   14  C   UNK     0       4.858  45.798  21.446  0.00  0.00     0.034 C 
ENDBRANCH   1  13
TORSDOF 4
ENDMDL
MODEL 9
REMARK VINA RESULT:    -4.565      3.336      4.857
REMARK INTER + INTRA:          -5.798
REMARK INTER:                  -5.483
REMARK INTRA:                  -0.315
REMARK UNBOUND:                -0.299
REMARK  4 active torsions:
REMARK  status: ('A' for Active; 'I' for Inactive)
REMARK    1  A    between atoms: O_1  and  C_10 
REMARK    2  A    between atoms: O_1  and  C_11 
REMARK    3  A    between atoms: N_3  and  C_7 
REMARK    4  A    between atoms: C_4  and  C_10 
ROOT
HETATM    1  O   UNK     0       7.071  45.792  20.611  0.00  0.00    -0.318 OA
ENDROOT
BRANCH   1   2
HETATM    2  C   UNK     0       7.084  44.496  20.169  0.00  0.00     0.293 C 
HETATM    3  O   UNK     0       8.107  43.897  19.813  0.00  0.00    -0.259 OA
BRANCH   2   4
HETATM    4  C   UNK     0       5.750  43.917  20.171  0.00  0.00     0.039 A 
HETATM    5  C   UNK     0       5.030  43.830  21.362  0.00  0.00     0.020 A 
HETATM    6  C   UNK     0       3.750  43.274  21.364  0.00  0.00     0.030 A 
HETATM    7  C   UNK     0       3.191  42.805  20.175  0.00  0.00     0.025 A 
HETATM    8  C   UNK     0       3.912  42.892  18.984  0.00  0.00     0.030 A 
HETATM    9  C   UNK     0       5.192  43.447  18.982  0.00  0.00     0.020 A 
BRANCH   7  10
HETATM   10  N   UNK     0       1.899  42.243  20.177  0.00  0.00    -0.399 N 
HETATM   11  H   UNK     0       1.285  42.382  19.386  0.00  0.00     0.156 HD
HETATM   12  H   UNK     0       1.584  41.701  20.971  0.00  0.00     0.156 HD
ENDBRANCH   7  10
ENDBRANCH   2   4
ENDBRANCH   1   2
BRANCH   1  13
HETATM   13  C   UNK     0       6.834  46.807  19.629  0.00  0.00     0.174 C 
HETATM   14  C   UNK     0       5.513  47.483  19.929  0.00  0.00     0.034 C 
ENDBRANCH   1  13
TORSDOF 4
ENDMDL
