MODEL 1
REMARK VINA RESULT:      -5.4      0.000      0.000
REMARK  4 active torsions:
REMARK  status: ('A' for Active; 'I' for Inactive)
REMARK    1  A    between atoms: O_1  and  C_10 
REMARK    2  A    between atoms: O_1  and  C_11 
REMARK    3  A    between atoms: N_3  and  C_7 
REMARK    4  A    between atoms: C_4  and  C_10 
ROOT
HETATM    1  O   UNK     0       2.950  44.137  21.899  0.00  0.00    -0.318 OA
ENDROOT
BRANCH   1   2
HETATM    2  C   UNK     0       4.117  44.472  22.531  0.00  0.00     0.293 C 
HETATM    3  O   UNK     0       4.389  44.154  23.696  0.00  0.00    -0.259 OA
BRANCH   2   4
HETATM    4  C   UNK     0       4.992  45.245  21.663  0.00  0.00     0.039 A 
HETATM    5  C   UNK     0       4.502  46.374  21.007  0.00  0.00     0.020 A 
HETATM    6  C   UNK     0       5.341  47.115  20.174  0.00  0.00     0.030 A 
HETATM    7  C   UNK     0       6.669  46.727  19.998  0.00  0.00     0.025 A 
HETATM    8  C   UNK     0       7.158  45.598  20.654  0.00  0.00     0.030 A 
HETATM    9  C   UNK     0       6.320  44.857  21.486  0.00  0.00     0.020 A 
BRANCH   7  10
HETATM   10  N   UNK     0       7.516  47.476  19.156  0.00  0.00    -0.399 N 
HETATM   11  H   UNK     0       7.342  47.507  18.160  0.00  0.00     0.156 HD
HETATM   12  H   UNK     0       8.301  47.982  19.547  0.00  0.00     0.156 HD
ENDBRANCH   7  10
ENDBRANCH   2   4
ENDBRANCH   1   2
BRANCH   1  13
HETATM   13  C   UNK     0       2.575  42.756  21.922  0.00  0.00     0.174 C 
HETATM   14  C   UNK     0       2.118  42.347  20.539  0.00  0.00     0.034 C 
ENDBRANCH   1  13
TORSDOF 4
ENDMDL
MODEL 2
REMARK VINA RESULT:      -5.3      1.983      2.605
REMARK  4 active torsions:
REMARK  status: ('A' for Active; 'I' for Inactive)
REMARK    1  A    between atoms: O_1  and  C_10 
REMARK    2  A    between atoms: O_1  and  C_11 
REMARK    3  A    between atoms: N_3  and  C_7 
REMARK    4  A    between atoms: C_4  and  C_10 
ROOT
HETATM    1  O   UNK     0       4.567  42.504  21.944  0.00  0.00    -0.318 OA
ENDROOT
BRANCH   1   2
HETATM    2  C   UNK     0       3.824  43.134  20.982  0.00  0.00     0.293 C 
HETATM    3  O   UNK     0       2.772  42.680  20.512  0.00  0.00    -0.259 OA
BRANCH   2   4
HETATM    4  C   UNK     0       4.425  44.397  20.585  0.00  0.00     0.039 A 
HETATM    5  C   UNK     0       5.142  44.482  19.391  0.00  0.00     0.020 A 
HETATM    6  C   UNK     0       5.719  45.694  19.010  0.00  0.00     0.030 A 
HETATM    7  C   UNK     0       5.580  46.820  19.822  0.00  0.00     0.025 A 
HETATM    8  C   UNK     0       4.863  46.734  21.015  0.00  0.00     0.030 A 
HETATM    9  C   UNK     0       4.286  45.522  21.397  0.00  0.00     0.020 A 
BRANCH   7  10
HETATM   10  N   UNK     0       6.163  48.044  19.437  0.00  0.00    -0.399 N 
HETATM   11  H   UNK     0       5.748  48.591  18.695  0.00  0.00     0.156 HD
HETATM   12  H   UNK     0       6.999  48.375  19.901  0.00  0.00     0.156 HD
ENDBRANCH   7  10
ENDBRANCH   2   4
ENDBRANCH   1   2
BRANCH   1  13
HETATM   13  C   UNK     0       5.121  41.229  21.601  0.00  0.00     0.174 C 
HETATM   14  C   UNK     0       6.560  41.416  21.173  0.00  0.00     0.034 C 
ENDBRANCH   1  13
TORSDOF 4
ENDMDL
MODEL 3
REMARK VINA RESULT:      -5.1      1.954      2.880
REMARK  4 active torsions:
REMARK  status: ('A' for Active; 'I' for Inactive)
REMARK    1  A    between atoms: O_1  and  C_10 
REMARK    2  A    between atoms: O_1  and  C_11 
REMARK    3  A    between atoms: N_3  and  C_7 
REMARK    4  A    between atoms: C_4  and  C_10 
ROOT
HETATM    1  O   UNK     0       3.412  41.381  21.717  0.00  0.00    -0.318 OA
ENDROOT
BRANCH   1   2
HETATM    2  C   UNK     0       2.770  42.374  21.028  0.00  0.00     0.293 C 
HETATM    3  O   UNK     0       1.617  42.277  20.587  0.00  0.00    -0.259 OA
BRANCH   2   4
HETATM    4  C   UNK     0       3.611  43.551  20.879  0.00  0.00     0.039 A 
HETATM    5  C   UNK     0       4.540  43.618  19.840  0.00  0.00     0.020 A 
HETATM    6  C   UNK     0       5.347  44.747  19.698  0.00  0.00     0.030 A 
HETATM    7  C   UNK     0       5.225  45.809  20.594  0.00  0.00     0.025 A 
HETATM    8  C   UNK     0       4.296  45.742  21.632  0.00  0.00     0.030 A 
HETATM    9  C   UNK     0       3.489  44.613  21.775  0.00  0.00     0.020 A 
BRANCH   7  10
HETATM   10  N   UNK     0       6.041  46.950  20.450  0.00  0.00    -0.399 N 
HETATM   11  H   UNK     0       5.646  47.814  20.104  0.00  0.00     0.156 HD
HETATM   12  H   UNK     0       7.022  46.904  20.691  0.00  0.00     0.156 HD
ENDBRANCH   7  10
ENDBRANCH   2   4
ENDBRANCH   1   2
BRANCH   1  13
HETATM   13  C   UNK     0       2.665  40.719  22.743  0.00  0.00     0.174 C 
HETATM   14  C   UNK     0       2.630  41.600  23.973  0.00  0.00     0.034 C 
ENDBRANCH   1  13
TORSDOF 4
ENDMDL
MODEL 4
REMARK VINA RESULT:      -5.1      3.258      4.897
REMARK  4 active torsions:
REMARK  status: ('A' for Active; 'I' for Inactive)
REMARK    1  A    between atoms: O_1  and  C_10 
REMARK    2  A    between atoms: O_1  and  C_11 
REMARK    3  A    between atoms: N_3  and  C_7 
REMARK    4  A    between atoms: C_4  and  C_10 
ROOT
HETATM    1  O   UNK     0       7.026  46.413  19.857  0.00  0.00    -0.318 OA
ENDROOT
BRANCH   1   2
HETATM    2  C   UNK     0       5.711  46.707  20.097  0.00  0.00     0.293 C 
HETATM    3  O   UNK     0       5.244  47.854  20.082  0.00  0.00    -0.259 OA
BRANCH   2   4
HETATM    4  C   UNK     0       4.936  45.507  20.372  0.00  0.00     0.039 A 
HETATM    5  C   UNK     0       4.112  45.451  21.496  0.00  0.00     0.020 A 
HETATM    6  C   UNK     0       3.370  44.300  21.760  0.00  0.00     0.030 A 
HETATM    7  C   UNK     0       3.452  43.204  20.900  0.00  0.00     0.025 A 
HETATM    8  C   UNK     0       4.276  43.261  19.776  0.00  0.00     0.030 A 
HETATM    9  C   UNK     0       5.019  44.412  19.512  0.00  0.00     0.020 A 
BRANCH   7  10
HETATM   10  N   UNK     0       2.702  42.041  21.167  0.00  0.00    -0.399 N 
HETATM   11  H   UNK     0       3.075  41.132  20.926  0.00  0.00     0.156 HD
HETATM   12  H   UNK     0       1.790  42.114  21.598  0.00  0.00     0.156 HD
ENDBRANCH   7  10
ENDBRANCH   2   4
ENDBRANCH   1   2
BRANCH   1  13
HETATM   13  C   UNK     0       7.785  45.901  20.958  0.00  0.00     0.174 C 
HETATM   14  C   UNK     0       9.259  46.083  20.666  0.00  0.00     0.034 C 
ENDBRANCH   1  13
TORSDOF 4
ENDMDL
MODEL 5
REMARK VINA RESULT:      -5.0     21.738     22.495
REMARK  4 active torsions:
REMARK  status: ('A' for Active; 'I' for Inactive)
REMARK    1  A    between atoms: O_1  and  C_10 
REMARK    2  A    between atoms: O_1  and  C_11 
REMARK    3  A    between atoms: N_3  and  C_7 
REMARK    4  A    between atoms: C_4  and  C_10 
ROOT
HETATM    1  O   UNK     0     -10.111  48.087   5.032  0.00  0.00    -0.318 OA
ENDROOT
BRANCH   1   2
HETATM    2  C   UNK     0      -9.373  48.449   3.938  0.00  0.00     0.293 C 
HETATM    3  O   UNK     0      -9.501  49.527   3.342  0.00  0.00    -0.259 OA
BRANCH   2   4
HETATM    4  C   UNK     0      -8.424  47.412   3.566  0.00  0.00     0.039 A 
HETATM    5  C   UNK     0      -8.829  46.077   3.529  0.00  0.00     0.020 A 
HETATM    6  C   UNK     0      -7.918  45.082   3.173  0.00  0.00     0.030 A 
HETATM    7  C   UNK     0      -6.603  45.421   2.854  0.00  0.00     0.025 A 
HETATM    8  C   UNK     0      -6.199  46.755   2.892  0.00  0.00     0.030 A 
HETATM    9  C   UNK     0      -7.108  47.750   3.248  0.00  0.00     0.020 A 
BRANCH   7  10
HETATM   10  N   UNK     0      -5.683  44.415   2.495  0.00  0.00    -0.399 N 
HETATM   11  H   UNK     0      -6.016  43.503   2.211  0.00  0.00     0.156 HD
HETATM   12  H   UNK     0      -4.690  44.604   2.523  0.00  0.00     0.156 HD
ENDBRANCH   7  10
ENDBRANCH   2   4
ENDBRANCH   1   2
BRANCH   1  13
HETATM   13  C   UNK     0     -11.448  48.594   5.106  0.00  0.00     0.174 C 
HETATM   14  C   UNK     0     -12.397  47.567   4.525  0.00  0.00     0.034 C 
ENDBRANCH   1  13
TORSDOF 4
ENDMDL
MODEL 6
REMARK VINA RESULT:      -5.0      2.478      3.139
REMARK  4 active torsions:
REMARK  status: ('A' for Active; 'I' for Inactive)
REMARK    1  A    between atoms: O_1  and  C_10 
REMARK    2  A    between atoms: O_1  and  C_11 
REMARK    3  A    between atoms: N_3  and  C_7 
REMARK    4  A    between atoms: C_4  and  C_10 
ROOT
HETATM    1  O   UNK     0       4.372  42.940  20.832  0.00  0.00    -0.318 OA
ENDROOT
BRANCH   1   2
HETATM    2  C   UNK     0       4.587  43.160  19.498  0.00  0.00     0.293 C 
HETATM    3  O   UNK     0       3.762  42.903  18.612  0.00  0.00    -0.259 OA
BRANCH   2   4
HETATM    4  C   UNK     0       5.902  43.732  19.257  0.00  0.00     0.039 A 
HETATM    5  C   UNK     0       6.101  44.592  18.177  0.00  0.00     0.020 A 
HETATM    6  C   UNK     0       7.364  45.139  17.945  0.00  0.00     0.030 A 
HETATM    7  C   UNK     0       8.427  44.827  18.793  0.00  0.00     0.025 A 
HETATM    8  C   UNK     0       8.227  43.966  19.872  0.00  0.00     0.030 A 
HETATM    9  C   UNK     0       6.965  43.418  20.104  0.00  0.00     0.020 A 
BRANCH   7  10
HETATM   10  N   UNK     0       9.702  45.380  18.558  0.00  0.00    -0.399 N 
HETATM   11  H   UNK     0      10.227  45.784  19.322  0.00  0.00     0.156 HD
HETATM   12  H   UNK     0      10.092  45.374  17.624  0.00  0.00     0.156 HD
ENDBRANCH   7  10
ENDBRANCH   2   4
ENDBRANCH   1   2
BRANCH   1  13
HETATM   13  C   UNK     0       3.258  43.615  21.427  0.00  0.00     0.174 C 
HETATM   14  C   UNK     0       3.679  45.017  21.810  0.00  0.00     0.034 C 
ENDBRANCH   1  13
TORSDOF 4
ENDMDL
MODEL 7
REMARK VINA RESULT:      -4.9     26.718     27.607
REMARK  4 active torsions:
REMARK  status: ('A' for Active; 'I' for Inactive)
REMARK    1  A    between atoms: O_1  and  C_10 
REMARK    2  A    between atoms: O_1  and  C_11 
REMARK    3  A    between atoms: N_3  and  C_7 
REMARK    4  A    between atoms: C_4  and  C_10 
ROOT
HETATM    1  O   UNK     0      14.939  68.518  11.379  0.00  0.00    -0.318 OA
ENDROOT
BRANCH   1   2
HETATM    2  C   UNK     0      16.126  68.594  12.057  0.00  0.00     0.293 C 
HETATM    3  O   UNK     0      16.340  69.375  12.993  0.00  0.00    -0.259 OA
BRANCH   2   4
HETATM    4  C   UNK     0      17.098  67.645  11.538  0.00  0.00     0.039 A 
HETATM    5  C   UNK     0      16.666  66.467  10.928  0.00  0.00     0.020 A 
HETATM    6  C   UNK     0      17.600  65.557  10.432  0.00  0.00     0.030 A 
HETATM    7  C   UNK     0      18.964  65.824  10.544  0.00  0.00     0.025 A 
HETATM    8  C   UNK     0      19.395  67.002  11.153  0.00  0.00     0.030 A 
HETATM    9  C   UNK     0      18.463  67.912  11.651  0.00  0.00     0.020 A 
BRANCH   7  10
HETATM   10  N   UNK     0      19.906  64.904  10.041  0.00  0.00    -0.399 N 
HETATM   11  H   UNK     0      20.886  65.005  10.272  0.00  0.00     0.156 HD
HETATM   12  H   UNK     0      19.604  64.142   9.448  0.00  0.00     0.156 HD
ENDBRANCH   7  10
ENDBRANCH   2   4
ENDBRANCH   1   2
BRANCH   1  13
HETATM   13  C   UNK     0      14.825  69.303  10.187  0.00  0.00     0.174 C 
HETATM   14  C   UNK     0      13.415  69.181   9.651  0.00  0.00     0.034 C 
ENDBRANCH   1  13
TORSDOF 4
ENDMDL
MODEL 8
REMARK VINA RESULT:      -4.7      3.462      5.017
REMARK  4 active torsions:
REMARK  status: ('A' for Active; 'I' for Inactive)
REMARK    1  A    between atoms: O_1  and  C_10 
REMARK    2  A    between atoms: O_1  and  C_11 
REMARK    3  A    between atoms: N_3  and  C_7 
REMARK    4  A    between atoms: C_4  and  C_10 
ROOT
HETATM    1  O   UNK     0       7.146  44.711  18.924  0.00  0.00    -0.318 OA
ENDROOT
BRANCH   1   2
HETATM    2  C   UNK     0       6.367  45.577  19.642  0.00  0.00     0.293 C 
HETATM    3  O   UNK     0       6.615  46.783  19.776  0.00  0.00    -0.259 OA
BRANCH   2   4
HETATM    4  C   UNK     0       5.217  44.904  20.225  0.00  0.00     0.039 A 
HETATM    5  C   UNK     0       4.503  45.512  21.257  0.00  0.00     0.020 A 
HETATM    6  C   UNK     0       3.400  44.866  21.817  0.00  0.00     0.030 A 
HETATM    7  C   UNK     0       3.012  43.612  21.344  0.00  0.00     0.025 A 
HETATM    8  C   UNK     0       3.726  43.005  20.312  0.00  0.00     0.030 A 
HETATM    9  C   UNK     0       4.829  43.650  19.753  0.00  0.00     0.020 A 
BRANCH   7  10
HETATM   10  N   UNK     0       1.898  42.959  21.910  0.00  0.00    -0.399 N 
HETATM   11  H   UNK     0       1.419  42.235  21.393  0.00  0.00     0.156 HD
HETATM   12  H   UNK     0       1.576  43.217  22.835  0.00  0.00     0.156 HD
ENDBRANCH   7  10
ENDBRANCH   2   4
ENDBRANCH   1   2
BRANCH   1  13
HETATM   13  C   UNK     0       8.494  44.531  19.373  0.00  0.00     0.174 C 
HETATM   14  C   UNK     0       9.430  44.683  18.193  0.00  0.00     0.034 C 
ENDBRANCH   1  13
TORSDOF 4
ENDMDL
MODEL 9
REMARK VINA RESULT:      -4.6     19.042     19.878
REMARK  4 active torsions:
REMARK  status: ('A' for Active; 'I' for Inactive)
REMARK    1  A    between atoms: O_1  and  C_10 
REMARK    2  A    between atoms: O_1  and  C_11 
REMARK    3  A    between atoms: N_3  and  C_7 
REMARK    4  A    between atoms: C_4  and  C_10 
ROOT
HETATM    1  O   UNK     0     -13.594  48.563  21.979  0.00  0.00    -0.318 OA
ENDROOT
BRANCH   1   2
HETATM    2  C   UNK     0     -14.015  49.541  22.838  0.00  0.00     0.293 C 
HETATM    3  O   UNK     0     -14.339  49.336  24.015  0.00  0.00    -0.259 OA
BRANCH   2   4
HETATM    4  C   UNK     0     -14.033  50.845  22.195  0.00  0.00     0.039 A 
HETATM    5  C   UNK     0     -14.172  50.937  20.810  0.00  0.00     0.020 A 
HETATM    6  C   UNK     0     -14.189  52.189  20.193  0.00  0.00     0.030 A 
HETATM    7  C   UNK     0     -14.067  53.347  20.960  0.00  0.00     0.025 A 
HETATM    8  C   UNK     0     -13.928  53.254  22.345  0.00  0.00     0.030 A 
HETATM    9  C   UNK     0     -13.910  52.004  22.962  0.00  0.00     0.020 A 
BRANCH   7  10
HETATM   10  N   UNK     0     -14.084  54.611  20.336  0.00  0.00    -0.399 N 
HETATM   11  H   UNK     0     -13.657  55.407  20.792  0.00  0.00     0.156 HD
HETATM   12  H   UNK     0     -14.524  54.724  19.432  0.00  0.00     0.156 HD
ENDBRANCH   7  10
ENDBRANCH   2   4
ENDBRANCH   1   2
BRANCH   1  13
HETATM   13  C   UNK     0     -14.518  47.505  21.702  0.00  0.00     0.174 C 
HETATM   14  C   UNK     0     -13.770  46.350  21.072  0.00  0.00     0.034 C 
ENDBRANCH   1  13
TORSDOF 4
ENDMDL
