MODEL 1
REMARK VINA RESULT:      -5.4      0.000      0.000
REMARK  4 active torsions:
REMARK  status: ('A' for Active; 'I' for Inactive)
REMARK    1  A    between atoms: O_1  and  C_10 
REMARK    2  A    between atoms: O_1  and  C_11 
REMARK    3  A    between atoms: N_3  and  C_7 
REMARK    4  A    between atoms: C_4  and  C_10 
ROOT
HETATM    1  O   UNK     0       3.150  43.963  21.901  0.00  0.00    -0.318 OA
ENDROOT
BRANCH   1   2
HETATM    2  C   UNK     0       4.251  44.446  22.555  0.00  0.00     0.293 C 
HETATM    3  O   UNK     0       4.503  44.220  23.746  0.00  0.00    -0.259 OA
BRANCH   2   4
HETATM    4  C   UNK     0       5.081  45.256  21.678  0.00  0.00     0.039 A 
HETATM    5  C   UNK     0       6.427  44.934  21.499  0.00  0.00     0.020 A 
HETATM    6  C   UNK     0       7.224  45.711  20.658  0.00  0.00     0.030 A 
HETATM    7  C   UNK     0       6.675  46.810  19.995  0.00  0.00     0.025 A 
HETATM    8  C   UNK     0       5.330  47.131  20.175  0.00  0.00     0.030 A 
HETATM    9  C   UNK     0       4.533  46.355  21.016  0.00  0.00     0.020 A 
BRANCH   7  10
HETATM   10  N   UNK     0       7.481  47.595  19.146  0.00  0.00    -0.399 N 
HETATM   11  H   UNK     0       8.483  47.463  19.135  0.00  0.00     0.156 HD
HETATM   12  H   UNK     0       7.057  48.292  18.548  0.00  0.00     0.156 HD
ENDBRANCH   7  10
ENDBRANCH   2   4
ENDBRANCH   1   2
BRANCH   1  13
HETATM   13  C   UNK     0       3.343  42.806  21.080  0.00  0.00     0.174 C 
HETATM   14  C   UNK     0       1.991  42.265  20.666  0.00  0.00     0.034 C 
ENDBRANCH   1  13
TORSDOF 4
ENDMDL
MODEL 2
REMARK VINA RESULT:      -5.3      1.882      2.544
REMARK  4 active torsions:
REMARK  status: ('A' for Active; 'I' for Inactive)
REMARK    1  A    between atoms: O_1  and  C_10 
REMARK    2  A    between atoms: O_1  and  C_11 
REMARK    3  A    between atoms: N_3  and  C_7 
REMARK    4  A    between atoms: C_4  and  C_10 
ROOT
HETATM    1  O   UNK     0       4.088  41.777  21.527  0.00  0.00    -0.318 OA
ENDROOT
BRANCH   1   2
HETATM    2  C   UNK     0       3.378  42.615  20.712  0.00  0.00     0.293 C 
HETATM    3  O   UNK     0       2.302  42.315  20.178  0.00  0.00    -0.259 OA
BRANCH   2   4
HETATM    4  C   UNK     0       4.045  43.897  20.552  0.00  0.00     0.039 A 
HETATM    5  C   UNK     0       4.806  44.150  19.411  0.00  0.00     0.020 A 
HETATM    6  C   UNK     0       5.448  45.380  19.258  0.00  0.00     0.030 A 
HETATM    7  C   UNK     0       5.328  46.357  20.247  0.00  0.00     0.025 A 
HETATM    8  C   UNK     0       4.567  46.104  21.388  0.00  0.00     0.030 A 
HETATM    9  C   UNK     0       3.926  44.874  21.541  0.00  0.00     0.020 A 
BRANCH   7  10
HETATM   10  N   UNK     0       5.976  47.599  20.092  0.00  0.00    -0.399 N 
HETATM   11  H   UNK     0       6.755  47.687  19.454  0.00  0.00     0.156 HD
HETATM   12  H   UNK     0       5.662  48.403  20.621  0.00  0.00     0.156 HD
ENDBRANCH   7  10
ENDBRANCH   2   4
ENDBRANCH   1   2
BRANCH   1  13
HETATM   13  C   UNK     0       3.343  41.034  22.498  0.00  0.00     0.174 C 
HETATM   14  C   UNK     0       2.954  41.957  23.632  0.00  0.00     0.034 C 
ENDBRANCH   1  13
TORSDOF 4
ENDMDL
MODEL 3
REMARK VINA RESULT:      -5.2      1.941      2.776
REMARK  4 active torsions:
REMARK  status: ('A' for Active; 'I' for Inactive)
REMARK    1  A    between atoms: O_1  and  C_10 
REMARK    2  A    between atoms: O_1  and  C_11 
REMARK    3  A    between atoms: N_3  and  C_7 
REMARK    4  A    between atoms: C_4  and  C_10 
ROOT
HETATM    1  O   UNK     0       3.693  41.597  21.594  0.00  0.00    -0.318 OA
ENDROOT
BRANCH   1   2
HETATM    2  C   UNK     0       3.051  42.506  20.798  0.00  0.00     0.293 C 
HETATM    3  O   UNK     0       1.951  42.306  20.266  0.00  0.00    -0.259 OA
BRANCH   2   4
HETATM    4  C   UNK     0       3.822  43.731  20.657  0.00  0.00     0.039 A 
HETATM    5  C   UNK     0       3.710  44.740  21.614  0.00  0.00     0.020 A 
HETATM    6  C   UNK     0       4.450  45.915  21.478  0.00  0.00     0.030 A 
HETATM    7  C   UNK     0       5.302  46.081  20.386  0.00  0.00     0.025 A 
HETATM    8  C   UNK     0       5.413  45.073  19.429  0.00  0.00     0.030 A 
HETATM    9  C   UNK     0       4.673  43.898  19.564  0.00  0.00     0.020 A 
BRANCH   7  10
HETATM   10  N   UNK     0       6.049  47.269  20.249  0.00  0.00    -0.399 N 
HETATM   11  H   UNK     0       7.053  47.252  20.369  0.00  0.00     0.156 HD
HETATM   12  H   UNK     0       5.581  48.139  20.032  0.00  0.00     0.156 HD
ENDBRANCH   7  10
ENDBRANCH   2   4
ENDBRANCH   1   2
BRANCH   1  13
HETATM   13  C   UNK     0       2.890  40.892  22.548  0.00  0.00     0.174 C 
HETATM   14  C   UNK     0       2.657  41.783  23.748  0.00  0.00     0.034 C 
ENDBRANCH   1  13
TORSDOF 4
ENDMDL
MODEL 4
REMARK VINA RESULT:      -4.9     21.832     22.519
REMARK  4 active torsions:
REMARK  status: ('A' for Active; 'I' for Inactive)
REMARK    1  A    between atoms: O_1  and  C_10 
REMARK    2  A    between atoms: O_1  and  C_11 
REMARK    3  A    between atoms: N_3  and  C_7 
REMARK    4  A    between atoms: C_4  and  C_10 
ROOT
HETATM    1  O   UNK     0     -10.858  47.074   4.754  0.00  0.00    -0.318 OA
ENDROOT
BRANCH   1   2
HETATM    2  C   UNK     0      -9.725  47.808   4.530  0.00  0.00     0.293 C 
HETATM    3  O   UNK     0      -9.628  49.021   4.759  0.00  0.00    -0.259 OA
BRANCH   2   4
HETATM    4  C   UNK     0      -8.654  46.986   3.989  0.00  0.00     0.039 A 
HETATM    5  C   UNK     0      -7.561  47.587   3.364  0.00  0.00     0.020 A 
HETATM    6  C   UNK     0      -6.535  46.797   2.844  0.00  0.00     0.030 A 
HETATM    7  C   UNK     0      -6.601  45.408   2.950  0.00  0.00     0.025 A 
HETATM    8  C   UNK     0      -7.693  44.808   3.575  0.00  0.00     0.030 A 
HETATM    9  C   UNK     0      -8.720  45.596   4.094  0.00  0.00     0.020 A 
BRANCH   7  10
HETATM   10  N   UNK     0      -5.563  44.611   2.424  0.00  0.00    -0.399 N 
HETATM   11  H   UNK     0      -5.003  44.038   3.041  0.00  0.00     0.156 HD
HETATM   12  H   UNK     0      -5.378  44.613   1.430  0.00  0.00     0.156 HD
ENDBRANCH   7  10
ENDBRANCH   2   4
ENDBRANCH   1   2
BRANCH   1  13
HETATM   13  C   UNK     0     -12.031  47.457   4.028  0.00  0.00     0.174 C 
HETATM   14  C   UNK     0     -12.192  46.539   2.836  0.00  0.00     0.034 C 
ENDBRANCH   1  13
TORSDOF 4
ENDMDL
MODEL 5
REMARK VINA RESULT:      -4.8     21.837     22.964
REMARK  4 active torsions:
REMARK  status: ('A' for Active; 'I' for Inactive)
REMARK    1  A    between atoms: O_1  and  C_10 
REMARK    2  A    between atoms: O_1  and  C_11 
REMARK    3  A    between atoms: N_3  and  C_7 
REMARK    4  A    between atoms: C_4  and  C_10 
ROOT
HETATM    1  O   UNK     0      -8.627  49.705   2.381  0.00  0.00    -0.318 OA
ENDROOT
BRANCH   1   2
HETATM    2  C   UNK     0      -8.722  49.038   3.572  0.00  0.00     0.293 C 
HETATM    3  O   UNK     0      -9.209  49.524   4.601  0.00  0.00    -0.259 OA
BRANCH   2   4
HETATM    4  C   UNK     0      -8.181  47.691   3.474  0.00  0.00     0.039 A 
HETATM    5  C   UNK     0      -8.925  46.606   3.937  0.00  0.00     0.020 A 
HETATM    6  C   UNK     0      -8.405  45.314   3.844  0.00  0.00     0.030 A 
HETATM    7  C   UNK     0      -7.142  45.108   3.288  0.00  0.00     0.025 A 
HETATM    8  C   UNK     0      -6.399  46.194   2.826  0.00  0.00     0.030 A 
HETATM    9  C   UNK     0      -6.918  47.486   2.919  0.00  0.00     0.020 A 
BRANCH   7  10
HETATM   10  N   UNK     0      -6.618  43.803   3.195  0.00  0.00    -0.399 N 
HETATM   11  H   UNK     0      -6.193  43.489   2.333  0.00  0.00     0.156 HD
HETATM   12  H   UNK     0      -6.667  43.180   3.990  0.00  0.00     0.156 HD
ENDBRANCH   7  10
ENDBRANCH   2   4
ENDBRANCH   1   2
BRANCH   1  13
HETATM   13  C   UNK     0      -9.825  49.819   1.605  0.00  0.00     0.174 C 
HETATM   14  C   UNK     0      -9.636  50.899   0.562  0.00  0.00     0.034 C 
ENDBRANCH   1  13
TORSDOF 4
ENDMDL
MODEL 6
REMARK VINA RESULT:      -4.8      2.046      2.860
REMARK  4 active torsions:
REMARK  status: ('A' for Active; 'I' for Inactive)
REMARK    1  A    between atoms: O_1  and  C_10 
REMARK    2  A    between atoms: O_1  and  C_11 
REMARK    3  A    between atoms: N_3  and  C_7 
REMARK    4  A    between atoms: C_4  and  C_10 
ROOT
HETATM    1  O   UNK     0       4.142  42.629  20.845  0.00  0.00    -0.318 OA
ENDROOT
BRANCH   1   2
HETATM    2  C   UNK     0       4.215  43.169  19.590  0.00  0.00     0.293 C 
HETATM    3  O   UNK     0       3.599  42.729  18.610  0.00  0.00    -0.259 OA
BRANCH   2   4
HETATM    4  C   UNK     0       5.104  44.319  19.554  0.00  0.00     0.039 A 
HETATM    5  C   UNK     0       4.861  45.414  20.384  0.00  0.00     0.020 A 
HETATM    6  C   UNK     0       5.714  46.518  20.349  0.00  0.00     0.030 A 
HETATM    7  C   UNK     0       6.809  46.527  19.485  0.00  0.00     0.025 A 
HETATM    8  C   UNK     0       7.051  45.432  18.655  0.00  0.00     0.030 A 
HETATM    9  C   UNK     0       6.199  44.329  18.689  0.00  0.00     0.020 A 
BRANCH   7  10
HETATM   10  N   UNK     0       7.670  47.642  19.450  0.00  0.00    -0.399 N 
HETATM   11  H   UNK     0       7.421  48.490  19.942  0.00  0.00     0.156 HD
HETATM   12  H   UNK     0       8.538  47.596  18.931  0.00  0.00     0.156 HD
ENDBRANCH   7  10
ENDBRANCH   2   4
ENDBRANCH   1   2
BRANCH   1  13
HETATM   13  C   UNK     0       5.226  41.785  21.249  0.00  0.00     0.174 C 
HETATM   14  C   UNK     0       5.485  41.990  22.726  0.00  0.00     0.034 C 
ENDBRANCH   1  13
TORSDOF 4
ENDMDL
MODEL 7
REMARK VINA RESULT:      -4.8     26.931     27.755
REMARK  4 active torsions:
REMARK  status: ('A' for Active; 'I' for Inactive)
REMARK    1  A    between atoms: O_1  and  C_10 
REMARK    2  A    between atoms: O_1  and  C_11 
REMARK    3  A    between atoms: N_3  and  C_7 
REMARK    4  A    between atoms: C_4  and  C_10 
ROOT
HETATM    1  O   UNK     0      18.116  67.171   9.925  0.00  0.00    -0.318 OA
ENDROOT
BRANCH   1   2
HETATM    2  C   UNK     0      16.966  66.436  10.027  0.00  0.00     0.293 C 
HETATM    3  O   UNK     0      16.936  65.240  10.343  0.00  0.00    -0.259 OA
BRANCH   2   4
HETATM    4  C   UNK     0      15.792  67.236   9.716  0.00  0.00     0.039 A 
HETATM    5  C   UNK     0      15.068  66.987   8.550  0.00  0.00     0.020 A 
HETATM    6  C   UNK     0      13.942  67.755   8.252  0.00  0.00     0.030 A 
HETATM    7  C   UNK     0      13.539  68.770   9.120  0.00  0.00     0.025 A 
HETATM    8  C   UNK     0      14.263  69.018  10.286  0.00  0.00     0.030 A 
HETATM    9  C   UNK     0      15.390  68.251  10.584  0.00  0.00     0.020 A 
BRANCH   7  10
HETATM   10  N   UNK     0      12.401  69.546   8.818  0.00  0.00    -0.399 N 
HETATM   11  H   UNK     0      12.256  70.433   9.281  0.00  0.00     0.156 HD
HETATM   12  H   UNK     0      11.728  69.214   8.140  0.00  0.00     0.156 HD
ENDBRANCH   7  10
ENDBRANCH   2   4
ENDBRANCH   1   2
BRANCH   1  13
HETATM   13  C   UNK     0      19.023  67.111  11.032  0.00  0.00     0.174 C 
HETATM   14  C   UNK     0      18.879  68.371  11.856  0.00  0.00     0.034 C 
ENDBRANCH   1  13
TORSDOF 4
ENDMDL
MODEL 8
REMARK VINA RESULT:      -4.8      4.826      6.774
REMARK  4 active torsions:
REMARK  status: ('A' for Active; 'I' for Inactive)
REMARK    1  A    between atoms: O_1  and  C_10 
REMARK    2  A    between atoms: O_1  and  C_11 
REMARK    3  A    between atoms: N_3  and  C_7 
REMARK    4  A    between atoms: C_4  and  C_10 
ROOT
HETATM    1  O   UNK     0       3.725  42.362  21.812  0.00  0.00    -0.318 OA
ENDROOT
BRANCH   1   2
HETATM    2  C   UNK     0       2.505  41.841  22.146  0.00  0.00     0.293 C 
HETATM    3  O   UNK     0       1.545  41.772  21.367  0.00  0.00    -0.259 OA
BRANCH   2   4
HETATM    4  C   UNK     0       2.479  41.383  23.526  0.00  0.00     0.039 A 
HETATM    5  C   UNK     0       3.168  42.093  24.509  0.00  0.00     0.020 A 
HETATM    6  C   UNK     0       3.144  41.652  25.833  0.00  0.00     0.030 A 
HETATM    7  C   UNK     0       2.430  40.503  26.173  0.00  0.00     0.025 A 
HETATM    8  C   UNK     0       1.741  39.794  25.190  0.00  0.00     0.030 A 
HETATM    9  C   UNK     0       1.766  40.233  23.866  0.00  0.00     0.020 A 
BRANCH   7  10
HETATM   10  N   UNK     0       2.406  40.058  27.511  0.00  0.00    -0.399 N 
HETATM   11  H   UNK     0       3.056  40.442  28.184  0.00  0.00     0.156 HD
HETATM   12  H   UNK     0       1.739  39.354  27.798  0.00  0.00     0.156 HD
ENDBRANCH   7  10
ENDBRANCH   2   4
ENDBRANCH   1   2
BRANCH   1  13
HETATM   13  C   UNK     0       3.725  43.528  20.981  0.00  0.00     0.174 C 
HETATM   14  C   UNK     0       3.613  44.757  21.857  0.00  0.00     0.034 C 
ENDBRANCH   1  13
TORSDOF 4
ENDMDL
MODEL 9
REMARK VINA RESULT:      -4.7     26.619     27.456
REMARK  4 active torsions:
REMARK  status: ('A' for Active; 'I' for Inactive)
REMARK    1  A    between atoms: O_1  and  C_10 
REMARK    2  A    between atoms: O_1  and  C_11 
REMARK    3  A    between atoms: N_3  and  C_7 
REMARK    4  A    between atoms: C_4  and  C_10 
ROOT
HETATM    1  O   UNK     0      15.525  69.136  10.704  0.00  0.00    -0.318 OA
ENDROOT
BRANCH   1   2
HETATM    2  C   UNK     0      16.005  68.402  11.755  0.00  0.00     0.293 C 
HETATM    3  O   UNK     0      15.574  68.486  12.912  0.00  0.00    -0.259 OA
BRANCH   2   4
HETATM    4  C   UNK     0      17.082  67.517  11.340  0.00  0.00     0.039 A 
HETATM    5  C   UNK     0      18.410  67.891  11.544  0.00  0.00     0.020 A 
HETATM    6  C   UNK     0      19.443  67.042  11.146  0.00  0.00     0.030 A 
HETATM    7  C   UNK     0      19.147  65.818  10.543  0.00  0.00     0.025 A 
HETATM    8  C   UNK     0      17.820  65.445  10.339  0.00  0.00     0.030 A 
HETATM    9  C   UNK     0      16.786  66.294  10.737  0.00  0.00     0.020 A 
BRANCH   7  10
HETATM   10  N   UNK     0      20.191  64.961  10.141  0.00  0.00    -0.399 N 
HETATM   11  H   UNK     0      20.842  65.256   9.425  0.00  0.00     0.156 HD
HETATM   12  H   UNK     0      20.289  64.048  10.566  0.00  0.00     0.156 HD
ENDBRANCH   7  10
ENDBRANCH   2   4
ENDBRANCH   1   2
BRANCH   1  13
HETATM   13  C   UNK     0      14.171  68.889  10.308  0.00  0.00     0.174 C 
HETATM   14  C   UNK     0      14.169  68.231   8.945  0.00  0.00     0.034 C 
ENDBRANCH   1  13
TORSDOF 4
ENDMDL
