MODEL 1
REMARK VINA RESULT:      -7.5      0.000      0.000
REMARK  11 active torsions:
REMARK  status: ('A' for Active; 'I' for Inactive)
REMARK    1  A    between atoms: O_1  and  C_9 
REMARK    2  A    between atoms: O_2  and  C_19 
REMARK    3  A    between atoms: O_3  and  C_26 
REMARK    4  A    between atoms: O_4  and  C_27 
REMARK    5  A    between atoms: O_6  and  C_28 
REMARK    6  A    between atoms: O_7  and  C_32 
REMARK    7  A    between atoms: C_10  and  C_19 
REMARK    8  A    between atoms: C_19  and  C_27 
REMARK    9  A    between atoms: C_27  and  C_30 
REMARK   10  A    between atoms: C_30  and  C_31 
REMARK   11  A    between atoms: C_31  and  C_32 
ROOT
HETATM    1  O   UNK     0      35.782  29.505  31.627  0.00  0.00    -0.384 OA
HETATM    2  H   UNK     0      34.844  29.365  31.411  0.00  0.00     0.211 HD
ENDROOT
BRANCH   1   3
HETATM    3  C   UNK     0      36.490  28.277  31.340  0.00  0.00     0.089 C 
HETATM    4  C   UNK     0      35.626  27.392  30.404  0.00  0.00    -0.002 C 
HETATM    5  C   UNK     0      34.415  27.095  31.324  0.00  0.00     0.034 C 
HETATM    6  C   UNK     0      35.270  28.209  29.149  0.00  0.00     0.014 C 
HETATM    7  C   UNK     0      36.339  26.078  29.987  0.00  0.00     0.019 C 
HETATM    8  C   UNK     0      35.055  26.867  32.713  0.00  0.00     0.012 C 
HETATM    9  C   UNK     0      36.472  27.477  32.651  0.00  0.00     0.044 C 
HETATM   10  C   UNK     0      36.538  28.668  28.411  0.00  0.00     0.011 C 
HETATM   11  C   UNK     0      37.608  29.369  29.305  0.00  0.00     0.027 C 
HETATM   12  C   UNK     0      38.972  29.596  28.543  0.00  0.00    -0.023 C 
HETATM   13  C   UNK     0      37.783  28.698  30.676  0.00  0.00    -0.037 C 
HETATM   14  C   UNK     0      40.055  30.111  29.532  0.00  0.00     0.071 C 
HETATM   15  C   UNK     0      38.821  30.634  27.394  0.00  0.00     0.044 C 
HETATM   16  C   UNK     0      39.493  28.282  27.900  0.00  0.00     0.016 C 
HETATM   17  C   UNK     0      39.807  31.549  30.021  0.00  0.00     0.047 C 
HETATM   18  C   UNK     0      40.190  29.187  30.726  0.00  0.00     0.154 C 
HETATM   19  C   UNK     0      39.664  32.526  28.856  0.00  0.00     0.147 C 
HETATM   20  C   UNK     0      38.576  32.064  27.885  0.00  0.00     0.147 C 
HETATM   21  O   UNK     0      41.275  28.990  31.272  0.00  0.00    -0.293 OA
HETATM   22  C   UNK     0      38.968  28.575  31.294  0.00  0.00     0.057 C 
BRANCH   5  23
HETATM   23  C   UNK     0      33.502  25.951  30.900  0.00  0.00     0.084 C 
HETATM   24  C   UNK     0      34.324  24.661  30.736  0.00  0.00     0.049 C 
BRANCH  23  25
HETATM   25  O   UNK     0      32.548  25.720  31.945  0.00  0.00    -0.387 OA
HETATM   26  H   UNK     0      31.653  25.762  31.569  0.00  0.00     0.210 HD
ENDBRANCH  23  25
BRANCH  23  27
HETATM   27  C   UNK     0      32.723  26.274  29.595  0.00  0.00     0.152 C 
BRANCH  27  28
HETATM   28  O   UNK     0      31.321  26.327  29.875  0.00  0.00    -0.393 OA
HETATM   29  H   UNK     0      30.875  25.739  29.241  0.00  0.00     0.210 HD
ENDBRANCH  27  28
BRANCH  27  30
HETATM   30  C   UNK     0      32.951  25.262  28.456  0.00  0.00     0.037 C 
BRANCH  30  31
HETATM   31  C   UNK     0      33.269  25.960  27.120  0.00  0.00     0.040 C 
BRANCH  31  32
HETATM   32  C   UNK     0      34.051  25.090  26.114  0.00  0.00     0.051 C 
HETATM   33  C   UNK     0      34.293  25.886  24.827  0.00  0.00     0.045 C 
HETATM   34  C   UNK     0      35.385  24.595  26.678  0.00  0.00     0.045 C 
BRANCH  32  35
HETATM   35  O   UNK     0      33.250  23.954  25.783  0.00  0.00    -0.391 OA
HETATM   36  H   UNK     0      33.459  23.246  26.415  0.00  0.00     0.210 HD
ENDBRANCH  32  35
ENDBRANCH  31  32
ENDBRANCH  30  31
ENDBRANCH  27  30
ENDBRANCH  23  27
ENDBRANCH   5  23
BRANCH  19  37
HETATM   37  O   UNK     0      40.909  32.612  28.161  0.00  0.00    -0.393 OA
HETATM   38  H   UNK     0      40.712  32.772  27.223  0.00  0.00     0.210 HD
ENDBRANCH  19  37
BRANCH  20  39
HETATM   39  O   UNK     0      38.541  32.954  26.771  0.00  0.00    -0.393 OA
HETATM   40  H   UNK     0      39.232  32.670  26.149  0.00  0.00     0.210 HD
ENDBRANCH  20  39
ENDBRANCH   1   3
TORSDOF 11
ENDMDL
MODEL 2
REMARK VINA RESULT:      -7.2      9.808     14.681
REMARK  11 active torsions:
REMARK  status: ('A' for Active; 'I' for Inactive)
REMARK    1  A    between atoms: O_1  and  C_9 
REMARK    2  A    between atoms: O_2  and  C_19 
REMARK    3  A    between atoms: O_3  and  C_26 
REMARK    4  A    between atoms: O_4  and  C_27 
REMARK    5  A    between atoms: O_6  and  C_28 
REMARK    6  A    between atoms: O_7  and  C_32 
REMARK    7  A    between atoms: C_10  and  C_19 
REMARK    8  A    between atoms: C_19  and  C_27 
REMARK    9  A    between atoms: C_27  and  C_30 
REMARK   10  A    between atoms: C_30  and  C_31 
REMARK   11  A    between atoms: C_31  and  C_32 
ROOT
HETATM    1  O   UNK     0      27.281  29.211  17.818  0.00  0.00    -0.384 OA
HETATM    2  H   UNK     0      27.596  28.481  18.378  0.00  0.00     0.211 HD
ENDROOT
BRANCH   1   3
HETATM    3  C   UNK     0      28.371  30.146  17.655  0.00  0.00     0.089 C 
HETATM    4  C   UNK     0      29.253  30.137  18.930  0.00  0.00    -0.002 C 
HETATM    5  C   UNK     0      28.250  30.682  19.979  0.00  0.00     0.034 C 
HETATM    6  C   UNK     0      29.711  28.692  19.199  0.00  0.00     0.014 C 
HETATM    7  C   UNK     0      30.493  31.065  18.816  0.00  0.00     0.019 C 
HETATM    8  C   UNK     0      27.491  31.793  19.219  0.00  0.00     0.012 C 
HETATM    9  C   UNK     0      27.730  31.541  17.714  0.00  0.00     0.044 C 
HETATM   10  C   UNK     0      30.509  28.136  18.007  0.00  0.00     0.011 C 
HETATM   11  C   UNK     0      29.825  28.305  16.615  0.00  0.00     0.027 C 
HETATM   12  C   UNK     0      30.792  27.936  15.422  0.00  0.00    -0.023 C 
HETATM   13  C   UNK     0      29.139  29.669  16.441  0.00  0.00    -0.037 C 
HETATM   14  C   UNK     0      30.132  28.310  14.066  0.00  0.00     0.071 C 
HETATM   15  C   UNK     0      31.128  26.417  15.405  0.00  0.00     0.044 C 
HETATM   16  C   UNK     0      32.142  28.697  15.526  0.00  0.00     0.016 C 
HETATM   17  C   UNK     0      28.936  27.414  13.697  0.00  0.00     0.047 C 
HETATM   18  C   UNK     0      29.698  29.764  14.050  0.00  0.00     0.154 C 
HETATM   19  C   UNK     0      29.318  25.935  13.696  0.00  0.00     0.147 C 
HETATM   20  C   UNK     0      29.936  25.529  15.034  0.00  0.00     0.147 C 
HETATM   21  O   UNK     0      29.745  30.441  13.024  0.00  0.00    -0.293 OA
HETATM   22  C   UNK     0      29.127  30.349  15.284  0.00  0.00     0.057 C 
BRANCH   5  23
HETATM   23  C   UNK     0      28.840  31.166  21.298  0.00  0.00     0.084 C 
HETATM   24  C   UNK     0      29.672  32.438  21.061  0.00  0.00     0.049 C 
BRANCH  23  25
HETATM   25  O   UNK     0      27.761  31.518  22.175  0.00  0.00    -0.387 OA
HETATM   26  H   UNK     0      28.003  31.276  23.084  0.00  0.00     0.210 HD
ENDBRANCH  23  25
BRANCH  23  27
HETATM   27  C   UNK     0      29.694  30.073  21.996  0.00  0.00     0.152 C 
BRANCH  27  28
HETATM   28  O   UNK     0      28.937  29.476  23.054  0.00  0.00    -0.393 OA
HETATM   29  H   UNK     0      29.146  28.525  23.059  0.00  0.00     0.210 HD
ENDBRANCH  27  28
BRANCH  27  30
HETATM   30  C   UNK     0      31.023  30.588  22.582  0.00  0.00     0.037 C 
BRANCH  30  31
HETATM   31  C   UNK     0      32.231  29.780  22.071  0.00  0.00     0.040 C 
BRANCH  31  32
HETATM   32  C   UNK     0      33.555  30.570  22.021  0.00  0.00     0.051 C 
HETATM   33  C   UNK     0      34.735  29.605  22.179  0.00  0.00     0.045 C 
HETATM   34  C   UNK     0      33.709  31.375  20.728  0.00  0.00     0.045 C 
BRANCH  32  35
HETATM   35  O   UNK     0      33.579  31.477  23.125  0.00  0.00    -0.391 OA
HETATM   36  H   UNK     0      33.200  31.021  23.895  0.00  0.00     0.210 HD
ENDBRANCH  32  35
ENDBRANCH  31  32
ENDBRANCH  30  31
ENDBRANCH  27  30
ENDBRANCH  23  27
ENDBRANCH   5  23
BRANCH  19  37
HETATM   37  O   UNK     0      30.260  25.695  12.650  0.00  0.00    -0.393 OA
HETATM   38  H   UNK     0      30.594  24.788  12.757  0.00  0.00     0.210 HD
ENDBRANCH  19  37
BRANCH  20  39
HETATM   39  O   UNK     0      30.358  24.169  14.957  0.00  0.00    -0.393 OA
HETATM   40  H   UNK     0      30.209  23.767  15.830  0.00  0.00     0.210 HD
ENDBRANCH  20  39
ENDBRANCH   1   3
TORSDOF 11
ENDMDL
MODEL 3
REMARK VINA RESULT:      -7.0     12.609     16.548
REMARK  11 active torsions:
REMARK  status: ('A' for Active; 'I' for Inactive)
REMARK    1  A    between atoms: O_1  and  C_9 
REMARK    2  A    between atoms: O_2  and  C_19 
REMARK    3  A    between atoms: O_3  and  C_26 
REMARK    4  A    between atoms: O_4  and  C_27 
REMARK    5  A    between atoms: O_6  and  C_28 
REMARK    6  A    between atoms: O_7  and  C_32 
REMARK    7  A    between atoms: C_10  and  C_19 
REMARK    8  A    between atoms: C_19  and  C_27 
REMARK    9  A    between atoms: C_27  and  C_30 
REMARK   10  A    between atoms: C_30  and  C_31 
REMARK   11  A    between atoms: C_31  and  C_32 
ROOT
HETATM    1  O   UNK     0      24.027  22.629  37.421  0.00  0.00    -0.384 OA
HETATM    2  H   UNK     0      23.432  22.978  38.108  0.00  0.00     0.211 HD
ENDROOT
BRANCH   1   3
HETATM    3  C   UNK     0      24.199  21.214  37.661  0.00  0.00     0.089 C 
HETATM    4  C   UNK     0      22.953  20.449  37.146  0.00  0.00    -0.002 C 
HETATM    5  C   UNK     0      21.859  21.010  38.089  0.00  0.00     0.034 C 
HETATM    6  C   UNK     0      22.739  20.804  35.663  0.00  0.00     0.014 C 
HETATM    7  C   UNK     0      23.081  18.909  37.301  0.00  0.00     0.019 C 
HETATM    8  C   UNK     0      22.564  21.092  39.462  0.00  0.00     0.012 C 
HETATM    9  C   UNK     0      24.082  21.038  39.183  0.00  0.00     0.044 C 
HETATM   10  C   UNK     0      23.970  20.426  34.823  0.00  0.00     0.011 C 
HETATM   11  C   UNK     0      25.334  20.941  35.376  0.00  0.00     0.027 C 
HETATM   12  C   UNK     0      26.567  20.321  34.608  0.00  0.00    -0.023 C 
HETATM   13  C   UNK     0      25.450  20.822  36.904  0.00  0.00    -0.037 C 
HETATM   14  C   UNK     0      27.891  20.710  35.324  0.00  0.00     0.071 C 
HETATM   15  C   UNK     0      26.636  20.823  33.137  0.00  0.00     0.044 C 
HETATM   16  C   UNK     0      26.486  18.771  34.554  0.00  0.00     0.016 C 
HETATM   17  C   UNK     0      28.246  22.201  35.193  0.00  0.00     0.047 C 
HETATM   18  C   UNK     0      27.854  20.326  36.791  0.00  0.00     0.154 C 
HETATM   19  C   UNK     0      28.300  22.643  33.731  0.00  0.00     0.147 C 
HETATM   20  C   UNK     0      26.993  22.308  33.011  0.00  0.00     0.147 C 
HETATM   21  O   UNK     0      28.862  19.948  37.386  0.00  0.00    -0.293 OA
HETATM   22  C   UNK     0      26.587  20.494  37.537  0.00  0.00     0.057 C 
BRANCH   5  23
HETATM   23  C   UNK     0      20.546  20.237  38.145  0.00  0.00     0.084 C 
HETATM   24  C   UNK     0      20.508  19.193  37.017  0.00  0.00     0.049 C 
BRANCH  23  25
HETATM   25  O   UNK     0      20.492  19.525  39.389  0.00  0.00    -0.387 OA
HETATM   26  H   UNK     0      21.327  19.663  39.867  0.00  0.00     0.210 HD
ENDBRANCH  23  25
BRANCH  23  27
HETATM   27  C   UNK     0      19.310  21.173  38.069  0.00  0.00     0.152 C 
BRANCH  27  28
HETATM   28  O   UNK     0      18.357  20.635  37.146  0.00  0.00    -0.393 OA
HETATM   29  H   UNK     0      18.811  20.523  36.292  0.00  0.00     0.210 HD
ENDBRANCH  27  28
BRANCH  27  30
HETATM   30  C   UNK     0      19.635  22.617  37.641  0.00  0.00     0.037 C 
BRANCH  30  31
HETATM   31  C   UNK     0      19.374  23.627  38.775  0.00  0.00     0.040 C 
BRANCH  31  32
HETATM   32  C   UNK     0      19.699  25.092  38.414  0.00  0.00     0.051 C 
HETATM   33  C   UNK     0      19.830  25.228  36.893  0.00  0.00     0.045 C 
HETATM   34  C   UNK     0      18.647  26.072  38.936  0.00  0.00     0.045 C 
BRANCH  32  35
HETATM   35  O   UNK     0      20.960  25.429  38.994  0.00  0.00    -0.391 OA
HETATM   36  H   UNK     0      21.101  24.849  39.762  0.00  0.00     0.210 HD
ENDBRANCH  32  35
ENDBRANCH  31  32
ENDBRANCH  30  31
ENDBRANCH  27  30
ENDBRANCH  23  27
ENDBRANCH   5  23
BRANCH  19  37
HETATM   37  O   UNK     0      29.382  21.976  33.079  0.00  0.00    -0.393 OA
HETATM   38  H   UNK     0      29.851  22.635  32.540  0.00  0.00     0.210 HD
ENDBRANCH  19  37
BRANCH  20  39
HETATM   39  O   UNK     0      27.121  22.654  31.633  0.00  0.00    -0.393 OA
HETATM   40  H   UNK     0      26.471  22.126  31.138  0.00  0.00     0.210 HD
ENDBRANCH  20  39
ENDBRANCH   1   3
TORSDOF 11
ENDMDL
MODEL 4
REMARK VINA RESULT:      -7.0     26.338     29.071
REMARK  11 active torsions:
REMARK  status: ('A' for Active; 'I' for Inactive)
REMARK    1  A    between atoms: O_1  and  C_9 
REMARK    2  A    between atoms: O_2  and  C_19 
REMARK    3  A    between atoms: O_3  and  C_26 
REMARK    4  A    between atoms: O_4  and  C_27 
REMARK    5  A    between atoms: O_6  and  C_28 
REMARK    6  A    between atoms: O_7  and  C_32 
REMARK    7  A    between atoms: C_10  and  C_19 
REMARK    8  A    between atoms: C_19  and  C_27 
REMARK    9  A    between atoms: C_27  and  C_30 
REMARK   10  A    between atoms: C_30  and  C_31 
REMARK   11  A    between atoms: C_31  and  C_32 
ROOT
HETATM    1  O   UNK     0      10.506  27.963  29.854  0.00  0.00    -0.384 OA
HETATM    2  H   UNK     0      10.545  28.855  29.468  0.00  0.00     0.211 HD
ENDROOT
BRANCH   1   3
HETATM    3  C   UNK     0       9.332  27.896  30.695  0.00  0.00     0.089 C 
HETATM    4  C   UNK     0       9.004  29.313  31.233  0.00  0.00    -0.002 C 
HETATM    5  C   UNK     0      10.256  29.588  32.105  0.00  0.00     0.034 C 
HETATM    6  C   UNK     0       8.855  30.270  30.037  0.00  0.00     0.014 C 
HETATM    7  C   UNK     0       7.712  29.349  32.095  0.00  0.00     0.019 C 
HETATM    8  C   UNK     0      10.536  28.229  32.786  0.00  0.00     0.012 C 
HETATM    9  C   UNK     0       9.778  27.160  31.967  0.00  0.00     0.044 C 
HETATM   10  C   UNK     0       7.739  29.799  29.090  0.00  0.00     0.011 C 
HETATM   11  C   UNK     0       7.822  28.301  28.660  0.00  0.00     0.027 C 
HETATM   12  C   UNK     0       6.528  27.824  27.891  0.00  0.00    -0.023 C 
HETATM   13  C   UNK     0       8.225  27.365  29.809  0.00  0.00    -0.037 C 
HETATM   14  C   UNK     0       6.580  26.287  27.664  0.00  0.00     0.071 C 
HETATM   15  C   UNK     0       6.393  28.522  26.508  0.00  0.00     0.044 C 
HETATM   16  C   UNK     0       5.237  28.149  28.690  0.00  0.00     0.016 C 
HETATM   17  C   UNK     0       7.645  25.852  26.643  0.00  0.00     0.047 C 
HETATM   18  C   UNK     0       6.800  25.547  28.970  0.00  0.00     0.154 C 
HETATM   19  C   UNK     0       7.469  26.567  25.304  0.00  0.00     0.147 C 
HETATM   20  C   UNK     0       7.454  28.084  25.492  0.00  0.00     0.147 C 
HETATM   21  O   UNK     0       6.290  24.449  29.185  0.00  0.00    -0.293 OA
HETATM   22  C   UNK     0       7.720  26.132  29.971  0.00  0.00     0.057 C 
BRANCH   5  23
HETATM   23  C   UNK     0      10.154  30.737  33.100  0.00  0.00     0.084 C 
HETATM   24  C   UNK     0       9.540  30.233  34.417  0.00  0.00     0.049 C 
BRANCH  23  25
HETATM   25  O   UNK     0      11.478  31.201  33.395  0.00  0.00    -0.387 OA
HETATM   26  H   UNK     0      12.098  30.805  32.761  0.00  0.00     0.210 HD
ENDBRANCH  23  25
BRANCH  23  27
HETATM   27  C   UNK     0       9.337  31.932  32.536  0.00  0.00     0.152 C 
BRANCH  27  28
HETATM   28  O   UNK     0      10.232  32.943  32.060  0.00  0.00    -0.393 OA
HETATM   29  H   UNK     0      10.432  32.739  31.130  0.00  0.00     0.210 HD
ENDBRANCH  27  28
BRANCH  27  30
HETATM   30  C   UNK     0       8.375  32.576  33.552  0.00  0.00     0.037 C 
BRANCH  30  31
HETATM   31  C   UNK     0       8.608  34.093  33.687  0.00  0.00     0.040 C 
BRANCH  31  32
HETATM   32  C   UNK     0       9.308  34.518  34.995  0.00  0.00     0.051 C 
HETATM   33  C   UNK     0       9.377  36.048  35.064  0.00  0.00     0.045 C 
HETATM   34  C   UNK     0       8.607  33.972  36.240  0.00  0.00     0.045 C 
BRANCH  32  35
HETATM   35  O   UNK     0      10.646  34.019  34.972  0.00  0.00    -0.391 OA
HETATM   36  H   UNK     0      10.808  33.559  35.813  0.00  0.00     0.210 HD
ENDBRANCH  32  35
ENDBRANCH  31  32
ENDBRANCH  30  31
ENDBRANCH  27  30
ENDBRANCH  23  27
ENDBRANCH   5  23
BRANCH  19  37
HETATM   37  O   UNK     0       6.237  26.153  24.710  0.00  0.00    -0.393 OA
HETATM   38  H   UNK     0       6.407  25.988  23.767  0.00  0.00     0.210 HD
ENDBRANCH  19  37
BRANCH  20  39
HETATM   39  O   UNK     0       7.197  28.705  24.235  0.00  0.00    -0.393 OA
HETATM   40  H   UNK     0       6.782  29.566  24.413  0.00  0.00     0.210 HD
ENDBRANCH  20  39
ENDBRANCH   1   3
TORSDOF 11
ENDMDL
MODEL 5
REMARK VINA RESULT:      -6.8     34.557     38.795
REMARK  11 active torsions:
REMARK  status: ('A' for Active; 'I' for Inactive)
REMARK    1  A    between atoms: O_1  and  C_9 
REMARK    2  A    between atoms: O_2  and  C_19 
REMARK    3  A    between atoms: O_3  and  C_26 
REMARK    4  A    between atoms: O_4  and  C_27 
REMARK    5  A    between atoms: O_6  and  C_28 
REMARK    6  A    between atoms: O_7  and  C_32 
REMARK    7  A    between atoms: C_10  and  C_19 
REMARK    8  A    between atoms: C_19  and  C_27 
REMARK    9  A    between atoms: C_27  and  C_30 
REMARK   10  A    between atoms: C_30  and  C_31 
REMARK   11  A    between atoms: C_31  and  C_32 
ROOT
HETATM    1  O   UNK     0      12.541  19.624   3.381  0.00  0.00    -0.384 OA
HETATM    2  H   UNK     0      13.487  19.504   3.572  0.00  0.00     0.211 HD
ENDROOT
BRANCH   1   3
HETATM    3  C   UNK     0      12.412  19.965   1.982  0.00  0.00     0.089 C 
HETATM    4  C   UNK     0      13.773  19.744   1.272  0.00  0.00    -0.002 C 
HETATM    5  C   UNK     0      14.649  20.803   1.989  0.00  0.00     0.034 C 
HETATM    6  C   UNK     0      14.224  18.293   1.516  0.00  0.00     0.014 C 
HETATM    7  C   UNK     0      13.710  20.022  -0.255  0.00  0.00     0.019 C 
HETATM    8  C   UNK     0      13.708  22.022   2.133  0.00  0.00     0.012 C 
HETATM    9  C   UNK     0      12.269  21.494   1.943  0.00  0.00     0.044 C 
HETATM   10  C   UNK     0      13.185  17.295   0.979  0.00  0.00     0.011 C 
HETATM   11  C   UNK     0      11.716  17.556   1.435  0.00  0.00     0.027 C 
HETATM   12  C   UNK     0      10.677  16.652   0.663  0.00  0.00    -0.023 C 
HETATM   13  C   UNK     0      11.340  19.046   1.436  0.00  0.00    -0.037 C 
HETATM   14  C   UNK     0       9.227  17.091   1.011  0.00  0.00     0.071 C 
HETATM   15  C   UNK     0      10.839  15.150   1.034  0.00  0.00     0.044 C 
HETATM   16  C   UNK     0      10.857  16.760  -0.875  0.00  0.00     0.016 C 
HETATM   17  C   UNK     0       8.813  16.760   2.455  0.00  0.00     0.047 C 
HETATM   18  C   UNK     0       9.027  18.573   0.755  0.00  0.00     0.154 C 
HETATM   19  C   UNK     0       8.993  15.275   2.768  0.00  0.00     0.147 C 
HETATM   20  C   UNK     0      10.423  14.823   2.473  0.00  0.00     0.147 C 
HETATM   21  O   UNK     0       7.954  19.021   0.354  0.00  0.00    -0.293 OA
HETATM   22  C   UNK     0      10.131  19.505   1.078  0.00  0.00     0.057 C 
BRANCH   5  23
HETATM   23  C   UNK     0      15.973  21.155   1.323  0.00  0.00     0.084 C 
HETATM   24  C   UNK     0      16.848  21.963   2.297  0.00  0.00     0.049 C 
BRANCH  23  25
HETATM   25  O   UNK     0      16.671  19.937   1.031  0.00  0.00    -0.387 OA
HETATM   26  H   UNK     0      17.600  20.145   0.836  0.00  0.00     0.210 HD
ENDBRANCH  23  25
BRANCH  23  27
HETATM   27  C   UNK     0      15.774  21.930  -0.008  0.00  0.00     0.152 C 
BRANCH  27  28
HETATM   28  O   UNK     0      16.651  21.400  -1.007  0.00  0.00    -0.393 OA
HETATM   29  H   UNK     0      17.465  21.114  -0.557  0.00  0.00     0.210 HD
ENDBRANCH  27  28
BRANCH  27  30
HETATM   30  C   UNK     0      16.023  23.447   0.101  0.00  0.00     0.037 C 
BRANCH  30  31
HETATM   31  C   UNK     0      15.197  24.242  -0.928  0.00  0.00     0.040 C 
BRANCH  31  32
HETATM   32  C   UNK     0      14.026  25.046  -0.324  0.00  0.00     0.051 C 
HETATM   33  C   UNK     0      14.009  26.456  -0.924  0.00  0.00     0.045 C 
HETATM   34  C   UNK     0      12.672  24.368  -0.548  0.00  0.00     0.045 C 
BRANCH  32  35
HETATM   35  O   UNK     0      14.244  25.170   1.082  0.00  0.00    -0.391 OA
HETATM   36  H   UNK     0      14.209  24.279   1.470  0.00  0.00     0.210 HD
ENDBRANCH  32  35
ENDBRANCH  31  32
ENDBRANCH  30  31
ENDBRANCH  27  30
ENDBRANCH  23  27
ENDBRANCH   5  23
BRANCH  19  37
HETATM   37  O   UNK     0       8.084  14.515   1.970  0.00  0.00    -0.393 OA
HETATM   38  H   UNK     0       7.208  14.929   2.049  0.00  0.00     0.210 HD
ENDBRANCH  19  37
BRANCH  20  39
HETATM   39  O   UNK     0      10.520  13.418   2.691  0.00  0.00    -0.393 OA
HETATM   40  H   UNK     0       9.998  12.978   1.999  0.00  0.00     0.210 HD
ENDBRANCH  20  39
ENDBRANCH   1   3
TORSDOF 11
ENDMDL
MODEL 6
REMARK VINA RESULT:      -6.7     35.020     38.520
REMARK  11 active torsions:
REMARK  status: ('A' for Active; 'I' for Inactive)
REMARK    1  A    between atoms: O_1  and  C_9 
REMARK    2  A    between atoms: O_2  and  C_19 
REMARK    3  A    between atoms: O_3  and  C_26 
REMARK    4  A    between atoms: O_4  and  C_27 
REMARK    5  A    between atoms: O_6  and  C_28 
REMARK    6  A    between atoms: O_7  and  C_32 
REMARK    7  A    between atoms: C_10  and  C_19 
REMARK    8  A    between atoms: C_19  and  C_27 
REMARK    9  A    between atoms: C_27  and  C_30 
REMARK   10  A    between atoms: C_30  and  C_31 
REMARK   11  A    between atoms: C_31  and  C_32 
ROOT
HETATM    1  O   UNK     0      13.139  18.148  -1.115  0.00  0.00    -0.384 OA
HETATM    2  H   UNK     0      12.888  17.230  -1.315  0.00  0.00     0.211 HD
ENDROOT
BRANCH   1   3
HETATM    3  C   UNK     0      12.074  18.739  -0.335  0.00  0.00     0.089 C 
HETATM    4  C   UNK     0      11.819  17.873   0.926  0.00  0.00    -0.002 C 
HETATM    5  C   UNK     0      11.323  16.556   0.277  0.00  0.00     0.034 C 
HETATM    6  C   UNK     0      13.144  17.728   1.697  0.00  0.00     0.014 C 
HETATM    7  C   UNK     0      10.734  18.472   1.861  0.00  0.00     0.019 C 
HETATM    8  C   UNK     0      10.423  17.034  -0.885  0.00  0.00     0.012 C 
HETATM    9  C   UNK     0      10.792  18.511  -1.150  0.00  0.00     0.044 C 
HETATM   10  C   UNK     0      13.696  19.102   2.108  0.00  0.00     0.011 C 
HETATM   11  C   UNK     0      13.777  20.156   0.960  0.00  0.00     0.027 C 
HETATM   12  C   UNK     0      14.120  21.602   1.494  0.00  0.00    -0.023 C 
HETATM   13  C   UNK     0      12.556  20.127   0.027  0.00  0.00    -0.037 C 
HETATM   14  C   UNK     0      13.992  22.639   0.343  0.00  0.00     0.071 C 
HETATM   15  C   UNK     0      15.565  21.674   2.064  0.00  0.00     0.044 C 
HETATM   16  C   UNK     0      13.161  22.031   2.637  0.00  0.00     0.016 C 
HETATM   17  C   UNK     0      15.089  22.507  -0.728  0.00  0.00     0.047 C 
HETATM   18  C   UNK     0      12.629  22.559  -0.318  0.00  0.00     0.154 C 
HETATM   19  C   UNK     0      16.487  22.583  -0.117  0.00  0.00     0.147 C 
HETATM   20  C   UNK     0      16.655  21.545   0.994  0.00  0.00     0.147 C 
HETATM   21  O   UNK     0      12.063  23.559  -0.755  0.00  0.00    -0.293 OA
HETATM   22  C   UNK     0      12.010  21.228  -0.511  0.00  0.00     0.057 C 
BRANCH   5  23
HETATM   23  C   UNK     0      10.621  15.565   1.198  0.00  0.00     0.084 C 
HETATM   24  C   UNK     0       9.173  16.019   1.444  0.00  0.00     0.049 C 
BRANCH  23  25
HETATM   25  O   UNK     0      10.565  14.294   0.538  0.00  0.00    -0.387 OA
HETATM   26  H   UNK     0      10.994  13.628   1.100  0.00  0.00     0.210 HD
ENDBRANCH  23  25
BRANCH  23  27
HETATM   27  C   UNK     0      11.374  15.379   2.544  0.00  0.00     0.152 C 
BRANCH  27  28
HETATM   28  O   UNK     0      12.486  14.498   2.353  0.00  0.00    -0.393 OA
HETATM   29  H   UNK     0      12.217  13.829   1.698  0.00  0.00     0.210 HD
ENDBRANCH  27  28
BRANCH  27  30
HETATM   30  C   UNK     0      10.503  14.820   3.684  0.00  0.00     0.037 C 
BRANCH  30  31
HETATM   31  C   UNK     0      10.882  13.372   4.044  0.00  0.00     0.040 C 
BRANCH  31  32
HETATM   32  C   UNK     0      10.015  12.294   3.359  0.00  0.00     0.051 C 
HETATM   33  C   UNK     0      10.012  11.021   4.212  0.00  0.00     0.045 C 
HETATM   34  C   UNK     0       8.579  12.763   3.116  0.00  0.00     0.045 C 
BRANCH  32  35
HETATM   35  O   UNK     0      10.608  11.976   2.098  0.00  0.00    -0.391 OA
HETATM   36  H   UNK     0      10.490  12.742   1.511  0.00  0.00     0.210 HD
ENDBRANCH  32  35
ENDBRANCH  31  32
ENDBRANCH  30  31
ENDBRANCH  27  30
ENDBRANCH  23  27
ENDBRANCH   5  23
BRANCH  19  37
HETATM   37  O   UNK     0      16.693  23.889   0.424  0.00  0.00    -0.393 OA
HETATM   38  H   UNK     0      17.421  24.301  -0.072  0.00  0.00     0.210 HD
ENDBRANCH  19  37
BRANCH  20  39
HETATM   39  O   UNK     0      17.937  21.712   1.595  0.00  0.00    -0.393 OA
HETATM   40  H   UNK     0      18.258  20.830   1.850  0.00  0.00     0.210 HD
ENDBRANCH  20  39
ENDBRANCH   1   3
TORSDOF 11
ENDMDL
MODEL 7
REMARK VINA RESULT:      -6.5     30.116     32.979
REMARK  11 active torsions:
REMARK  status: ('A' for Active; 'I' for Inactive)
REMARK    1  A    between atoms: O_1  and  C_9 
REMARK    2  A    between atoms: O_2  and  C_19 
REMARK    3  A    between atoms: O_3  and  C_26 
REMARK    4  A    between atoms: O_4  and  C_27 
REMARK    5  A    between atoms: O_6  and  C_28 
REMARK    6  A    between atoms: O_7  and  C_32 
REMARK    7  A    between atoms: C_10  and  C_19 
REMARK    8  A    between atoms: C_19  and  C_27 
REMARK    9  A    between atoms: C_27  and  C_30 
REMARK   10  A    between atoms: C_30  and  C_31 
REMARK   11  A    between atoms: C_31  and  C_32 
ROOT
HETATM    1  O   UNK     0      34.467  13.587   3.122  0.00  0.00    -0.384 OA
HETATM    2  H   UNK     0      35.021  12.797   3.250  0.00  0.00     0.211 HD
ENDROOT
BRANCH   1   3
HETATM    3  C   UNK     0      34.209  13.721   1.706  0.00  0.00     0.089 C 
HETATM    4  C   UNK     0      34.654  12.427   0.976  0.00  0.00    -0.002 C 
HETATM    5  C   UNK     0      36.182  12.460   1.234  0.00  0.00     0.034 C 
HETATM    6  C   UNK     0      33.938  11.228   1.626  0.00  0.00     0.014 C 
HETATM    7  C   UNK     0      34.349  12.455  -0.546  0.00  0.00     0.019 C 
HETATM    8  C   UNK     0      36.549  13.953   1.072  0.00  0.00     0.012 C 
HETATM    9  C   UNK     0      35.231  14.749   1.196  0.00  0.00     0.044 C 
HETATM   10  C   UNK     0      32.411  11.382   1.534  0.00  0.00     0.011 C 
HETATM   11  C   UNK     0      31.853  12.755   2.021  0.00  0.00     0.027 C 
HETATM   12  C   UNK     0      30.322  12.937   1.679  0.00  0.00    -0.023 C 
HETATM   13  C   UNK     0      32.717  13.948   1.583  0.00  0.00    -0.037 C 
HETATM   14  C   UNK     0      29.871  14.389   2.004  0.00  0.00     0.071 C 
HETATM   15  C   UNK     0      29.433  11.951   2.490  0.00  0.00     0.044 C 
HETATM   16  C   UNK     0      30.037  12.670   0.175  0.00  0.00     0.016 C 
HETATM   17  C   UNK     0      29.822  14.694   3.511  0.00  0.00     0.047 C 
HETATM   18  C   UNK     0      30.758  15.405   1.311  0.00  0.00     0.154 C 
HETATM   19  C   UNK     0      28.939  13.698   4.261  0.00  0.00     0.147 C 
HETATM   20  C   UNK     0      29.384  12.260   3.990  0.00  0.00     0.147 C 
HETATM   21  O   UNK     0      30.312  16.473   0.891  0.00  0.00    -0.293 OA
HETATM   22  C   UNK     0      32.210  15.134   1.215  0.00  0.00     0.057 C 
BRANCH   5  23
HETATM   23  C   UNK     0      37.038  11.544   0.369  0.00  0.00     0.084 C 
HETATM   24  C   UNK     0      36.386  11.372  -1.013  0.00  0.00     0.049 C 
BRANCH  23  25
HETATM   25  O   UNK     0      38.311  12.171   0.166  0.00  0.00    -0.387 OA
HETATM   26  H   UNK     0      38.222  13.124   0.332  0.00  0.00     0.210 HD
ENDBRANCH  23  25
BRANCH  23  27
HETATM   27  C   UNK     0      37.280  10.163   1.037  0.00  0.00     0.152 C 
BRANCH  27  28
HETATM   28  O   UNK     0      38.685   9.952   1.208  0.00  0.00    -0.393 OA
HETATM   29  H   UNK     0      38.806   9.039   1.522  0.00  0.00     0.210 HD
ENDBRANCH  27  28
BRANCH  27  30
HETATM   30  C   UNK     0      36.704   8.970   0.249  0.00  0.00     0.037 C 
BRANCH  30  31
HETATM   31  C   UNK     0      36.041   7.933   1.175  0.00  0.00     0.040 C 
BRANCH  31  32
HETATM   32  C   UNK     0      34.740   7.317   0.619  0.00  0.00     0.051 C 
HETATM   33  C   UNK     0      34.162   8.234  -0.465  0.00  0.00     0.045 C 
HETATM   34  C   UNK     0      34.952   5.912   0.053  0.00  0.00     0.045 C 
BRANCH  32  35
HETATM   35  O   UNK     0      33.788   7.240   1.682  0.00  0.00    -0.391 OA
HETATM   36  H   UNK     0      33.116   7.925   1.531  0.00  0.00     0.210 HD
ENDBRANCH  32  35
ENDBRANCH  31  32
ENDBRANCH  30  31
ENDBRANCH  27  30
ENDBRANCH  23  27
ENDBRANCH   5  23
BRANCH  19  37
HETATM   37  O   UNK     0      27.585  13.860   3.836  0.00  0.00    -0.393 OA
HETATM   38  H   UNK     0      27.036  13.260   4.368  0.00  0.00     0.210 HD
ENDBRANCH  19  37
BRANCH  20  39
HETATM   39  O   UNK     0      28.480  11.366   4.634  0.00  0.00    -0.393 OA
HETATM   40  H   UNK     0      28.758  10.460   4.413  0.00  0.00     0.210 HD
ENDBRANCH  20  39
ENDBRANCH   1   3
TORSDOF 11
ENDMDL
MODEL 8
REMARK VINA RESULT:      -6.5     35.871     38.816
REMARK  11 active torsions:
REMARK  status: ('A' for Active; 'I' for Inactive)
REMARK    1  A    between atoms: O_1  and  C_9 
REMARK    2  A    between atoms: O_2  and  C_19 
REMARK    3  A    between atoms: O_3  and  C_26 
REMARK    4  A    between atoms: O_4  and  C_27 
REMARK    5  A    between atoms: O_6  and  C_28 
REMARK    6  A    between atoms: O_7  and  C_32 
REMARK    7  A    between atoms: C_10  and  C_19 
REMARK    8  A    between atoms: C_19  and  C_27 
REMARK    9  A    between atoms: C_27  and  C_30 
REMARK   10  A    between atoms: C_30  and  C_31 
REMARK   11  A    between atoms: C_31  and  C_32 
ROOT
HETATM    1  O   UNK     0      12.494  16.715   3.109  0.00  0.00    -0.384 OA
HETATM    2  H   UNK     0      12.699  17.637   3.345  0.00  0.00     0.211 HD
ENDROOT
BRANCH   1   3
HETATM    3  C   UNK     0      11.694  16.735   1.905  0.00  0.00     0.089 C 
HETATM    4  C   UNK     0      10.222  16.399   2.260  0.00  0.00    -0.002 C 
HETATM    5  C   UNK     0      10.372  14.941   2.764  0.00  0.00     0.034 C 
HETATM    6  C   UNK     0       9.741  17.385   3.340  0.00  0.00     0.014 C 
HETATM    7  C   UNK     0       9.273  16.465   1.032  0.00  0.00     0.019 C 
HETATM    8  C   UNK     0      11.400  14.319   1.792  0.00  0.00     0.012 C 
HETATM    9  C   UNK     0      12.125  15.497   1.104  0.00  0.00     0.044 C 
HETATM   10  C   UNK     0       9.841  18.837   2.844  0.00  0.00     0.011 C 
HETATM   11  C   UNK     0      11.220  19.235   2.233  0.00  0.00     0.027 C 
HETATM   12  C   UNK     0      11.181  20.649   1.530  0.00  0.00    -0.023 C 
HETATM   13  C   UNK     0      11.829  18.136   1.349  0.00  0.00    -0.037 C 
HETATM   14  C   UNK     0      12.514  20.905   0.772  0.00  0.00     0.071 C 
HETATM   15  C   UNK     0      10.972  21.795   2.561  0.00  0.00     0.044 C 
HETATM   16  C   UNK     0      10.018  20.745   0.505  0.00  0.00     0.016 C 
HETATM   17  C   UNK     0      13.717  21.129   1.704  0.00  0.00     0.047 C 
HETATM   18  C   UNK     0      12.823  19.774  -0.190  0.00  0.00     0.154 C 
HETATM   19  C   UNK     0      13.461  22.262   2.697  0.00  0.00     0.147 C 
HETATM   20  C   UNK     0      12.174  22.017   3.485  0.00  0.00     0.147 C 
HETATM   21  O   UNK     0      13.382  19.976  -1.266  0.00  0.00    -0.293 OA
HETATM   22  C   UNK     0      12.514  18.386   0.222  0.00  0.00     0.057 C 
BRANCH   5  23
HETATM   23  C   UNK     0       9.091  14.122   2.871  0.00  0.00     0.084 C 
HETATM   24  C   UNK     0       7.885  14.986   2.466  0.00  0.00     0.049 C 
BRANCH  23  25
HETATM   25  O   UNK     0       9.169  13.034   1.940  0.00  0.00    -0.387 OA
HETATM   26  H   UNK     0      10.104  12.849   1.751  0.00  0.00     0.210 HD
ENDBRANCH  23  25
BRANCH  23  27
HETATM   27  C   UNK     0       8.889  13.530   4.292  0.00  0.00     0.152 C 
BRANCH  27  28
HETATM   28  O   UNK     0       9.921  14.008   5.162  0.00  0.00    -0.393 OA
HETATM   29  H   UNK     0       9.543  14.733   5.690  0.00  0.00     0.210 HD
ENDBRANCH  27  28
BRANCH  27  30
HETATM   30  C   UNK     0       8.888  11.990   4.342  0.00  0.00     0.037 C 
BRANCH  30  31
HETATM   31  C   UNK     0      10.116  11.436   5.089  0.00  0.00     0.040 C 
BRANCH  31  32
HETATM   32  C   UNK     0      11.225  10.879   4.172  0.00  0.00     0.051 C 
HETATM   33  C   UNK     0      12.473  11.762   4.284  0.00  0.00     0.045 C 
HETATM   34  C   UNK     0      11.583   9.428   4.499  0.00  0.00     0.045 C 
BRANCH  32  35
HETATM   35  O   UNK     0      10.764  10.940   2.821  0.00  0.00    -0.391 OA
HETATM   36  H   UNK     0      11.000  10.102   2.387  0.00  0.00     0.210 HD
ENDBRANCH  32  35
ENDBRANCH  31  32
ENDBRANCH  30  31
ENDBRANCH  27  30
ENDBRANCH  23  27
ENDBRANCH   5  23
BRANCH  19  37
HETATM   37  O   UNK     0      13.348  23.494   1.982  0.00  0.00    -0.393 OA
HETATM   38  H   UNK     0      13.245  23.279   1.040  0.00  0.00     0.210 HD
ENDBRANCH  19  37
BRANCH  20  39
HETATM   39  O   UNK     0      11.928  23.138   4.330  0.00  0.00    -0.393 OA
HETATM   40  H   UNK     0      11.590  22.798   5.177  0.00  0.00     0.210 HD
ENDBRANCH  20  39
ENDBRANCH   1   3
TORSDOF 11
ENDMDL
MODEL 9
REMARK VINA RESULT:      -6.3     31.347     33.988
REMARK  11 active torsions:
REMARK  status: ('A' for Active; 'I' for Inactive)
REMARK    1  A    between atoms: O_1  and  C_9 
REMARK    2  A    between atoms: O_2  and  C_19 
REMARK    3  A    between atoms: O_3  and  C_26 
REMARK    4  A    between atoms: O_4  and  C_27 
REMARK    5  A    between atoms: O_6  and  C_28 
REMARK    6  A    between atoms: O_7  and  C_32 
REMARK    7  A    between atoms: C_10  and  C_19 
REMARK    8  A    between atoms: C_19  and  C_27 
REMARK    9  A    between atoms: C_27  and  C_30 
REMARK   10  A    between atoms: C_30  and  C_31 
REMARK   11  A    between atoms: C_31  and  C_32 
ROOT
HETATM    1  O   UNK     0      32.123  10.815   2.322  0.00  0.00    -0.384 OA
HETATM    2  H   UNK     0      32.791  10.726   3.023  0.00  0.00     0.211 HD
ENDROOT
BRANCH   1   3
HETATM    3  C   UNK     0      32.680  11.654   1.284  0.00  0.00     0.089 C 
HETATM    4  C   UNK     0      32.904  10.808   0.004  0.00  0.00    -0.002 C 
HETATM    5  C   UNK     0      33.979   9.808   0.501  0.00  0.00     0.034 C 
HETATM    6  C   UNK     0      31.569  10.146  -0.385  0.00  0.00     0.014 C 
HETATM    7  C   UNK     0      33.438  11.646  -1.189  0.00  0.00     0.019 C 
HETATM    8  C   UNK     0      34.909  10.676   1.380  0.00  0.00     0.012 C 
HETATM    9  C   UNK     0      34.119  11.957   1.729  0.00  0.00     0.044 C 
HETATM   10  C   UNK     0      30.483  11.203  -0.640  0.00  0.00     0.011 C 
HETATM   11  C   UNK     0      30.322  12.273   0.485  0.00  0.00     0.027 C 
HETATM   12  C   UNK     0      29.368  13.456   0.057  0.00  0.00    -0.023 C 
HETATM   13  C   UNK     0      31.664  12.753   1.059  0.00  0.00    -0.037 C 
HETATM   14  C   UNK     0      29.402  14.582   1.128  0.00  0.00     0.071 C 
HETATM   15  C   UNK     0      27.897  12.976  -0.108  0.00  0.00     0.044 C 
HETATM   16  C   UNK     0      29.797  14.073  -1.302  0.00  0.00     0.016 C 
HETATM   17  C   UNK     0      28.724  14.190   2.453  0.00  0.00     0.047 C 
HETATM   18  C   UNK     0      30.823  15.035   1.402  0.00  0.00     0.154 C 
HETATM   19  C   UNK     0      27.285  13.725   2.237  0.00  0.00     0.147 C 
HETATM   20  C   UNK     0      27.226  12.589   1.214  0.00  0.00     0.147 C 
HETATM   21  O   UNK     0      31.087  16.207   1.670  0.00  0.00    -0.293 OA
HETATM   22  C   UNK     0      31.900  14.021   1.428  0.00  0.00     0.057 C 
BRANCH   5  23
HETATM   23  C   UNK     0      34.734   9.031  -0.570  0.00  0.00     0.084 C 
HETATM   24  C   UNK     0      33.972   9.107  -1.904  0.00  0.00     0.049 C 
BRANCH  23  25
HETATM   25  O   UNK     0      36.009   9.656  -0.769  0.00  0.00    -0.387 OA
HETATM   26  H   UNK     0      35.930  10.603  -0.568  0.00  0.00     0.210 HD
ENDBRANCH  23  25
BRANCH  23  27
HETATM   27  C   UNK     0      34.977   7.553  -0.161  0.00  0.00     0.152 C 
BRANCH  27  28
HETATM   28  O   UNK     0      34.109   6.698  -0.912  0.00  0.00    -0.393 OA
HETATM   29  H   UNK     0      34.598   6.410  -1.703  0.00  0.00     0.210 HD
ENDBRANCH  27  28
BRANCH  27  30
HETATM   30  C   UNK     0      34.761   7.267   1.338  0.00  0.00     0.037 C 
BRANCH  30  31
HETATM   31  C   UNK     0      35.975   6.565   1.973  0.00  0.00     0.040 C 
BRANCH  31  32
HETATM   32  C   UNK     0      36.373   7.106   3.362  0.00  0.00     0.051 C 
HETATM   33  C   UNK     0      35.792   6.198   4.452  0.00  0.00     0.045 C 
HETATM   34  C   UNK     0      37.888   7.224   3.535  0.00  0.00     0.045 C 
BRANCH  32  35
HETATM   35  O   UNK     0      35.796   8.404   3.521  0.00  0.00    -0.391 OA
HETATM   36  H   UNK     0      36.485   9.063   3.328  0.00  0.00     0.210 HD
ENDBRANCH  32  35
ENDBRANCH  31  32
ENDBRANCH  30  31
ENDBRANCH  27  30
ENDBRANCH  23  27
ENDBRANCH   5  23
BRANCH  19  37
HETATM   37  O   UNK     0      26.503  14.824   1.766  0.00  0.00    -0.393 OA
HETATM   38  H   UNK     0      26.510  15.506   2.458  0.00  0.00     0.210 HD
ENDBRANCH  19  37
BRANCH  20  39
HETATM   39  O   UNK     0      25.861  12.250   0.976  0.00  0.00    -0.393 OA
HETATM   40  H   UNK     0      25.518  11.835   1.786  0.00  0.00     0.210 HD
ENDBRANCH  20  39
ENDBRANCH   1   3
TORSDOF 11
ENDMDL
