MODEL 1
REMARK VINA RESULT:      -8.5      0.000      0.000
REMARK  6 active torsions:
REMARK  status: ('A' for Active; 'I' for Inactive)
REMARK    1  A    between atoms: O_2  and  C_9 
REMARK    2  A    between atoms: O_4  and  C_14 
REMARK    3  A    between atoms: O_5  and  C_19 
REMARK    4  A    between atoms: O_6  and  C_20 
REMARK    5  A    between atoms: O_7  and  C_22 
REMARK    6  A    between atoms: C_8  and  C_10 
ROOT
HETATM    1  O   UNK     0      72.562  36.598  31.884  0.00  0.00    -0.337 OA
HETATM    2  O   UNK     0      70.723  34.918  28.622  0.00  0.00    -0.289 OA
HETATM    3  C   UNK     0      72.965  36.933  30.547  0.00  0.00     0.198 C 
HETATM    4  C   UNK     0      71.783  36.864  29.579  0.00  0.00     0.227 C 
HETATM    5  C   UNK     0      71.214  35.462  29.604  0.00  0.00     0.196 C 
HETATM    6  C   UNK     0      71.251  34.784  30.915  0.00  0.00     0.079 A 
HETATM    7  C   UNK     0      71.908  35.399  31.982  0.00  0.00     0.089 A 
HETATM    8  C   UNK     0      70.609  33.555  31.093  0.00  0.00     0.085 A 
HETATM    9  C   UNK     0      71.894  34.797  33.242  0.00  0.00     0.074 A 
HETATM   10  C   UNK     0      70.615  32.951  32.350  0.00  0.00     0.074 A 
HETATM   11  C   UNK     0      71.251  33.572  33.424  0.00  0.00     0.071 A 
ENDROOT
BRANCH   3  12
HETATM   12  C   UNK     0      73.573  38.322  30.595  0.00  0.00    -0.023 A 
HETATM   13  C   UNK     0      74.699  38.613  29.829  0.00  0.00     0.049 A 
HETATM   14  C   UNK     0      75.260  39.890  29.873  0.00  0.00     0.099 A 
HETATM   15  C   UNK     0      74.692  40.872  30.684  0.00  0.00     0.098 A 
HETATM   16  C   UNK     0      73.563  40.579  31.450  0.00  0.00     0.040 A 
HETATM   17  C   UNK     0      73.004  39.302  31.406  0.00  0.00     0.013 A 
BRANCH  14  18
HETATM   18  O   UNK     0      76.360  40.166  29.121  0.00  0.00    -0.358 OA
HETATM   19  H   UNK     0      77.145  39.845  29.598  0.00  0.00     0.217 HD
ENDBRANCH  14  18
BRANCH  15  20
HETATM   20  O   UNK     0      75.228  42.124  30.735  0.00  0.00    -0.358 OA
HETATM   21  H   UNK     0      75.757  42.274  29.933  0.00  0.00     0.217 HD
ENDBRANCH  15  20
ENDBRANCH   3  12
BRANCH   4  22
HETATM   22  O   UNK     0      72.217  37.140  28.258  0.00  0.00    -0.385 OA
HETATM   23  H   UNK     0      73.171  36.960  28.218  0.00  0.00     0.210 HD
ENDBRANCH   4  22
BRANCH   8  24
HETATM   24  O   UNK     0      69.956  32.912  30.085  0.00  0.00    -0.360 OA
HETATM   25  H   UNK     0      69.106  33.338  29.901  0.00  0.00     0.217 HD
ENDBRANCH   8  24
BRANCH  11  26
HETATM   26  O   UNK     0      71.247  32.982  34.651  0.00  0.00    -0.361 OA
HETATM   27  H   UNK     0      71.622  32.088  34.572  0.00  0.00     0.217 HD
ENDBRANCH  11  26
TORSDOF 6
ENDMDL
MODEL 2
REMARK VINA RESULT:      -8.4     20.428     25.254
REMARK  6 active torsions:
REMARK  status: ('A' for Active; 'I' for Inactive)
REMARK    1  A    between atoms: O_2  and  C_9 
REMARK    2  A    between atoms: O_4  and  C_14 
REMARK    3  A    between atoms: O_5  and  C_19 
REMARK    4  A    between atoms: O_6  and  C_20 
REMARK    5  A    between atoms: O_7  and  C_22 
REMARK    6  A    between atoms: C_8  and  C_10 
ROOT
HETATM    1  O   UNK     0      58.025  17.930  26.693  0.00  0.00    -0.337 OA
HETATM    2  O   UNK     0      58.248  20.313  30.027  0.00  0.00    -0.289 OA
HETATM    3  C   UNK     0      57.917  17.376  28.014  0.00  0.00     0.198 C 
HETATM    4  C   UNK     0      57.271  18.369  28.981  0.00  0.00     0.227 C 
HETATM    5  C   UNK     0      58.113  19.626  29.021  0.00  0.00     0.196 C 
HETATM    6  C   UNK     0      58.750  20.007  27.745  0.00  0.00     0.079 A 
HETATM    7  C   UNK     0      58.655  19.145  26.651  0.00  0.00     0.089 A 
HETATM    8  C   UNK     0      59.414  21.231  27.625  0.00  0.00     0.085 A 
HETATM    9  C   UNK     0      59.197  19.524  25.422  0.00  0.00     0.074 A 
HETATM   10  C   UNK     0      59.971  21.595  26.399  0.00  0.00     0.074 A 
HETATM   11  C   UNK     0      59.858  20.747  25.298  0.00  0.00     0.071 A 
ENDROOT
BRANCH   3  12
HETATM   12  C   UNK     0      57.110  16.096  27.900  0.00  0.00    -0.023 A 
HETATM   13  C   UNK     0      57.482  14.974  28.638  0.00  0.00     0.049 A 
HETATM   14  C   UNK     0      56.740  13.797  28.534  0.00  0.00     0.099 A 
HETATM   15  C   UNK     0      55.631  13.744  27.691  0.00  0.00     0.098 A 
HETATM   16  C   UNK     0      55.260  14.869  26.953  0.00  0.00     0.040 A 
HETATM   17  C   UNK     0      56.002  16.046  27.058  0.00  0.00     0.013 A 
BRANCH  14  18
HETATM   18  O   UNK     0      57.110  12.705  29.259  0.00  0.00    -0.358 OA
HETATM   19  H   UNK     0      56.785  12.818  30.169  0.00  0.00     0.217 HD
ENDBRANCH  14  18
BRANCH  15  20
HETATM   20  O   UNK     0      54.898  12.600  27.581  0.00  0.00    -0.358 OA
HETATM   21  H   UNK     0      54.172  12.749  26.951  0.00  0.00     0.217 HD
ENDBRANCH  15  20
ENDBRANCH   3  12
BRANCH   4  22
HETATM   22  O   UNK     0      57.230  17.823  30.288  0.00  0.00    -0.385 OA
HETATM   23  H   UNK     0      57.928  17.149  30.347  0.00  0.00     0.210 HD
ENDBRANCH   4  22
BRANCH   8  24
HETATM   24  O   UNK     0      59.539  22.107  28.661  0.00  0.00    -0.360 OA
HETATM   25  H   UNK     0      58.958  22.872  28.534  0.00  0.00     0.217 HD
ENDBRANCH   8  24
BRANCH  11  26
HETATM   26  O   UNK     0      60.395  21.110  24.101  0.00  0.00    -0.361 OA
HETATM   27  H   UNK     0      60.974  20.395  23.785  0.00  0.00     0.217 HD
ENDBRANCH  11  26
TORSDOF 6
ENDMDL
MODEL 3
REMARK VINA RESULT:      -8.3      2.908      6.599
REMARK  6 active torsions:
REMARK  status: ('A' for Active; 'I' for Inactive)
REMARK    1  A    between atoms: O_2  and  C_9 
REMARK    2  A    between atoms: O_4  and  C_14 
REMARK    3  A    between atoms: O_5  and  C_19 
REMARK    4  A    between atoms: O_6  and  C_20 
REMARK    5  A    between atoms: O_7  and  C_22 
REMARK    6  A    between atoms: C_8  and  C_10 
ROOT
HETATM    1  O   UNK     0      73.633  36.351  32.732  0.00  0.00    -0.337 OA
HETATM    2  O   UNK     0      74.913  35.297  28.978  0.00  0.00    -0.289 OA
HETATM    3  C   UNK     0      73.934  34.986  32.403  0.00  0.00     0.198 C 
HETATM    4  C   UNK     0      75.044  34.900  31.355  0.00  0.00     0.227 C 
HETATM    5  C   UNK     0      74.597  35.638  30.112  0.00  0.00     0.196 C 
HETATM    6  C   UNK     0      73.772  36.839  30.346  0.00  0.00     0.079 A 
HETATM    7  C   UNK     0      73.352  37.134  31.645  0.00  0.00     0.089 A 
HETATM    8  C   UNK     0      73.440  37.687  29.286  0.00  0.00     0.085 A 
HETATM    9  C   UNK     0      72.625  38.302  31.888  0.00  0.00     0.074 A 
HETATM   10  C   UNK     0      72.697  38.841  29.533  0.00  0.00     0.074 A 
HETATM   11  C   UNK     0      72.295  39.151  30.832  0.00  0.00     0.071 A 
ENDROOT
BRANCH   3  12
HETATM   12  C   UNK     0      74.323  34.288  33.693  0.00  0.00    -0.023 A 
HETATM   13  C   UNK     0      73.406  33.460  34.337  0.00  0.00     0.049 A 
HETATM   14  C   UNK     0      73.762  32.818  35.523  0.00  0.00     0.099 A 
HETATM   15  C   UNK     0      75.034  33.007  36.063  0.00  0.00     0.098 A 
HETATM   16  C   UNK     0      75.951  33.837  35.416  0.00  0.00     0.040 A 
HETATM   17  C   UNK     0      75.594  34.478  34.231  0.00  0.00     0.013 A 
BRANCH  14  18
HETATM   18  O   UNK     0      72.860  32.010  36.145  0.00  0.00    -0.358 OA
HETATM   19  H   UNK     0      73.330  31.226  36.479  0.00  0.00     0.217 HD
ENDBRANCH  14  18
BRANCH  15  20
HETATM   20  O   UNK     0      75.395  32.385  37.221  0.00  0.00    -0.358 OA
HETATM   21  H   UNK     0      76.348  32.190  37.191  0.00  0.00     0.217 HD
ENDBRANCH  15  20
ENDBRANCH   3  12
BRANCH   4  22
HETATM   22  O   UNK     0      75.282  33.547  31.004  0.00  0.00    -0.385 OA
HETATM   23  H   UNK     0      75.670  33.107  31.779  0.00  0.00     0.210 HD
ENDBRANCH   4  22
BRANCH   8  24
HETATM   24  O   UNK     0      73.821  37.443  28.001  0.00  0.00    -0.360 OA
HETATM   25  H   UNK     0      73.084  37.597  27.390  0.00  0.00     0.217 HD
ENDBRANCH   8  24
BRANCH  11  26
HETATM   26  O   UNK     0      71.578  40.284  31.070  0.00  0.00    -0.361 OA
HETATM   27  H   UNK     0      71.459  40.764  30.232  0.00  0.00     0.217 HD
ENDBRANCH  11  26
TORSDOF 6
ENDMDL
MODEL 4
REMARK VINA RESULT:      -8.2     21.883     24.100
REMARK  6 active torsions:
REMARK  status: ('A' for Active; 'I' for Inactive)
REMARK    1  A    between atoms: O_2  and  C_9 
REMARK    2  A    between atoms: O_4  and  C_14 
REMARK    3  A    between atoms: O_5  and  C_19 
REMARK    4  A    between atoms: O_6  and  C_20 
REMARK    5  A    between atoms: O_7  and  C_22 
REMARK    6  A    between atoms: C_8  and  C_10 
ROOT
HETATM    1  O   UNK     0      58.861  17.215  25.800  0.00  0.00    -0.337 OA
HETATM    2  O   UNK     0      60.254  16.614  29.614  0.00  0.00    -0.289 OA
HETATM    3  C   UNK     0      60.145  17.710  26.212  0.00  0.00     0.198 C 
HETATM    4  C   UNK     0      60.779  16.801  27.265  0.00  0.00     0.227 C 
HETATM    5  C   UNK     0      59.854  16.724  28.461  0.00  0.00     0.196 C 
HETATM    6  C   UNK     0      58.411  16.752  28.153  0.00  0.00     0.079 A 
HETATM    7  C   UNK     0      57.999  16.980  26.838  0.00  0.00     0.089 A 
HETATM    8  C   UNK     0      57.468  16.525  29.159  0.00  0.00     0.085 A 
HETATM    9  C   UNK     0      56.639  16.945  26.523  0.00  0.00     0.074 A 
HETATM   10  C   UNK     0      56.111  16.510  28.842  0.00  0.00     0.074 A 
HETATM   11  C   UNK     0      55.696  16.715  27.526  0.00  0.00     0.071 A 
ENDROOT
BRANCH   3  12
HETATM   12  C   UNK     0      61.005  17.815  24.967  0.00  0.00    -0.023 A 
HETATM   13  C   UNK     0      61.273  19.064  24.412  0.00  0.00     0.049 A 
HETATM   14  C   UNK     0      62.065  19.162  23.267  0.00  0.00     0.099 A 
HETATM   15  C   UNK     0      62.585  18.009  22.680  0.00  0.00     0.098 A 
HETATM   16  C   UNK     0      62.316  16.759  23.238  0.00  0.00     0.040 A 
HETATM   17  C   UNK     0      61.525  16.662  24.382  0.00  0.00     0.013 A 
BRANCH  14  18
HETATM   18  O   UNK     0      62.322  20.388  22.732  0.00  0.00    -0.358 OA
HETATM   19  H   UNK     0      61.785  20.489  21.928  0.00  0.00     0.217 HD
ENDBRANCH  14  18
BRANCH  15  20
HETATM   20  O   UNK     0      63.361  18.091  21.562  0.00  0.00    -0.358 OA
HETATM   21  H   UNK     0      64.160  17.552  21.692  0.00  0.00     0.217 HD
ENDBRANCH  15  20
ENDBRANCH   3  12
BRANCH   4  22
HETATM   22  O   UNK     0      62.015  17.342  27.698  0.00  0.00    -0.385 OA
HETATM   23  H   UNK     0      62.222  18.098  27.122  0.00  0.00     0.210 HD
ENDBRANCH   4  22
BRANCH   8  24
HETATM   24  O   UNK     0      57.816  16.301  30.458  0.00  0.00    -0.360 OA
HETATM   25  H   UNK     0      58.774  16.393  30.576  0.00  0.00     0.217 HD
ENDBRANCH   8  24
BRANCH  11  26
HETATM   26  O   UNK     0      54.370  16.691  27.219  0.00  0.00    -0.361 OA
HETATM   27  H   UNK     0      54.262  16.873  26.270  0.00  0.00     0.217 HD
ENDBRANCH  11  26
TORSDOF 6
ENDMDL
MODEL 5
REMARK VINA RESULT:      -8.1      2.575      4.206
REMARK  6 active torsions:
REMARK  status: ('A' for Active; 'I' for Inactive)
REMARK    1  A    between atoms: O_2  and  C_9 
REMARK    2  A    between atoms: O_4  and  C_14 
REMARK    3  A    between atoms: O_5  and  C_19 
REMARK    4  A    between atoms: O_6  and  C_20 
REMARK    5  A    between atoms: O_7  and  C_22 
REMARK    6  A    between atoms: C_8  and  C_10 
ROOT
HETATM    1  O   UNK     0      72.724  34.902  32.255  0.00  0.00    -0.337 OA
HETATM    2  O   UNK     0      76.149  34.517  34.482  0.00  0.00    -0.289 OA
HETATM    3  C   UNK     0      73.608  36.015  32.462  0.00  0.00     0.198 C 
HETATM    4  C   UNK     0      75.059  35.553  32.594  0.00  0.00     0.227 C 
HETATM    5  C   UNK     0      75.160  34.598  33.763  0.00  0.00     0.196 C 
HETATM    6  C   UNK     0      73.991  33.722  33.973  0.00  0.00     0.079 A 
HETATM    7  C   UNK     0      72.847  33.914  33.195  0.00  0.00     0.089 A 
HETATM    8  C   UNK     0      74.038  32.692  34.917  0.00  0.00     0.085 A 
HETATM    9  C   UNK     0      71.759  33.052  33.340  0.00  0.00     0.074 A 
HETATM   10  C   UNK     0      72.941  31.846  35.070  0.00  0.00     0.074 A 
HETATM   11  C   UNK     0      71.805  32.021  34.280  0.00  0.00     0.071 A 
ENDROOT
BRANCH   3  12
HETATM   12  C   UNK     0      73.423  36.959  31.289  0.00  0.00    -0.023 A 
HETATM   13  C   UNK     0      72.688  38.132  31.452  0.00  0.00     0.049 A 
HETATM   14  C   UNK     0      72.517  39.001  30.374  0.00  0.00     0.099 A 
HETATM   15  C   UNK     0      73.081  38.694  29.135  0.00  0.00     0.098 A 
HETATM   16  C   UNK     0      73.816  37.520  28.975  0.00  0.00     0.040 A 
HETATM   17  C   UNK     0      73.987  36.652  30.053  0.00  0.00     0.013 A 
BRANCH  14  18
HETATM   18  O   UNK     0      71.798  40.145  30.542  0.00  0.00    -0.358 OA
HETATM   19  H   UNK     0      70.871  39.902  30.710  0.00  0.00     0.217 HD
ENDBRANCH  14  18
BRANCH  15  20
HETATM   20  O   UNK     0      72.922  39.536  28.075  0.00  0.00    -0.358 OA
HETATM   21  H   UNK     0      73.674  40.152  28.045  0.00  0.00     0.217 HD
ENDBRANCH  15  20
ENDBRANCH   3  12
BRANCH   4  22
HETATM   22  O   UNK     0      75.903  36.662  32.857  0.00  0.00    -0.385 OA
HETATM   23  H   UNK     0      75.339  37.450  32.924  0.00  0.00     0.210 HD
ENDBRANCH   4  22
BRANCH   8  24
HETATM   24  O   UNK     0      75.128  32.463  35.703  0.00  0.00    -0.360 OA
HETATM   25  H   UNK     0      75.723  31.823  35.285  0.00  0.00     0.217 HD
ENDBRANCH   8  24
BRANCH  11  26
HETATM   26  O   UNK     0      70.739  31.187  34.426  0.00  0.00    -0.361 OA
HETATM   27  H   UNK     0      70.634  30.972  35.369  0.00  0.00     0.217 HD
ENDBRANCH  11  26
TORSDOF 6
ENDMDL
MODEL 6
REMARK VINA RESULT:      -8.0     22.105     24.469
REMARK  6 active torsions:
REMARK  status: ('A' for Active; 'I' for Inactive)
REMARK    1  A    between atoms: O_2  and  C_9 
REMARK    2  A    between atoms: O_4  and  C_14 
REMARK    3  A    between atoms: O_5  and  C_19 
REMARK    4  A    between atoms: O_6  and  C_20 
REMARK    5  A    between atoms: O_7  and  C_22 
REMARK    6  A    between atoms: C_8  and  C_10 
ROOT
HETATM    1  O   UNK     0      60.027  16.819  25.852  0.00  0.00    -0.337 OA
HETATM    2  O   UNK     0      60.196  20.707  24.548  0.00  0.00    -0.289 OA
HETATM    3  C   UNK     0      59.572  17.903  26.678  0.00  0.00     0.198 C 
HETATM    4  C   UNK     0      59.007  19.045  25.832  0.00  0.00     0.227 C 
HETATM    5  C   UNK     0      60.088  19.537  24.894  0.00  0.00     0.196 C 
HETATM    6  C   UNK     0      61.003  18.500  24.378  0.00  0.00     0.079 A 
HETATM    7  C   UNK     0      60.908  17.198  24.876  0.00  0.00     0.089 A 
HETATM    8  C   UNK     0      61.934  18.810  23.383  0.00  0.00     0.085 A 
HETATM    9  C   UNK     0      61.725  16.196  24.349  0.00  0.00     0.074 A 
HETATM   10  C   UNK     0      62.760  17.808  22.875  0.00  0.00     0.074 A 
HETATM   11  C   UNK     0      62.653  16.502  23.353  0.00  0.00     0.071 A 
ENDROOT
BRANCH   3  12
HETATM   12  C   UNK     0      58.533  17.339  27.628  0.00  0.00    -0.023 A 
HETATM   13  C   UNK     0      57.200  17.261  27.231  0.00  0.00     0.049 A 
HETATM   14  C   UNK     0      56.243  16.742  28.105  0.00  0.00     0.099 A 
HETATM   15  C   UNK     0      56.623  16.304  29.373  0.00  0.00     0.098 A 
HETATM   16  C   UNK     0      57.959  16.382  29.768  0.00  0.00     0.040 A 
HETATM   17  C   UNK     0      58.914  16.901  28.895  0.00  0.00     0.013 A 
BRANCH  14  18
HETATM   18  O   UNK     0      54.943  16.669  27.708  0.00  0.00    -0.358 OA
HETATM   19  H   UNK     0      54.812  17.291  26.972  0.00  0.00     0.217 HD
ENDBRANCH  14  18
BRANCH  15  20
HETATM   20  O   UNK     0      55.699  15.794  30.235  0.00  0.00    -0.358 OA
HETATM   21  H   UNK     0      55.461  14.895  29.948  0.00  0.00     0.217 HD
ENDBRANCH  15  20
ENDBRANCH   3  12
BRANCH   4  22
HETATM   22  O   UNK     0      58.620  20.125  26.665  0.00  0.00    -0.385 OA
HETATM   23  H   UNK     0      58.963  19.945  27.557  0.00  0.00     0.210 HD
ENDBRANCH   4  22
BRANCH   8  24
HETATM   24  O   UNK     0      62.070  20.063  22.866  0.00  0.00    -0.360 OA
HETATM   25  H   UNK     0      62.648  20.052  22.089  0.00  0.00     0.217 HD
ENDBRANCH   8  24
BRANCH  11  26
HETATM   26  O   UNK     0      63.456  15.525  22.849  0.00  0.00    -0.361 OA
HETATM   27  H   UNK     0      63.536  14.812  23.505  0.00  0.00     0.217 HD
ENDBRANCH  11  26
TORSDOF 6
ENDMDL
MODEL 7
REMARK VINA RESULT:      -8.0     20.032     24.361
REMARK  6 active torsions:
REMARK  status: ('A' for Active; 'I' for Inactive)
REMARK    1  A    between atoms: O_2  and  C_9 
REMARK    2  A    between atoms: O_4  and  C_14 
REMARK    3  A    between atoms: O_5  and  C_19 
REMARK    4  A    between atoms: O_6  and  C_20 
REMARK    5  A    between atoms: O_7  and  C_22 
REMARK    6  A    between atoms: C_8  and  C_10 
ROOT
HETATM    1  O   UNK     0      59.554  18.792  26.350  0.00  0.00    -0.337 OA
HETATM    2  O   UNK     0      61.814  16.272  24.029  0.00  0.00    -0.289 OA
HETATM    3  C   UNK     0      59.100  17.468  26.027  0.00  0.00     0.198 C 
HETATM    4  C   UNK     0      60.274  16.501  25.875  0.00  0.00     0.227 C 
HETATM    5  C   UNK     0      61.184  17.010  24.778  0.00  0.00     0.196 C 
HETATM    6  C   UNK     0      61.303  18.478  24.679  0.00  0.00     0.079 A 
HETATM    7  C   UNK     0      60.492  19.283  25.482  0.00  0.00     0.089 A 
HETATM    8  C   UNK     0      62.236  19.056  23.813  0.00  0.00     0.085 A 
HETATM    9  C   UNK     0      60.641  20.671  25.444  0.00  0.00     0.074 A 
HETATM   10  C   UNK     0      62.366  20.443  23.765  0.00  0.00     0.074 A 
HETATM   11  C   UNK     0      61.574  21.250  24.583  0.00  0.00     0.071 A 
ENDROOT
BRANCH   3  12
HETATM   12  C   UNK     0      58.155  17.036  27.132  0.00  0.00    -0.023 A 
HETATM   13  C   UNK     0      56.781  17.022  26.903  0.00  0.00     0.049 A 
HETATM   14  C   UNK     0      55.910  16.624  27.919  0.00  0.00     0.099 A 
HETATM   15  C   UNK     0      56.417  16.243  29.161  0.00  0.00     0.098 A 
HETATM   16  C   UNK     0      57.794  16.257  29.388  0.00  0.00     0.040 A 
HETATM   17  C   UNK     0      58.663  16.655  28.372  0.00  0.00     0.013 A 
BRANCH  14  18
HETATM   18  O   UNK     0      54.569  16.613  27.686  0.00  0.00    -0.358 OA
HETATM   19  H   UNK     0      54.392  17.141  26.888  0.00  0.00     0.217 HD
ENDBRANCH  14  18
BRANCH  15  20
HETATM   20  O   UNK     0      55.578  15.852  30.161  0.00  0.00    -0.358 OA
HETATM   21  H   UNK     0      54.659  16.016  29.885  0.00  0.00     0.217 HD
ENDBRANCH  15  20
ENDBRANCH   3  12
BRANCH   4  22
HETATM   22  O   UNK     0      59.805  15.217  25.498  0.00  0.00    -0.385 OA
HETATM   23  H   UNK     0      59.974  15.111  24.547  0.00  0.00     0.210 HD
ENDBRANCH   4  22
BRANCH   8  24
HETATM   24  O   UNK     0      63.048  18.317  23.006  0.00  0.00    -0.360 OA
HETATM   25  H   UNK     0      63.974  18.578  23.120  0.00  0.00     0.217 HD
ENDBRANCH   8  24
BRANCH  11  26
HETATM   26  O   UNK     0      61.710  22.603  24.539  0.00  0.00    -0.361 OA
HETATM   27  H   UNK     0      61.276  22.939  23.736  0.00  0.00     0.217 HD
ENDBRANCH  11  26
TORSDOF 6
ENDMDL
MODEL 8
REMARK VINA RESULT:      -8.0      2.604      6.426
REMARK  6 active torsions:
REMARK  status: ('A' for Active; 'I' for Inactive)
REMARK    1  A    between atoms: O_2  and  C_9 
REMARK    2  A    between atoms: O_4  and  C_14 
REMARK    3  A    between atoms: O_5  and  C_19 
REMARK    4  A    between atoms: O_6  and  C_20 
REMARK    5  A    between atoms: O_7  and  C_22 
REMARK    6  A    between atoms: C_8  and  C_10 
ROOT
HETATM    1  O   UNK     0      72.937  34.889  31.786  0.00  0.00    -0.337 OA
HETATM    2  O   UNK     0      74.975  38.255  30.620  0.00  0.00    -0.289 OA
HETATM    3  C   UNK     0      74.292  35.121  32.201  0.00  0.00     0.198 C 
HETATM    4  C   UNK     0      74.579  36.616  32.347  0.00  0.00     0.227 C 
HETATM    5  C   UNK     0      74.330  37.291  31.016  0.00  0.00     0.196 C 
HETATM    6  C   UNK     0      73.219  36.736  30.218  0.00  0.00     0.079 A 
HETATM    7  C   UNK     0      72.577  35.577  30.658  0.00  0.00     0.089 A 
HETATM    8  C   UNK     0      72.796  37.379  29.052  0.00  0.00     0.085 A 
HETATM    9  C   UNK     0      71.484  35.079  29.946  0.00  0.00     0.074 A 
HETATM   10  C   UNK     0      71.716  36.866  28.335  0.00  0.00     0.074 A 
HETATM   11  C   UNK     0      71.057  35.721  28.783  0.00  0.00     0.071 A 
ENDROOT
BRANCH   3  12
HETATM   12  C   UNK     0      74.495  34.378  33.508  0.00  0.00    -0.023 A 
HETATM   13  C   UNK     0      73.434  33.681  34.081  0.00  0.00     0.049 A 
HETATM   14  C   UNK     0      73.620  32.997  35.283  0.00  0.00     0.099 A 
HETATM   15  C   UNK     0      74.866  33.015  35.909  0.00  0.00     0.098 A 
HETATM   16  C   UNK     0      75.927  33.714  35.333  0.00  0.00     0.040 A 
HETATM   17  C   UNK     0      75.741  34.397  34.132  0.00  0.00     0.013 A 
BRANCH  14  18
HETATM   18  O   UNK     0      72.578  32.318  35.836  0.00  0.00    -0.358 OA
HETATM   19  H   UNK     0      71.923  32.142  35.138  0.00  0.00     0.217 HD
ENDBRANCH  14  18
BRANCH  15  20
HETATM   20  O   UNK     0      75.061  32.351  37.084  0.00  0.00    -0.358 OA
HETATM   21  H   UNK     0      74.299  31.769  37.248  0.00  0.00     0.217 HD
ENDBRANCH  15  20
ENDBRANCH   3  12
BRANCH   4  22
HETATM   22  O   UNK     0      75.937  36.821  32.699  0.00  0.00    -0.385 OA
HETATM   23  H   UNK     0      76.063  36.472  33.597  0.00  0.00     0.210 HD
ENDBRANCH   4  22
BRANCH   8  24
HETATM   24  O   UNK     0      73.389  38.510  28.577  0.00  0.00    -0.360 OA
HETATM   25  H   UNK     0      74.345  38.487  28.734  0.00  0.00     0.217 HD
ENDBRANCH   8  24
BRANCH  11  26
HETATM   26  O   UNK     0      69.998  35.228  28.084  0.00  0.00    -0.361 OA
HETATM   27  H   UNK     0      69.856  34.300  28.339  0.00  0.00     0.217 HD
ENDBRANCH  11  26
TORSDOF 6
ENDMDL
MODEL 9
REMARK VINA RESULT:      -7.7     19.981     24.692
REMARK  6 active torsions:
REMARK  status: ('A' for Active; 'I' for Inactive)
REMARK    1  A    between atoms: O_2  and  C_9 
REMARK    2  A    between atoms: O_4  and  C_14 
REMARK    3  A    between atoms: O_5  and  C_19 
REMARK    4  A    between atoms: O_6  and  C_20 
REMARK    5  A    between atoms: O_7  and  C_22 
REMARK    6  A    between atoms: C_8  and  C_10 
ROOT
HETATM    1  O   UNK     0      57.378  18.748  28.455  0.00  0.00    -0.337 OA
HETATM    2  O   UNK     0      60.482  19.713  25.950  0.00  0.00    -0.289 OA
HETATM    3  C   UNK     0      57.573  18.058  27.211  0.00  0.00     0.198 C 
HETATM    4  C   UNK     0      59.056  17.983  26.846  0.00  0.00     0.227 C 
HETATM    5  C   UNK     0      59.603  19.390  26.740  0.00  0.00     0.196 C 
HETATM    6  C   UNK     0      59.033  20.367  27.688  0.00  0.00     0.079 A 
HETATM    7  C   UNK     0      57.964  19.984  28.502  0.00  0.00     0.089 A 
HETATM    8  C   UNK     0      59.575  21.651  27.792  0.00  0.00     0.085 A 
HETATM    9  C   UNK     0      57.459  20.879  29.447  0.00  0.00     0.074 A 
HETATM   10  C   UNK     0      59.053  22.547  28.725  0.00  0.00     0.074 A 
HETATM   11  C   UNK     0      58.001  22.161  29.555  0.00  0.00     0.071 A 
ENDROOT
BRANCH   3  12
HETATM   12  C   UNK     0      56.961  16.679  27.361  0.00  0.00    -0.023 A 
HETATM   13  C   UNK     0      57.454  15.801  28.324  0.00  0.00     0.049 A 
HETATM   14  C   UNK     0      56.891  14.532  28.463  0.00  0.00     0.099 A 
HETATM   15  C   UNK     0      55.836  14.144  27.636  0.00  0.00     0.098 A 
HETATM   16  C   UNK     0      55.343  15.025  26.673  0.00  0.00     0.040 A 
HETATM   17  C   UNK     0      55.907  16.293  26.535  0.00  0.00     0.013 A 
BRANCH  14  18
HETATM   18  O   UNK     0      57.379  13.681  29.407  0.00  0.00    -0.358 OA
HETATM   19  H   UNK     0      57.976  13.049  28.970  0.00  0.00     0.217 HD
ENDBRANCH  14  18
BRANCH  15  20
HETATM   20  O   UNK     0      55.277  12.908  27.763  0.00  0.00    -0.358 OA
HETATM   21  H   UNK     0      55.091  12.552  26.876  0.00  0.00     0.217 HD
ENDBRANCH  15  20
ENDBRANCH   3  12
BRANCH   4  22
HETATM   22  O   UNK     0      59.219  17.351  25.587  0.00  0.00    -0.385 OA
HETATM   23  H   UNK     0      59.350  16.402  25.750  0.00  0.00     0.210 HD
ENDBRANCH   4  22
BRANCH   8  24
HETATM   24  O   UNK     0      60.614  22.077  27.020  0.00  0.00    -0.360 OA
HETATM   25  H   UNK     0      61.205  22.653  27.529  0.00  0.00     0.217 HD
ENDBRANCH   8  24
BRANCH  11  26
HETATM   26  O   UNK     0      57.500  23.035  30.470  0.00  0.00    -0.361 OA
HETATM   27  H   UNK     0      57.425  22.585  31.329  0.00  0.00     0.217 HD
ENDBRANCH  11  26
TORSDOF 6
ENDMDL
