MODEL 1
REMARK VINA RESULT:      -5.7      0.000      0.000
REMARK  4 active torsions:
REMARK  status: ('A' for Active; 'I' for Inactive)
REMARK    1  A    between atoms: O_1  and  C_10 
REMARK    2  A    between atoms: O_1  and  C_11 
REMARK    3  A    between atoms: N_3  and  C_7 
REMARK    4  A    between atoms: C_4  and  C_10 
ROOT
HETATM    1  O   UNK     0     146.969 149.218 128.197  0.00  0.00    -0.318 OA
ENDROOT
BRANCH   1   2
HETATM    2  C   UNK     0     145.736 149.492 127.669  0.00  0.00     0.293 C 
HETATM    3  O   UNK     0     145.287 148.957 126.647  0.00  0.00    -0.259 OA
BRANCH   2   4
HETATM    4  C   UNK     0     145.027 150.488 128.456  0.00  0.00     0.039 A 
HETATM    5  C   UNK     0     145.684 151.646 128.871  0.00  0.00     0.020 A 
HETATM    6  C   UNK     0     145.003 152.601 129.628  0.00  0.00     0.030 A 
HETATM    7  C   UNK     0     143.666 152.398 129.967  0.00  0.00     0.025 A 
HETATM    8  C   UNK     0     143.009 151.240 129.552  0.00  0.00     0.030 A 
HETATM    9  C   UNK     0     143.689 150.285 128.797  0.00  0.00     0.020 A 
BRANCH   7  10
HETATM   10  N   UNK     0     142.979 153.363 130.731  0.00  0.00    -0.399 N 
HETATM   11  H   UNK     0     143.336 154.307 130.795  0.00  0.00     0.156 HD
HETATM   12  H   UNK     0     142.128 153.112 131.218  0.00  0.00     0.156 HD
ENDBRANCH   7  10
ENDBRANCH   2   4
ENDBRANCH   1   2
BRANCH   1  13
HETATM   13  C   UNK     0     147.011 148.308 129.301  0.00  0.00     0.174 C 
HETATM   14  C   UNK     0     147.688 148.985 130.473  0.00  0.00     0.034 C 
ENDBRANCH   1  13
TORSDOF 4
ENDMDL
MODEL 2
REMARK VINA RESULT:      -5.4     19.002     20.506
REMARK  4 active torsions:
REMARK  status: ('A' for Active; 'I' for Inactive)
REMARK    1  A    between atoms: O_1  and  C_10 
REMARK    2  A    between atoms: O_1  and  C_11 
REMARK    3  A    between atoms: N_3  and  C_7 
REMARK    4  A    between atoms: C_4  and  C_10 
ROOT
HETATM    1  O   UNK     0     161.187 157.269 137.410  0.00  0.00    -0.318 OA
ENDROOT
BRANCH   1   2
HETATM    2  C   UNK     0     160.145 157.739 138.162  0.00  0.00     0.293 C 
HETATM    3  O   UNK     0     158.954 157.518 137.910  0.00  0.00    -0.259 OA
BRANCH   2   4
HETATM    4  C   UNK     0     160.615 158.530 139.289  0.00  0.00     0.039 A 
HETATM    5  C   UNK     0     161.913 158.357 139.769  0.00  0.00     0.020 A 
HETATM    6  C   UNK     0     162.363 159.115 140.851  0.00  0.00     0.030 A 
HETATM    7  C   UNK     0     161.515 160.045 141.452  0.00  0.00     0.025 A 
HETATM    8  C   UNK     0     160.217 160.218 140.972  0.00  0.00     0.030 A 
HETATM    9  C   UNK     0     159.767 159.460 139.891  0.00  0.00     0.020 A 
BRANCH   7  10
HETATM   10  N   UNK     0     161.970 160.811 142.545  0.00  0.00    -0.399 N 
HETATM   11  H   UNK     0     162.810 161.367 142.459  0.00  0.00     0.156 HD
HETATM   12  H   UNK     0     161.458 160.802 143.417  0.00  0.00     0.156 HD
ENDBRANCH   7  10
ENDBRANCH   2   4
ENDBRANCH   1   2
BRANCH   1  13
HETATM   13  C   UNK     0     160.936 156.106 136.612  0.00  0.00     0.174 C 
HETATM   14  C   UNK     0     160.929 156.503 135.152  0.00  0.00     0.034 C 
ENDBRANCH   1  13
TORSDOF 4
ENDMDL
MODEL 3
REMARK VINA RESULT:      -5.4     18.965     20.492
REMARK  4 active torsions:
REMARK  status: ('A' for Active; 'I' for Inactive)
REMARK    1  A    between atoms: O_1  and  C_10 
REMARK    2  A    between atoms: O_1  and  C_11 
REMARK    3  A    between atoms: N_3  and  C_7 
REMARK    4  A    between atoms: C_4  and  C_10 
ROOT
HETATM    1  O   UNK     0     161.138 157.579 137.151  0.00  0.00    -0.318 OA
ENDROOT
BRANCH   1   2
HETATM    2  C   UNK     0     160.155 157.701 138.095  0.00  0.00     0.293 C 
HETATM    3  O   UNK     0     159.028 157.201 137.990  0.00  0.00    -0.259 OA
BRANCH   2   4
HETATM    4  C   UNK     0     160.601 158.493 139.231  0.00  0.00     0.039 A 
HETATM    5  C   UNK     0     159.743 159.430 139.808  0.00  0.00     0.020 A 
HETATM    6  C   UNK     0     160.172 160.189 140.897  0.00  0.00     0.030 A 
HETATM    7  C   UNK     0     161.457 160.011 141.410  0.00  0.00     0.025 A 
HETATM    8  C   UNK     0     162.314 159.074 140.833  0.00  0.00     0.030 A 
HETATM    9  C   UNK     0     161.886 158.315 139.743  0.00  0.00     0.020 A 
BRANCH   7  10
HETATM   10  N   UNK     0     161.889 160.779 142.510  0.00  0.00    -0.399 N 
HETATM   11  H   UNK     0     162.851 161.085 142.568  0.00  0.00     0.156 HD
HETATM   12  H   UNK     0     161.237 161.023 143.245  0.00  0.00     0.156 HD
ENDBRANCH   7  10
ENDBRANCH   2   4
ENDBRANCH   1   2
BRANCH   1  13
HETATM   13  C   UNK     0     161.226 156.323 136.469  0.00  0.00     0.174 C 
HETATM   14  C   UNK     0     160.916 156.536 135.003  0.00  0.00     0.034 C 
ENDBRANCH   1  13
TORSDOF 4
ENDMDL
MODEL 4
REMARK VINA RESULT:      -5.3     22.173     23.703
REMARK  4 active torsions:
REMARK  status: ('A' for Active; 'I' for Inactive)
REMARK    1  A    between atoms: O_1  and  C_10 
REMARK    2  A    between atoms: O_1  and  C_11 
REMARK    3  A    between atoms: N_3  and  C_7 
REMARK    4  A    between atoms: C_4  and  C_10 
ROOT
HETATM    1  O   UNK     0     163.955 161.477 142.523  0.00  0.00    -0.318 OA
ENDROOT
BRANCH   1   2
HETATM    2  C   UNK     0     162.903 160.743 143.000  0.00  0.00     0.293 C 
HETATM    3  O   UNK     0     162.645 160.603 144.202  0.00  0.00    -0.259 OA
BRANCH   2   4
HETATM    4  C   UNK     0     162.131 160.151 141.919  0.00  0.00     0.039 A 
HETATM    5  C   UNK     0     160.821 160.571 141.686  0.00  0.00     0.020 A 
HETATM    6  C   UNK     0     160.081 160.002 140.649  0.00  0.00     0.030 A 
HETATM    7  C   UNK     0     160.651 159.015 139.845  0.00  0.00     0.025 A 
HETATM    8  C   UNK     0     161.960 158.596 140.078  0.00  0.00     0.030 A 
HETATM    9  C   UNK     0     162.701 159.164 141.115  0.00  0.00     0.020 A 
BRANCH   7  10
HETATM   10  N   UNK     0     159.902 158.440 138.797  0.00  0.00    -0.399 N 
HETATM   11  H   UNK     0     158.949 158.144 138.960  0.00  0.00     0.156 HD
HETATM   12  H   UNK     0     160.319 158.323 137.883  0.00  0.00     0.156 HD
ENDBRANCH   7  10
ENDBRANCH   2   4
ENDBRANCH   1   2
BRANCH   1  13
HETATM   13  C   UNK     0     165.269 160.995 142.825  0.00  0.00     0.174 C 
HETATM   14  C   UNK     0     166.290 161.941 142.230  0.00  0.00     0.034 C 
ENDBRANCH   1  13
TORSDOF 4
ENDMDL
MODEL 5
REMARK VINA RESULT:      -5.3     19.456     20.790
REMARK  4 active torsions:
REMARK  status: ('A' for Active; 'I' for Inactive)
REMARK    1  A    between atoms: O_1  and  C_10 
REMARK    2  A    between atoms: O_1  and  C_11 
REMARK    3  A    between atoms: N_3  and  C_7 
REMARK    4  A    between atoms: C_4  and  C_10 
ROOT
HETATM    1  O   UNK     0     160.213 158.445 136.939  0.00  0.00    -0.318 OA
ENDROOT
BRANCH   1   2
HETATM    2  C   UNK     0     160.294 157.688 138.077  0.00  0.00     0.293 C 
HETATM    3  O   UNK     0     160.068 156.472 138.117  0.00  0.00    -0.259 OA
BRANCH   2   4
HETATM    4  C   UNK     0     160.677 158.492 139.226  0.00  0.00     0.039 A 
HETATM    5  C   UNK     0     159.781 159.421 139.756  0.00  0.00     0.020 A 
HETATM    6  C   UNK     0     160.149 160.193 140.859  0.00  0.00     0.030 A 
HETATM    7  C   UNK     0     161.411 160.036 141.432  0.00  0.00     0.025 A 
HETATM    8  C   UNK     0     162.305 159.106 140.902  0.00  0.00     0.030 A 
HETATM    9  C   UNK     0     161.939 158.335 139.799  0.00  0.00     0.020 A 
BRANCH   7  10
HETATM   10  N   UNK     0     161.782 160.816 142.546  0.00  0.00    -0.399 N 
HETATM   11  H   UNK     0     161.125 161.473 142.945  0.00  0.00     0.156 HD
HETATM   12  H   UNK     0     162.706 160.720 142.946  0.00  0.00     0.156 HD
ENDBRANCH   7  10
ENDBRANCH   2   4
ENDBRANCH   1   2
BRANCH   1  13
HETATM   13  C   UNK     0     161.387 158.513 136.122  0.00  0.00     0.174 C 
HETATM   14  C   UNK     0     161.737 159.965 135.884  0.00  0.00     0.034 C 
ENDBRANCH   1  13
TORSDOF 4
ENDMDL
MODEL 6
REMARK VINA RESULT:      -5.3      1.537      2.566
REMARK  4 active torsions:
REMARK  status: ('A' for Active; 'I' for Inactive)
REMARK    1  A    between atoms: O_1  and  C_10 
REMARK    2  A    between atoms: O_1  and  C_11 
REMARK    3  A    between atoms: N_3  and  C_7 
REMARK    4  A    between atoms: C_4  and  C_10 
ROOT
HETATM    1  O   UNK     0     144.368 148.395 126.679  0.00  0.00    -0.318 OA
ENDROOT
BRANCH   1   2
HETATM    2  C   UNK     0     145.457 149.114 127.093  0.00  0.00     0.293 C 
HETATM    3  O   UNK     0     146.622 148.856 126.764  0.00  0.00    -0.259 OA
BRANCH   2   4
HETATM    4  C   UNK     0     145.072 150.212 127.966  0.00  0.00     0.039 A 
HETATM    5  C   UNK     0     143.806 150.227 128.551  0.00  0.00     0.020 A 
HETATM    6  C   UNK     0     143.436 151.281 129.387  0.00  0.00     0.030 A 
HETATM    7  C   UNK     0     144.333 152.319 129.639  0.00  0.00     0.025 A 
HETATM    8  C   UNK     0     145.599 152.304 129.054  0.00  0.00     0.030 A 
HETATM    9  C   UNK     0     145.968 151.251 128.217  0.00  0.00     0.020 A 
BRANCH   7  10
HETATM   10  N   UNK     0     143.960 153.384 130.484  0.00  0.00    -0.399 N 
HETATM   11  H   UNK     0     144.560 154.192 130.575  0.00  0.00     0.156 HD
HETATM   12  H   UNK     0     143.091 153.339 131.001  0.00  0.00     0.156 HD
ENDBRANCH   7  10
ENDBRANCH   2   4
ENDBRANCH   1   2
BRANCH   1  13
HETATM   13  C   UNK     0     144.462 146.969 126.770  0.00  0.00     0.174 C 
HETATM   14  C   UNK     0     143.919 146.524 128.110  0.00  0.00     0.034 C 
ENDBRANCH   1  13
TORSDOF 4
ENDMDL
MODEL 7
REMARK VINA RESULT:      -5.3      3.021      4.655
REMARK  4 active torsions:
REMARK  status: ('A' for Active; 'I' for Inactive)
REMARK    1  A    between atoms: O_1  and  C_10 
REMARK    2  A    between atoms: O_1  and  C_11 
REMARK    3  A    between atoms: N_3  and  C_7 
REMARK    4  A    between atoms: C_4  and  C_10 
ROOT
HETATM    1  O   UNK     0     143.022 151.481 130.361  0.00  0.00    -0.318 OA
ENDROOT
BRANCH   1   2
HETATM    2  C   UNK     0     143.306 150.979 129.120  0.00  0.00     0.293 C 
HETATM    3  O   UNK     0     142.562 151.102 128.138  0.00  0.00    -0.259 OA
BRANCH   2   4
HETATM    4  C   UNK     0     144.585 150.287 129.103  0.00  0.00     0.039 A 
HETATM    5  C   UNK     0     144.623 148.895 129.020  0.00  0.00     0.020 A 
HETATM    6  C   UNK     0     145.850 148.231 129.004  0.00  0.00     0.030 A 
HETATM    7  C   UNK     0     147.038 148.959 129.070  0.00  0.00     0.025 A 
HETATM    8  C   UNK     0     146.999 150.351 129.153  0.00  0.00     0.030 A 
HETATM    9  C   UNK     0     145.773 151.015 129.170  0.00  0.00     0.020 A 
BRANCH   7  10
HETATM   10  N   UNK     0     148.278 148.288 129.055  0.00  0.00    -0.399 N 
HETATM   11  H   UNK     0     148.523 147.695 128.273  0.00  0.00     0.156 HD
HETATM   12  H   UNK     0     148.923 148.398 129.826  0.00  0.00     0.156 HD
ENDBRANCH   7  10
ENDBRANCH   2   4
ENDBRANCH   1   2
BRANCH   1  13
HETATM   13  C   UNK     0     142.631 152.857 130.429  0.00  0.00     0.174 C 
HETATM   14  C   UNK     0     143.873 153.720 130.474  0.00  0.00     0.034 C 
ENDBRANCH   1  13
TORSDOF 4
ENDMDL
MODEL 8
REMARK VINA RESULT:      -5.2      1.762      2.248
REMARK  4 active torsions:
REMARK  status: ('A' for Active; 'I' for Inactive)
REMARK    1  A    between atoms: O_1  and  C_10 
REMARK    2  A    between atoms: O_1  and  C_11 
REMARK    3  A    between atoms: N_3  and  C_7 
REMARK    4  A    between atoms: C_4  and  C_10 
ROOT
HETATM    1  O   UNK     0     144.222 148.610 126.919  0.00  0.00    -0.318 OA
ENDROOT
BRANCH   1   2
HETATM    2  C   UNK     0     144.118 148.575 128.283  0.00  0.00     0.293 C 
HETATM    3  O   UNK     0     144.067 147.532 128.947  0.00  0.00    -0.259 OA
BRANCH   2   4
HETATM    4  C   UNK     0     144.074 149.914 128.849  0.00  0.00     0.039 A 
HETATM    5  C   UNK     0     145.253 150.644 129.006  0.00  0.00     0.020 A 
HETATM    6  C   UNK     0     145.210 151.928 129.550  0.00  0.00     0.030 A 
HETATM    7  C   UNK     0     143.990 152.483 129.936  0.00  0.00     0.025 A 
HETATM    8  C   UNK     0     142.812 151.753 129.779  0.00  0.00     0.030 A 
HETATM    9  C   UNK     0     142.854 150.468 129.236  0.00  0.00     0.020 A 
BRANCH   7  10
HETATM   10  N   UNK     0     143.948 153.780 130.486  0.00  0.00    -0.399 N 
HETATM   11  H   UNK     0     144.759 154.157 130.957  0.00  0.00     0.156 HD
HETATM   12  H   UNK     0     143.105 154.335 130.411  0.00  0.00     0.156 HD
ENDBRANCH   7  10
ENDBRANCH   2   4
ENDBRANCH   1   2
BRANCH   1  13
HETATM   13  C   UNK     0     145.006 147.581 126.304  0.00  0.00     0.174 C 
HETATM   14  C   UNK     0     146.469 147.961 126.387  0.00  0.00     0.034 C 
ENDBRANCH   1  13
TORSDOF 4
ENDMDL
MODEL 9
REMARK VINA RESULT:      -5.2     20.314     21.847
REMARK  4 active torsions:
REMARK  status: ('A' for Active; 'I' for Inactive)
REMARK    1  A    between atoms: O_1  and  C_10 
REMARK    2  A    between atoms: O_1  and  C_11 
REMARK    3  A    between atoms: N_3  and  C_7 
REMARK    4  A    between atoms: C_4  and  C_10 
ROOT
HETATM    1  O   UNK     0     160.141 158.381 138.789  0.00  0.00    -0.318 OA
ENDROOT
BRANCH   1   2
HETATM    2  C   UNK     0     161.483 158.572 138.976  0.00  0.00     0.293 C 
HETATM    3  O   UNK     0     162.350 158.239 138.158  0.00  0.00    -0.259 OA
BRANCH   2   4
HETATM    4  C   UNK     0     161.758 159.210 140.253  0.00  0.00     0.039 A 
HETATM    5  C   UNK     0     163.002 159.043 140.863  0.00  0.00     0.020 A 
HETATM    6  C   UNK     0     163.266 159.655 142.089  0.00  0.00     0.030 A 
HETATM    7  C   UNK     0     162.287 160.435 142.704  0.00  0.00     0.025 A 
HETATM    8  C   UNK     0     161.044 160.603 142.094  0.00  0.00     0.030 A 
HETATM    9  C   UNK     0     160.779 159.990 140.869  0.00  0.00     0.020 A 
BRANCH   7  10
HETATM   10  N   UNK     0     162.554 161.054 143.942  0.00  0.00    -0.399 N 
HETATM   11  H   UNK     0     161.828 161.118 144.643  0.00  0.00     0.156 HD
HETATM   12  H   UNK     0     163.472 161.435 144.130  0.00  0.00     0.156 HD
ENDBRANCH   7  10
ENDBRANCH   2   4
ENDBRANCH   1   2
BRANCH   1  13
HETATM   13  C   UNK     0     159.659 158.455 137.443  0.00  0.00     0.174 C 
HETATM   14  C   UNK     0     158.707 157.304 137.196  0.00  0.00     0.034 C 
ENDBRANCH   1  13
TORSDOF 4
ENDMDL
MODEL 10
REMARK VINA RESULT:      -5.1     20.574     22.010
REMARK  4 active torsions:
REMARK  status: ('A' for Active; 'I' for Inactive)
REMARK    1  A    between atoms: O_1  and  C_10 
REMARK    2  A    between atoms: O_1  and  C_11 
REMARK    3  A    between atoms: N_3  and  C_7 
REMARK    4  A    between atoms: C_4  and  C_10 
ROOT
HETATM    1  O   UNK     0     150.946 170.578 129.963  0.00  0.00    -0.318 OA
ENDROOT
BRANCH   1   2
HETATM    2  C   UNK     0     149.856 170.704 130.780  0.00  0.00     0.293 C 
HETATM    3  O   UNK     0     148.821 170.035 130.661  0.00  0.00    -0.259 OA
BRANCH   2   4
HETATM    4  C   UNK     0     150.066 171.721 131.798  0.00  0.00     0.039 A 
HETATM    5  C   UNK     0     151.349 171.958 132.292  0.00  0.00     0.020 A 
HETATM    6  C   UNK     0     151.550 172.933 133.270  0.00  0.00     0.030 A 
HETATM    7  C   UNK     0     150.469 173.670 133.753  0.00  0.00     0.025 A 
HETATM    8  C   UNK     0     149.187 173.433 133.260  0.00  0.00     0.030 A 
HETATM    9  C   UNK     0     148.985 172.458 132.283  0.00  0.00     0.020 A 
BRANCH   7  10
HETATM   10  N   UNK     0     150.674 174.655 134.741  0.00  0.00    -0.399 N 
HETATM   11  H   UNK     0     150.524 174.433 135.716  0.00  0.00     0.156 HD
HETATM   12  H   UNK     0     150.968 175.586 134.475  0.00  0.00     0.156 HD
ENDBRANCH   7  10
ENDBRANCH   2   4
ENDBRANCH   1   2
BRANCH   1  13
HETATM   13  C   UNK     0     151.257 169.259 129.499  0.00  0.00     0.174 C 
HETATM   14  C   UNK     0     152.002 168.517 130.587  0.00  0.00     0.034 C 
ENDBRANCH   1  13
TORSDOF 4
ENDMDL
