MODEL 1
REMARK VINA RESULT:      -9.0      0.000      0.000
REMARK  11 active torsions:
REMARK  status: ('A' for Active; 'I' for Inactive)
REMARK    1  A    between atoms: O_1  and  C_9 
REMARK    2  A    between atoms: O_2  and  C_19 
REMARK    3  A    between atoms: O_3  and  C_26 
REMARK    4  A    between atoms: O_4  and  C_27 
REMARK    5  A    between atoms: O_6  and  C_28 
REMARK    6  A    between atoms: O_7  and  C_32 
REMARK    7  A    between atoms: C_10  and  C_19 
REMARK    8  A    between atoms: C_19  and  C_27 
REMARK    9  A    between atoms: C_27  and  C_30 
REMARK   10  A    between atoms: C_30  and  C_31 
REMARK   11  A    between atoms: C_31  and  C_32 
ROOT
HETATM    1  O   UNK     0      21.661  31.002  70.572  0.00  0.00    -0.384 OA
HETATM    2  H   UNK     0      20.879  31.579  70.629  0.00  0.00     0.211 HD
ENDROOT
BRANCH   1   3
HETATM    3  C   UNK     0      21.347  29.765  71.250  0.00  0.00     0.089 C 
HETATM    4  C   UNK     0      22.239  29.629  72.512  0.00  0.00    -0.002 C 
HETATM    5  C   UNK     0      23.643  29.528  71.864  0.00  0.00     0.034 C 
HETATM    6  C   UNK     0      22.045  30.881  73.386  0.00  0.00     0.014 C 
HETATM    7  C   UNK     0      21.921  28.357  73.344  0.00  0.00     0.019 C 
HETATM    8  C   UNK     0      23.412  28.636  70.623  0.00  0.00     0.012 C 
HETATM    9  C   UNK     0      21.893  28.649  70.346  0.00  0.00     0.044 C 
HETATM   10  C   UNK     0      20.573  31.041  73.801  0.00  0.00     0.011 C 
HETATM   11  C   UNK     0      19.542  30.953  72.633  0.00  0.00     0.027 C 
HETATM   12  C   UNK     0      18.051  30.884  73.152  0.00  0.00    -0.023 C 
HETATM   13  C   UNK     0      19.880  29.858  71.610  0.00  0.00    -0.037 C 
HETATM   14  C   UNK     0      17.088  30.598  71.966  0.00  0.00     0.071 C 
HETATM   15  C   UNK     0      17.618  32.215  73.829  0.00  0.00     0.044 C 
HETATM   16  C   UNK     0      17.865  29.758  74.205  0.00  0.00     0.016 C 
HETATM   17  C   UNK     0      16.951  31.777  70.987  0.00  0.00     0.047 C 
HETATM   18  C   UNK     0      17.509  29.356  71.204  0.00  0.00     0.154 C 
HETATM   19  C   UNK     0      16.526  33.059  71.702  0.00  0.00     0.147 C 
HETATM   20  C   UNK     0      17.480  33.386  72.851  0.00  0.00     0.147 C 
HETATM   21  O   UNK     0      16.684  28.598  70.697  0.00  0.00    -0.293 OA
HETATM   22  C   UNK     0      18.953  29.102  71.001  0.00  0.00     0.057 C 
BRANCH   5  23
HETATM   23  C   UNK     0      24.770  29.020  72.755  0.00  0.00     0.084 C 
HETATM   24  C   UNK     0      24.846  27.486  72.675  0.00  0.00     0.049 C 
BRANCH  23  25
HETATM   25  O   UNK     0      26.011  29.537  72.256  0.00  0.00    -0.387 OA
HETATM   26  H   UNK     0      26.114  30.454  72.558  0.00  0.00     0.210 HD
ENDBRANCH  23  25
BRANCH  23  27
HETATM   27  C   UNK     0      24.609  29.485  74.228  0.00  0.00     0.152 C 
BRANCH  27  28
HETATM   28  O   UNK     0      25.515  30.561  74.493  0.00  0.00    -0.393 OA
HETATM   29  H   UNK     0      26.388  30.295  74.155  0.00  0.00     0.210 HD
ENDBRANCH  27  28
BRANCH  27  30
HETATM   30  C   UNK     0      24.853  28.378  75.271  0.00  0.00     0.037 C 
BRANCH  30  31
HETATM   31  C   UNK     0      24.620  28.878  76.709  0.00  0.00     0.040 C 
BRANCH  31  32
HETATM   32  C   UNK     0      23.261  28.473  77.316  0.00  0.00     0.051 C 
HETATM   33  C   UNK     0      22.312  29.677  77.298  0.00  0.00     0.045 C 
HETATM   34  C   UNK     0      22.620  27.293  76.584  0.00  0.00     0.045 C 
BRANCH  32  35
HETATM   35  O   UNK     0      23.470  28.101  78.680  0.00  0.00    -0.391 OA
HETATM   36  H   UNK     0      23.390  28.902  79.224  0.00  0.00     0.210 HD
ENDBRANCH  32  35
ENDBRANCH  31  32
ENDBRANCH  30  31
ENDBRANCH  27  30
ENDBRANCH  23  27
ENDBRANCH   5  23
BRANCH  19  37
HETATM   37  O   UNK     0      15.205  32.890  72.220  0.00  0.00    -0.393 OA
HETATM   38  H   UNK     0      15.054  33.595  72.872  0.00  0.00     0.210 HD
ENDBRANCH  19  37
BRANCH  20  39
HETATM   39  O   UNK     0      16.995  34.534  73.544  0.00  0.00    -0.393 OA
HETATM   40  H   UNK     0      17.019  35.283  72.923  0.00  0.00     0.210 HD
ENDBRANCH  20  39
ENDBRANCH   1   3
TORSDOF 11
ENDMDL
MODEL 2
REMARK VINA RESULT:      -8.6      1.702      2.151
REMARK  11 active torsions:
REMARK  status: ('A' for Active; 'I' for Inactive)
REMARK    1  A    between atoms: O_1  and  C_9 
REMARK    2  A    between atoms: O_2  and  C_19 
REMARK    3  A    between atoms: O_3  and  C_26 
REMARK    4  A    between atoms: O_4  and  C_27 
REMARK    5  A    between atoms: O_6  and  C_28 
REMARK    6  A    between atoms: O_7  and  C_32 
REMARK    7  A    between atoms: C_10  and  C_19 
REMARK    8  A    between atoms: C_19  and  C_27 
REMARK    9  A    between atoms: C_27  and  C_30 
REMARK   10  A    between atoms: C_30  and  C_31 
REMARK   11  A    between atoms: C_31  and  C_32 
ROOT
HETATM    1  O   UNK     0      21.591  30.299  70.804  0.00  0.00    -0.384 OA
HETATM    2  H   UNK     0      20.735  30.694  70.563  0.00  0.00     0.211 HD
ENDROOT
BRANCH   1   3
HETATM    3  C   UNK     0      21.377  29.458  71.961  0.00  0.00     0.089 C 
HETATM    4  C   UNK     0      22.352  29.880  73.091  0.00  0.00    -0.002 C 
HETATM    5  C   UNK     0      23.716  29.536  72.440  0.00  0.00     0.034 C 
HETATM    6  C   UNK     0      22.156  31.381  73.372  0.00  0.00     0.014 C 
HETATM    7  C   UNK     0      22.146  29.072  74.401  0.00  0.00     0.019 C 
HETATM    8  C   UNK     0      23.449  28.201  71.709  0.00  0.00     0.012 C 
HETATM    9  C   UNK     0      21.916  28.073  71.568  0.00  0.00     0.044 C 
HETATM   10  C   UNK     0      20.707  31.678  73.792  0.00  0.00     0.011 C 
HETATM   11  C   UNK     0      19.610  31.091  72.852  0.00  0.00     0.027 C 
HETATM   12  C   UNK     0      18.160  31.224  73.463  0.00  0.00    -0.023 C 
HETATM   13  C   UNK     0      19.933  29.672  72.360  0.00  0.00    -0.037 C 
HETATM   14  C   UNK     0      17.138  30.451  72.584  0.00  0.00     0.071 C 
HETATM   15  C   UNK     0      17.710  32.710  73.552  0.00  0.00     0.044 C 
HETATM   16  C   UNK     0      18.092  30.644  74.902  0.00  0.00     0.016 C 
HETATM   17  C   UNK     0      16.886  31.106  71.214  0.00  0.00     0.047 C 
HETATM   18  C   UNK     0      17.567  29.010  72.383  0.00  0.00     0.154 C 
HETATM   19  C   UNK     0      16.449  32.563  71.357  0.00  0.00     0.147 C 
HETATM   20  C   UNK     0      17.457  33.358  72.186  0.00  0.00     0.147 C 
HETATM   21  O   UNK     0      16.747  28.096  72.305  0.00  0.00    -0.293 OA
HETATM   22  C   UNK     0      19.005  28.716  72.196  0.00  0.00     0.057 C 
BRANCH   5  23
HETATM   23  C   UNK     0      24.919  29.468  73.373  0.00  0.00     0.084 C 
HETATM   24  C   UNK     0      26.175  29.076  72.577  0.00  0.00     0.049 C 
BRANCH  23  25
HETATM   25  O   UNK     0      25.146  30.775  73.915  0.00  0.00    -0.387 OA
HETATM   26  H   UNK     0      24.387  31.023  74.469  0.00  0.00     0.210 HD
ENDBRANCH  23  25
BRANCH  23  27
HETATM   27  C   UNK     0      24.689  28.487  74.555  0.00  0.00     0.152 C 
BRANCH  27  28
HETATM   28  O   UNK     0      25.373  28.968  75.717  0.00  0.00    -0.393 OA
HETATM   29  H   UNK     0      25.014  29.850  75.920  0.00  0.00     0.210 HD
ENDBRANCH  27  28
BRANCH  27  30
HETATM   30  C   UNK     0      25.158  27.045  74.280  0.00  0.00     0.037 C 
BRANCH  30  31
HETATM   31  C   UNK     0      24.397  26.017  75.138  0.00  0.00     0.040 C 
BRANCH  31  32
HETATM   32  C   UNK     0      23.775  24.852  74.339  0.00  0.00     0.051 C 
HETATM   33  C   UNK     0      22.254  25.026  74.280  0.00  0.00     0.045 C 
HETATM   34  C   UNK     0      24.343  24.743  72.923  0.00  0.00     0.045 C 
BRANCH  32  35
HETATM   35  O   UNK     0      24.051  23.634  75.033  0.00  0.00    -0.391 OA
HETATM   36  H   UNK     0      23.226  23.335  75.451  0.00  0.00     0.210 HD
ENDBRANCH  32  35
ENDBRANCH  31  32
ENDBRANCH  30  31
ENDBRANCH  27  30
ENDBRANCH  23  27
ENDBRANCH   5  23
BRANCH  19  37
HETATM   37  O   UNK     0      15.172  32.608  71.997  0.00  0.00    -0.393 OA
HETATM   38  H   UNK     0      14.683  31.811  71.733  0.00  0.00     0.210 HD
ENDBRANCH  19  37
BRANCH  20  39
HETATM   39  O   UNK     0      16.965  34.683  72.369  0.00  0.00    -0.393 OA
HETATM   40  H   UNK     0      17.094  34.917  73.305  0.00  0.00     0.210 HD
ENDBRANCH  20  39
ENDBRANCH   1   3
TORSDOF 11
ENDMDL
MODEL 3
REMARK VINA RESULT:      -8.6      3.786      6.487
REMARK  11 active torsions:
REMARK  status: ('A' for Active; 'I' for Inactive)
REMARK    1  A    between atoms: O_1  and  C_9 
REMARK    2  A    between atoms: O_2  and  C_19 
REMARK    3  A    between atoms: O_3  and  C_26 
REMARK    4  A    between atoms: O_4  and  C_27 
REMARK    5  A    between atoms: O_6  and  C_28 
REMARK    6  A    between atoms: O_7  and  C_32 
REMARK    7  A    between atoms: C_10  and  C_19 
REMARK    8  A    between atoms: C_19  and  C_27 
REMARK    9  A    between atoms: C_27  and  C_30 
REMARK   10  A    between atoms: C_30  and  C_31 
REMARK   11  A    between atoms: C_31  and  C_32 
ROOT
HETATM    1  O   UNK     0      16.673  28.674  75.577  0.00  0.00    -0.384 OA
HETATM    2  H   UNK     0      16.651  29.633  75.416  0.00  0.00     0.211 HD
ENDROOT
BRANCH   1   3
HETATM    3  C   UNK     0      17.663  28.100  74.693  0.00  0.00     0.089 C 
HETATM    4  C   UNK     0      16.962  27.161  73.676  0.00  0.00    -0.002 C 
HETATM    5  C   UNK     0      16.411  26.066  74.626  0.00  0.00     0.034 C 
HETATM    6  C   UNK     0      15.868  27.960  72.945  0.00  0.00     0.014 C 
HETATM    7  C   UNK     0      17.944  26.551  72.640  0.00  0.00     0.019 C 
HETATM    8  C   UNK     0      17.549  25.863  75.652  0.00  0.00     0.012 C 
HETATM    9  C   UNK     0      18.459  27.108  75.555  0.00  0.00     0.044 C 
HETATM   10  C   UNK     0      16.467  29.172  72.212  0.00  0.00     0.011 C 
HETATM   11  C   UNK     0      17.400  30.075  73.077  0.00  0.00     0.027 C 
HETATM   12  C   UNK     0      18.165  31.151  72.211  0.00  0.00    -0.023 C 
HETATM   13  C   UNK     0      18.325  29.274  74.005  0.00  0.00    -0.037 C 
HETATM   14  C   UNK     0      19.221  31.885  73.084  0.00  0.00     0.071 C 
HETATM   15  C   UNK     0      17.190  32.211  71.621  0.00  0.00     0.044 C 
HETATM   16  C   UNK     0      18.903  30.499  71.011  0.00  0.00     0.016 C 
HETATM   17  C   UNK     0      18.603  32.818  74.141  0.00  0.00     0.047 C 
HETATM   18  C   UNK     0      20.152  30.899  73.762  0.00  0.00     0.154 C 
HETATM   19  C   UNK     0      17.654  33.836  73.512  0.00  0.00     0.147 C 
HETATM   20  C   UNK     0      16.579  33.139  72.677  0.00  0.00     0.147 C 
HETATM   21  O   UNK     0      21.338  31.160  73.957  0.00  0.00    -0.293 OA
HETATM   22  C   UNK     0      19.591  29.628  74.273  0.00  0.00     0.057 C 
BRANCH   5  23
HETATM   23  C   UNK     0      15.964  24.763  73.975  0.00  0.00     0.084 C 
HETATM   24  C   UNK     0      15.433  23.800  75.050  0.00  0.00     0.049 C 
BRANCH  23  25
HETATM   25  O   UNK     0      14.878  25.051  73.084  0.00  0.00    -0.387 OA
HETATM   26  H   UNK     0      15.216  25.073  72.173  0.00  0.00     0.210 HD
ENDBRANCH  23  25
BRANCH  23  27
HETATM   27  C   UNK     0      17.101  24.096  73.154  0.00  0.00     0.152 C 
BRANCH  27  28
HETATM   28  O   UNK     0      16.548  23.465  71.994  0.00  0.00    -0.393 OA
HETATM   29  H   UNK     0      15.669  23.127  72.239  0.00  0.00     0.210 HD
ENDBRANCH  27  28
BRANCH  27  30
HETATM   30  C   UNK     0      17.914  23.046  73.935  0.00  0.00     0.037 C 
BRANCH  30  31
HETATM   31  C   UNK     0      19.289  22.786  73.293  0.00  0.00     0.040 C 
BRANCH  31  32
HETATM   32  C   UNK     0      20.492  23.179  74.176  0.00  0.00     0.051 C 
HETATM   33  C   UNK     0      20.958  24.592  73.809  0.00  0.00     0.045 C 
HETATM   34  C   UNK     0      20.171  23.108  75.671  0.00  0.00     0.045 C 
BRANCH  32  35
HETATM   35  O   UNK     0      21.566  22.277  73.900  0.00  0.00    -0.391 OA
HETATM   36  H   UNK     0      22.322  22.535  74.454  0.00  0.00     0.210 HD
ENDBRANCH  32  35
ENDBRANCH  31  32
ENDBRANCH  30  31
ENDBRANCH  27  30
ENDBRANCH  23  27
ENDBRANCH   5  23
BRANCH  19  37
HETATM   37  O   UNK     0      18.402  34.719  72.674  0.00  0.00    -0.393 OA
HETATM   38  H   UNK     0      18.086  34.597  71.763  0.00  0.00     0.210 HD
ENDBRANCH  19  37
BRANCH  20  39
HETATM   39  O   UNK     0      15.775  34.127  72.037  0.00  0.00    -0.393 OA
HETATM   40  H   UNK     0      15.473  33.755  71.190  0.00  0.00     0.210 HD
ENDBRANCH  20  39
ENDBRANCH   1   3
TORSDOF 11
ENDMDL
MODEL 4
REMARK VINA RESULT:      -8.4      2.980      7.354
REMARK  11 active torsions:
REMARK  status: ('A' for Active; 'I' for Inactive)
REMARK    1  A    between atoms: O_1  and  C_9 
REMARK    2  A    between atoms: O_2  and  C_19 
REMARK    3  A    between atoms: O_3  and  C_26 
REMARK    4  A    between atoms: O_4  and  C_27 
REMARK    5  A    between atoms: O_6  and  C_28 
REMARK    6  A    between atoms: O_7  and  C_32 
REMARK    7  A    between atoms: C_10  and  C_19 
REMARK    8  A    between atoms: C_19  and  C_27 
REMARK    9  A    between atoms: C_27  and  C_30 
REMARK   10  A    between atoms: C_30  and  C_31 
REMARK   11  A    between atoms: C_31  and  C_32 
ROOT
HETATM    1  O   UNK     0      22.732  26.699  71.785  0.00  0.00    -0.384 OA
HETATM    2  H   UNK     0      23.700  26.617  71.846  0.00  0.00     0.211 HD
ENDROOT
BRANCH   1   3
HETATM    3  C   UNK     0      22.424  28.076  71.470  0.00  0.00     0.089 C 
HETATM    4  C   UNK     0      20.888  28.241  71.334  0.00  0.00    -0.002 C 
HETATM    5  C   UNK     0      20.609  27.347  70.099  0.00  0.00     0.034 C 
HETATM    6  C   UNK     0      20.224  27.739  72.629  0.00  0.00     0.014 C 
HETATM    7  C   UNK     0      20.459  29.709  71.062  0.00  0.00     0.019 C 
HETATM    8  C   UNK     0      21.799  27.641  69.156  0.00  0.00     0.012 C 
HETATM    9  C   UNK     0      22.902  28.284  70.025  0.00  0.00     0.044 C 
HETATM   10  C   UNK     0      20.729  28.527  73.849  0.00  0.00     0.011 C 
HETATM   11  C   UNK     0      22.281  28.641  73.969  0.00  0.00     0.027 C 
HETATM   12  C   UNK     0      22.724  29.655  75.095  0.00  0.00    -0.023 C 
HETATM   13  C   UNK     0      22.974  28.890  72.621  0.00  0.00    -0.037 C 
HETATM   14  C   UNK     0      24.261  29.877  75.037  0.00  0.00     0.071 C 
HETATM   15  C   UNK     0      22.354  29.133  76.514  0.00  0.00     0.044 C 
HETATM   16  C   UNK     0      22.031  31.034  74.926  0.00  0.00     0.016 C 
HETATM   17  C   UNK     0      25.077  28.650  75.480  0.00  0.00     0.047 C 
HETATM   18  C   UNK     0      24.701  30.303  73.650  0.00  0.00     0.154 C 
HETATM   19  C   UNK     0      24.675  28.177  76.876  0.00  0.00     0.147 C 
HETATM   20  C   UNK     0      23.171  27.912  76.952  0.00  0.00     0.147 C 
HETATM   21  O   UNK     0      25.630  31.091  73.480  0.00  0.00    -0.293 OA
HETATM   22  C   UNK     0      24.045  29.686  72.476  0.00  0.00     0.057 C 
BRANCH   5  23
HETATM   23  C   UNK     0      19.258  27.529  69.418  0.00  0.00     0.084 C 
HETATM   24  C   UNK     0      18.179  27.827  70.472  0.00  0.00     0.049 C 
BRANCH  23  25
HETATM   25  O   UNK     0      19.337  28.668  68.551  0.00  0.00    -0.387 OA
HETATM   26  H   UNK     0      19.022  28.414  67.668  0.00  0.00     0.210 HD
ENDBRANCH  23  25
BRANCH  23  27
HETATM   27  C   UNK     0      18.862  26.295  68.561  0.00  0.00     0.152 C 
BRANCH  27  28
HETATM   28  O   UNK     0      17.439  26.250  68.415  0.00  0.00    -0.393 OA
HETATM   29  H   UNK     0      17.101  27.147  68.585  0.00  0.00     0.210 HD
ENDBRANCH  27  28
BRANCH  27  30
HETATM   30  C   UNK     0      19.332  24.946  69.139  0.00  0.00     0.037 C 
BRANCH  30  31
HETATM   31  C   UNK     0      18.171  24.149  69.763  0.00  0.00     0.040 C 
BRANCH  31  32
HETATM   32  C   UNK     0      18.404  23.716  71.225  0.00  0.00     0.051 C 
HETATM   33  C   UNK     0      19.696  24.354  71.748  0.00  0.00     0.045 C 
HETATM   34  C   UNK     0      17.234  24.084  72.140  0.00  0.00     0.045 C 
BRANCH  32  35
HETATM   35  O   UNK     0      18.573  22.298  71.252  0.00  0.00    -0.391 OA
HETATM   36  H   UNK     0      17.939  21.934  71.893  0.00  0.00     0.210 HD
ENDBRANCH  32  35
ENDBRANCH  31  32
ENDBRANCH  30  31
ENDBRANCH  27  30
ENDBRANCH  23  27
ENDBRANCH   5  23
BRANCH  19  37
HETATM   37  O   UNK     0      25.025  29.181  77.830  0.00  0.00    -0.393 OA
HETATM   38  H   UNK     0      24.681  28.898  78.694  0.00  0.00     0.210 HD
ENDBRANCH  19  37
BRANCH  20  39
HETATM   39  O   UNK     0      22.828  27.563  78.290  0.00  0.00    -0.393 OA
HETATM   40  H   UNK     0      23.591  27.100  78.677  0.00  0.00     0.210 HD
ENDBRANCH  20  39
ENDBRANCH   1   3
TORSDOF 11
ENDMDL
MODEL 5
REMARK VINA RESULT:      -8.3      3.973      8.231
REMARK  11 active torsions:
REMARK  status: ('A' for Active; 'I' for Inactive)
REMARK    1  A    between atoms: O_1  and  C_9 
REMARK    2  A    between atoms: O_2  and  C_19 
REMARK    3  A    between atoms: O_3  and  C_26 
REMARK    4  A    between atoms: O_4  and  C_27 
REMARK    5  A    between atoms: O_6  and  C_28 
REMARK    6  A    between atoms: O_7  and  C_32 
REMARK    7  A    between atoms: C_10  and  C_19 
REMARK    8  A    between atoms: C_19  and  C_27 
REMARK    9  A    between atoms: C_27  and  C_30 
REMARK   10  A    between atoms: C_30  and  C_31 
REMARK   11  A    between atoms: C_31  and  C_32 
ROOT
HETATM    1  O   UNK     0      23.970  26.399  76.412  0.00  0.00    -0.384 OA
HETATM    2  H   UNK     0      24.174  27.274  76.786  0.00  0.00     0.211 HD
ENDROOT
BRANCH   1   3
HETATM    3  C   UNK     0      22.996  26.584  75.360  0.00  0.00     0.089 C 
HETATM    4  C   UNK     0      23.700  27.150  74.100  0.00  0.00    -0.002 C 
HETATM    5  C   UNK     0      24.168  28.531  74.627  0.00  0.00     0.034 C 
HETATM    6  C   UNK     0      24.854  26.206  73.717  0.00  0.00     0.014 C 
HETATM    7  C   UNK     0      22.738  27.316  72.892  0.00  0.00     0.019 C 
HETATM    8  C   UNK     0      22.982  29.016  75.491  0.00  0.00     0.012 C 
HETATM    9  C   UNK     0      22.127  27.769  75.807  0.00  0.00     0.044 C 
HETATM   10  C   UNK     0      24.333  24.787  73.432  0.00  0.00     0.011 C 
HETATM   11  C   UNK     0      23.402  24.189  74.532  0.00  0.00     0.027 C 
HETATM   12  C   UNK     0      22.716  22.844  74.072  0.00  0.00    -0.023 C 
HETATM   13  C   UNK     0      22.409  25.212  75.103  0.00  0.00    -0.037 C 
HETATM   14  C   UNK     0      21.655  22.402  75.118  0.00  0.00     0.071 C 
HETATM   15  C   UNK     0      23.755  21.698  73.908  0.00  0.00     0.044 C 
HETATM   16  C   UNK     0      22.002  23.006  72.702  0.00  0.00     0.016 C 
HETATM   17  C   UNK     0      22.265  21.922  76.447  0.00  0.00     0.047 C 
HETATM   18  C   UNK     0      20.659  23.512  75.391  0.00  0.00     0.154 C 
HETATM   19  C   UNK     0      23.279  20.799  76.231  0.00  0.00     0.147 C 
HETATM   20  C   UNK     0      24.358  21.221  75.234  0.00  0.00     0.147 C 
HETATM   21  O   UNK     0      19.476  23.274  75.635  0.00  0.00    -0.293 OA
HETATM   22  C   UNK     0      21.148  24.908  75.446  0.00  0.00     0.057 C 
BRANCH   5  23
HETATM   23  C   UNK     0      24.590  29.553  73.577  0.00  0.00     0.084 C 
HETATM   24  C   UNK     0      25.126  30.818  74.268  0.00  0.00     0.049 C 
BRANCH  23  25
HETATM   25  O   UNK     0      25.666  28.996  72.810  0.00  0.00    -0.387 OA
HETATM   26  H   UNK     0      25.300  28.580  72.011  0.00  0.00     0.210 HD
ENDBRANCH  23  25
BRANCH  23  27
HETATM   27  C   UNK     0      23.433  29.907  72.604  0.00  0.00     0.152 C 
BRANCH  27  28
HETATM   28  O   UNK     0      23.971  30.231  71.318  0.00  0.00    -0.393 OA
HETATM   29  H   UNK     0      23.352  29.887  70.649  0.00  0.00     0.210 HD
ENDBRANCH  27  28
BRANCH  27  30
HETATM   30  C   UNK     0      22.552  31.082  73.070  0.00  0.00     0.037 C 
BRANCH  30  31
HETATM   31  C   UNK     0      21.065  30.689  73.158  0.00  0.00     0.040 C 
BRANCH  31  32
HETATM   32  C   UNK     0      20.305  30.758  71.818  0.00  0.00     0.051 C 
HETATM   33  C   UNK     0      20.162  29.347  71.237  0.00  0.00     0.045 C 
HETATM   34  C   UNK     0      18.926  31.405  71.958  0.00  0.00     0.045 C 
BRANCH  32  35
HETATM   35  O   UNK     0      21.079  31.533  70.901  0.00  0.00    -0.391 OA
HETATM   36  H   UNK     0      22.006  31.502  71.192  0.00  0.00     0.210 HD
ENDBRANCH  32  35
ENDBRANCH  31  32
ENDBRANCH  30  31
ENDBRANCH  27  30
ENDBRANCH  23  27
ENDBRANCH   5  23
BRANCH  19  37
HETATM   37  O   UNK     0      22.600  19.646  75.731  0.00  0.00    -0.393 OA
HETATM   38  H   UNK     0      23.241  18.916  75.707  0.00  0.00     0.210 HD
ENDBRANCH  19  37
BRANCH  20  39
HETATM   39  O   UNK     0      25.226  20.116  74.994  0.00  0.00    -0.393 OA
HETATM   40  H   UNK     0      24.940  19.694  74.166  0.00  0.00     0.210 HD
ENDBRANCH  20  39
ENDBRANCH   1   3
TORSDOF 11
ENDMDL
MODEL 6
REMARK VINA RESULT:      -8.3      4.180      6.377
REMARK  11 active torsions:
REMARK  status: ('A' for Active; 'I' for Inactive)
REMARK    1  A    between atoms: O_1  and  C_9 
REMARK    2  A    between atoms: O_2  and  C_19 
REMARK    3  A    between atoms: O_3  and  C_26 
REMARK    4  A    between atoms: O_4  and  C_27 
REMARK    5  A    between atoms: O_6  and  C_28 
REMARK    6  A    between atoms: O_7  and  C_32 
REMARK    7  A    between atoms: C_10  and  C_19 
REMARK    8  A    between atoms: C_19  and  C_27 
REMARK    9  A    between atoms: C_27  and  C_30 
REMARK   10  A    between atoms: C_30  and  C_31 
REMARK   11  A    between atoms: C_31  and  C_32 
ROOT
HETATM    1  O   UNK     0      18.300  27.000  71.709  0.00  0.00    -0.384 OA
HETATM    2  H   UNK     0      17.850  27.328  72.507  0.00  0.00     0.211 HD
ENDROOT
BRANCH   1   3
HETATM    3  C   UNK     0      18.634  25.611  71.929  0.00  0.00     0.089 C 
HETATM    4  C   UNK     0      20.175  25.440  71.889  0.00  0.00    -0.002 C 
HETATM    5  C   UNK     0      20.470  25.821  70.415  0.00  0.00     0.034 C 
HETATM    6  C   UNK     0      20.802  26.398  72.917  0.00  0.00     0.014 C 
HETATM    7  C   UNK     0      20.630  23.985  72.185  0.00  0.00     0.019 C 
HETATM    8  C   UNK     0      19.306  25.175  69.629  0.00  0.00     0.012 C 
HETATM    9  C   UNK     0      18.192  24.874  70.656  0.00  0.00     0.044 C 
HETATM   10  C   UNK     0      20.280  26.105  74.334  0.00  0.00     0.011 C 
HETATM   11  C   UNK     0      18.728  26.011  74.462  0.00  0.00     0.027 C 
HETATM   12  C   UNK     0      18.274  25.475  75.876  0.00  0.00    -0.023 C 
HETATM   13  C   UNK     0      18.069  25.267  73.291  0.00  0.00    -0.037 C 
HETATM   14  C   UNK     0      16.741  25.214  75.880  0.00  0.00     0.071 C 
HETATM   15  C   UNK     0      18.604  26.490  77.007  0.00  0.00     0.044 C 
HETATM   16  C   UNK     0      18.989  24.145  76.240  0.00  0.00     0.016 C 
HETATM   17  C   UNK     0      15.899  26.500  75.825  0.00  0.00     0.047 C 
HETATM   18  C   UNK     0      16.339  24.296  74.741  0.00  0.00     0.154 C 
HETATM   19  C   UNK     0      16.262  27.463  76.954  0.00  0.00     0.147 C 
HETATM   20  C   UNK     0      17.760  27.769  76.950  0.00  0.00     0.147 C 
HETATM   21  O   UNK     0      15.425  23.482  74.859  0.00  0.00    -0.293 OA
HETATM   22  C   UNK     0      17.014  24.451  73.432  0.00  0.00     0.057 C 
BRANCH   5  23
HETATM   23  C   UNK     0      21.838  25.430  69.871  0.00  0.00     0.084 C 
HETATM   24  C   UNK     0      22.890  25.525  70.989  0.00  0.00     0.049 C 
BRANCH  23  25
HETATM   25  O   UNK     0      21.784  24.061  69.449  0.00  0.00    -0.387 OA
HETATM   26  H   UNK     0      22.691  23.733  69.330  0.00  0.00     0.210 HD
ENDBRANCH  23  25
BRANCH  23  27
HETATM   27  C   UNK     0      22.255  26.297  68.652  0.00  0.00     0.152 C 
BRANCH  27  28
HETATM   28  O   UNK     0      23.680  26.283  68.518  0.00  0.00    -0.393 OA
HETATM   29  H   UNK     0      23.953  27.171  68.229  0.00  0.00     0.210 HD
ENDBRANCH  27  28
BRANCH  27  30
HETATM   30  C   UNK     0      21.790  27.764  68.729  0.00  0.00     0.037 C 
BRANCH  30  31
HETATM   31  C   UNK     0      22.953  28.722  69.044  0.00  0.00     0.040 C 
BRANCH  31  32
HETATM   32  C   UNK     0      22.707  29.655  70.248  0.00  0.00     0.051 C 
HETATM   33  C   UNK     0      21.422  29.233  70.968  0.00  0.00     0.045 C 
HETATM   34  C   UNK     0      23.877  29.664  71.233  0.00  0.00     0.045 C 
BRANCH  32  35
HETATM   35  O   UNK     0      22.518  30.983  69.756  0.00  0.00    -0.391 OA
HETATM   36  H   UNK     0      22.892  31.599  70.409  0.00  0.00     0.210 HD
ENDBRANCH  32  35
ENDBRANCH  31  32
ENDBRANCH  30  31
ENDBRANCH  27  30
ENDBRANCH  23  27
ENDBRANCH   5  23
BRANCH  19  37
HETATM   37  O   UNK     0      15.904  26.874  78.205  0.00  0.00    -0.393 OA
HETATM   38  H   UNK     0      14.941  26.746  78.204  0.00  0.00     0.210 HD
ENDBRANCH  19  37
BRANCH  20  39
HETATM   39  O   UNK     0      18.067  28.595  78.071  0.00  0.00    -0.393 OA
HETATM   40  H   UNK     0      18.813  28.184  78.542  0.00  0.00     0.210 HD
ENDBRANCH  20  39
ENDBRANCH   1   3
TORSDOF 11
ENDMDL
MODEL 7
REMARK VINA RESULT:      -8.2      4.767      9.443
REMARK  11 active torsions:
REMARK  status: ('A' for Active; 'I' for Inactive)
REMARK    1  A    between atoms: O_1  and  C_9 
REMARK    2  A    between atoms: O_2  and  C_19 
REMARK    3  A    between atoms: O_3  and  C_26 
REMARK    4  A    between atoms: O_4  and  C_27 
REMARK    5  A    between atoms: O_6  and  C_28 
REMARK    6  A    between atoms: O_7  and  C_32 
REMARK    7  A    between atoms: C_10  and  C_19 
REMARK    8  A    between atoms: C_19  and  C_27 
REMARK    9  A    between atoms: C_27  and  C_30 
REMARK   10  A    between atoms: C_30  and  C_31 
REMARK   11  A    between atoms: C_31  and  C_32 
ROOT
HETATM    1  O   UNK     0      19.475  23.295  72.131  0.00  0.00    -0.384 OA
HETATM    2  H   UNK     0      18.785  23.457  71.464  0.00  0.00     0.211 HD
ENDROOT
BRANCH   1   3
HETATM    3  C   UNK     0      19.645  24.511  72.895  0.00  0.00     0.089 C 
HETATM    4  C   UNK     0      18.570  24.572  74.011  0.00  0.00    -0.002 C 
HETATM    5  C   UNK     0      17.277  24.666  73.162  0.00  0.00     0.034 C 
HETATM    6  C   UNK     0      18.669  23.290  74.858  0.00  0.00     0.014 C 
HETATM    7  C   UNK     0      18.721  25.816  74.928  0.00  0.00     0.019 C 
HETATM    8  C   UNK     0      17.665  25.614  72.005  0.00  0.00     0.012 C 
HETATM    9  C   UNK     0      19.208  25.649  71.960  0.00  0.00     0.044 C 
HETATM   10  C   UNK     0      20.066  23.149  75.484  0.00  0.00     0.011 C 
HETATM   11  C   UNK     0      21.258  23.310  74.490  0.00  0.00     0.027 C 
HETATM   12  C   UNK     0      22.650  23.394  75.230  0.00  0.00    -0.023 C 
HETATM   13  C   UNK     0      21.044  24.438  73.469  0.00  0.00    -0.037 C 
HETATM   14  C   UNK     0      23.772  23.752  74.215  0.00  0.00     0.071 C 
HETATM   15  C   UNK     0      23.017  22.047  75.915  0.00  0.00     0.044 C 
HETATM   16  C   UNK     0      22.642  24.479  76.340  0.00  0.00     0.016 C 
HETATM   17  C   UNK     0      24.090  22.617  73.225  0.00  0.00     0.047 C 
HETATM   18  C   UNK     0      23.433  25.014  73.445  0.00  0.00     0.154 C 
HETATM   19  C   UNK     0      24.441  21.318  73.948  0.00  0.00     0.147 C 
HETATM   20  C   UNK     0      23.335  20.920  74.926  0.00  0.00     0.147 C 
HETATM   21  O   UNK     0      24.302  25.812  73.097  0.00  0.00    -0.293 OA
HETATM   22  C   UNK     0      22.029  25.240  73.036  0.00  0.00     0.057 C 
BRANCH   5  23
HETATM   23  C   UNK     0      16.014  25.109  73.892  0.00  0.00     0.084 C 
HETATM   24  C   UNK     0      14.861  25.269  72.887  0.00  0.00     0.049 C 
BRANCH  23  25
HETATM   25  O   UNK     0      15.638  24.079  74.814  0.00  0.00    -0.387 OA
HETATM   26  H   UNK     0      15.874  23.216  74.436  0.00  0.00     0.210 HD
ENDBRANCH  23  25
BRANCH  23  27
HETATM   27  C   UNK     0      16.230  26.422  74.693  0.00  0.00     0.152 C 
BRANCH  27  28
HETATM   28  O   UNK     0      15.591  26.315  75.969  0.00  0.00    -0.393 OA
HETATM   29  H   UNK     0      14.910  27.009  76.013  0.00  0.00     0.210 HD
ENDBRANCH  27  28
BRANCH  27  30
HETATM   30  C   UNK     0      15.699  27.686  73.990  0.00  0.00     0.037 C 
BRANCH  30  31
HETATM   31  C   UNK     0      16.476  28.949  74.410  0.00  0.00     0.040 C 
BRANCH  31  32
HETATM   32  C   UNK     0      17.152  29.700  73.244  0.00  0.00     0.051 C 
HETATM   33  C   UNK     0      18.660  29.426  73.264  0.00  0.00     0.045 C 
HETATM   34  C   UNK     0      16.571  29.317  71.882  0.00  0.00     0.045 C 
BRANCH  32  35
HETATM   35  O   UNK     0      16.959  31.103  73.441  0.00  0.00    -0.391 OA
HETATM   36  H   UNK     0      16.100  31.228  73.878  0.00  0.00     0.210 HD
ENDBRANCH  32  35
ENDBRANCH  31  32
ENDBRANCH  30  31
ENDBRANCH  27  30
ENDBRANCH  23  27
ENDBRANCH   5  23
BRANCH  19  37
HETATM   37  O   UNK     0      25.663  21.497  74.666  0.00  0.00    -0.393 OA
HETATM   38  H   UNK     0      26.340  20.949  74.233  0.00  0.00     0.210 HD
ENDBRANCH  19  37
BRANCH  20  39
HETATM   39  O   UNK     0      23.745  19.757  75.642  0.00  0.00    -0.393 OA
HETATM   40  H   UNK     0      23.054  19.082  75.523  0.00  0.00     0.210 HD
ENDBRANCH  20  39
ENDBRANCH   1   3
TORSDOF 11
ENDMDL
MODEL 8
REMARK VINA RESULT:      -8.1      3.376      7.544
REMARK  11 active torsions:
REMARK  status: ('A' for Active; 'I' for Inactive)
REMARK    1  A    between atoms: O_1  and  C_9 
REMARK    2  A    between atoms: O_2  and  C_19 
REMARK    3  A    between atoms: O_3  and  C_26 
REMARK    4  A    between atoms: O_4  and  C_27 
REMARK    5  A    between atoms: O_6  and  C_28 
REMARK    6  A    between atoms: O_7  and  C_32 
REMARK    7  A    between atoms: C_10  and  C_19 
REMARK    8  A    between atoms: C_19  and  C_27 
REMARK    9  A    between atoms: C_27  and  C_30 
REMARK   10  A    between atoms: C_30  and  C_31 
REMARK   11  A    between atoms: C_31  and  C_32 
ROOT
HETATM    1  O   UNK     0      22.928  25.935  70.796  0.00  0.00    -0.384 OA
HETATM    2  H   UNK     0      23.738  26.423  71.024  0.00  0.00     0.211 HD
ENDROOT
BRANCH   1   3
HETATM    3  C   UNK     0      21.818  26.858  70.880  0.00  0.00     0.089 C 
HETATM    4  C   UNK     0      20.545  26.093  71.327  0.00  0.00    -0.002 C 
HETATM    5  C   UNK     0      20.342  25.140  70.122  0.00  0.00     0.034 C 
HETATM    6  C   UNK     0      20.849  25.368  72.651  0.00  0.00     0.014 C 
HETATM    7  C   UNK     0      19.315  27.022  71.511  0.00  0.00     0.019 C 
HETATM    8  C   UNK     0      20.680  26.020  68.896  0.00  0.00     0.012 C 
HETATM    9  C   UNK     0      21.481  27.229  69.427  0.00  0.00     0.044 C 
HETATM   10  C   UNK     0      21.270  26.366  73.742  0.00  0.00     0.011 C 
HETATM   11  C   UNK     0      22.395  27.365  73.328  0.00  0.00     0.027 C 
HETATM   12  C   UNK     0      22.609  28.506  74.399  0.00  0.00    -0.023 C 
HETATM   13  C   UNK     0      22.231  27.900  71.897  0.00  0.00    -0.037 C 
HETATM   14  C   UNK     0      23.592  29.577  73.848  0.00  0.00     0.071 C 
HETATM   15  C   UNK     0      23.188  27.942  75.728  0.00  0.00     0.044 C 
HETATM   16  C   UNK     0      21.273  29.216  74.752  0.00  0.00     0.016 C 
HETATM   17  C   UNK     0      25.042  29.077  73.731  0.00  0.00     0.047 C 
HETATM   18  C   UNK     0      23.129  30.105  72.504  0.00  0.00     0.154 C 
HETATM   19  C   UNK     0      25.562  28.533  75.061  0.00  0.00     0.147 C 
HETATM   20  C   UNK     0      24.634  27.448  75.608  0.00  0.00     0.147 C 
HETATM   21  O   UNK     0      23.310  31.276  72.173  0.00  0.00    -0.293 OA
HETATM   22  C   UNK     0      22.520  29.161  71.540  0.00  0.00     0.057 C 
BRANCH   5  23
HETATM   23  C   UNK     0      18.980  24.466  70.008  0.00  0.00     0.084 C 
HETATM   24  C   UNK     0      17.950  25.465  69.454  0.00  0.00     0.049 C 
BRANCH  23  25
HETATM   25  O   UNK     0      19.084  23.391  69.066  0.00  0.00    -0.387 OA
HETATM   26  H   UNK     0      19.667  23.664  68.338  0.00  0.00     0.210 HD
ENDBRANCH  23  25
BRANCH  23  27
HETATM   27  C   UNK     0      18.501  23.878  71.363  0.00  0.00     0.152 C 
BRANCH  27  28
HETATM   28  O   UNK     0      18.678  22.458  71.359  0.00  0.00    -0.393 OA
HETATM   29  H   UNK     0      18.520  22.148  70.450  0.00  0.00     0.210 HD
ENDBRANCH  27  28
BRANCH  27  30
HETATM   30  C   UNK     0      17.028  24.182  71.699  0.00  0.00     0.037 C 
BRANCH  30  31
HETATM   31  C   UNK     0      16.865  24.745  73.123  0.00  0.00     0.040 C 
BRANCH  31  32
HETATM   32  C   UNK     0      15.724  25.772  73.278  0.00  0.00     0.051 C 
HETATM   33  C   UNK     0      14.374  25.070  73.094  0.00  0.00     0.045 C 
HETATM   34  C   UNK     0      15.758  26.489  74.629  0.00  0.00     0.045 C 
BRANCH  32  35
HETATM   35  O   UNK     0      15.854  26.749  72.243  0.00  0.00    -0.391 OA
HETATM   36  H   UNK     0      15.238  26.513  71.529  0.00  0.00     0.210 HD
ENDBRANCH  32  35
ENDBRANCH  31  32
ENDBRANCH  30  31
ENDBRANCH  27  30
ENDBRANCH  23  27
ENDBRANCH   5  23
BRANCH  19  37
HETATM   37  O   UNK     0      25.645  29.602  76.004  0.00  0.00    -0.393 OA
HETATM   38  H   UNK     0      26.012  29.239  76.828  0.00  0.00     0.210 HD
ENDBRANCH  19  37
BRANCH  20  39
HETATM   39  O   UNK     0      25.106  27.036  76.888  0.00  0.00    -0.393 OA
HETATM   40  H   UNK     0      25.991  27.421  77.012  0.00  0.00     0.210 HD
ENDBRANCH  20  39
ENDBRANCH   1   3
TORSDOF 11
ENDMDL
MODEL 9
REMARK VINA RESULT:      -8.1      3.361      5.104
REMARK  11 active torsions:
REMARK  status: ('A' for Active; 'I' for Inactive)
REMARK    1  A    between atoms: O_1  and  C_9 
REMARK    2  A    between atoms: O_2  and  C_19 
REMARK    3  A    between atoms: O_3  and  C_26 
REMARK    4  A    between atoms: O_4  and  C_27 
REMARK    5  A    between atoms: O_6  and  C_28 
REMARK    6  A    between atoms: O_7  and  C_32 
REMARK    7  A    between atoms: C_10  and  C_19 
REMARK    8  A    between atoms: C_19  and  C_27 
REMARK    9  A    between atoms: C_27  and  C_30 
REMARK   10  A    between atoms: C_30  and  C_31 
REMARK   11  A    between atoms: C_31  and  C_32 
ROOT
HETATM    1  O   UNK     0      18.268  27.173  70.309  0.00  0.00    -0.384 OA
HETATM    2  H   UNK     0      18.614  27.925  69.797  0.00  0.00     0.211 HD
ENDROOT
BRANCH   1   3
HETATM    3  C   UNK     0      19.398  26.414  70.797  0.00  0.00     0.089 C 
HETATM    4  C   UNK     0      20.611  27.361  70.985  0.00  0.00    -0.002 C 
HETATM    5  C   UNK     0      20.868  27.796  69.519  0.00  0.00     0.034 C 
HETATM    6  C   UNK     0      20.193  28.516  71.913  0.00  0.00     0.014 C 
HETATM    7  C   UNK     0      21.855  26.641  71.574  0.00  0.00     0.019 C 
HETATM    8  C   UNK     0      20.645  26.500  68.707  0.00  0.00     0.012 C 
HETATM    9  C   UNK     0      19.847  25.540  69.616  0.00  0.00     0.044 C 
HETATM   10  C   UNK     0      19.728  27.984  73.279  0.00  0.00     0.011 C 
HETATM   11  C   UNK     0      18.667  26.842  73.220  0.00  0.00     0.027 C 
HETATM   12  C   UNK     0      18.415  26.182  74.632  0.00  0.00    -0.023 C 
HETATM   13  C   UNK     0      18.948  25.814  72.112  0.00  0.00    -0.037 C 
HETATM   14  C   UNK     0      17.507  24.930  74.481  0.00  0.00     0.071 C 
HETATM   15  C   UNK     0      17.727  27.175  75.613  0.00  0.00     0.044 C 
HETATM   16  C   UNK     0      19.744  25.735  75.299  0.00  0.00     0.016 C 
HETATM   17  C   UNK     0      16.053  25.266  74.105  0.00  0.00     0.047 C 
HETATM   18  C   UNK     0      18.078  23.958  73.466  0.00  0.00     0.154 C 
HETATM   19  C   UNK     0      15.425  26.244  75.097  0.00  0.00     0.147 C 
HETATM   20  C   UNK     0      16.278  27.505  75.237  0.00  0.00     0.147 C 
HETATM   21  O   UNK     0      17.958  22.741  73.599  0.00  0.00    -0.293 OA
HETATM   22  C   UNK     0      18.723  24.498  72.249  0.00  0.00     0.057 C 
BRANCH   5  23
HETATM   23  C   UNK     0      22.213  28.450  69.229  0.00  0.00     0.084 C 
HETATM   24  C   UNK     0      23.307  27.373  69.131  0.00  0.00     0.049 C 
BRANCH  23  25
HETATM   25  O   UNK     0      22.136  29.098  67.952  0.00  0.00    -0.387 OA
HETATM   26  H   UNK     0      21.235  28.998  67.603  0.00  0.00     0.210 HD
ENDBRANCH  23  25
BRANCH  23  27
HETATM   27  C   UNK     0      22.588  29.519  70.292  0.00  0.00     0.152 C 
BRANCH  27  28
HETATM   28  O   UNK     0      22.453  30.826  69.727  0.00  0.00    -0.393 OA
HETATM   29  H   UNK     0      22.930  30.827  68.878  0.00  0.00     0.210 HD
ENDBRANCH  27  28
BRANCH  27  30
HETATM   30  C   UNK     0      24.017  29.379  70.853  0.00  0.00     0.037 C 
BRANCH  30  31
HETATM   31  C   UNK     0      24.172  30.074  72.218  0.00  0.00     0.040 C 
BRANCH  31  32
HETATM   32  C   UNK     0      24.554  29.130  73.377  0.00  0.00     0.051 C 
HETATM   33  C   UNK     0      23.317  28.850  74.239  0.00  0.00     0.045 C 
HETATM   34  C   UNK     0      25.156  27.812  72.886  0.00  0.00     0.045 C 
BRANCH  32  35
HETATM   35  O   UNK     0      25.519  29.792  74.197  0.00  0.00    -0.391 OA
HETATM   36  H   UNK     0      25.189  30.687  74.384  0.00  0.00     0.210 HD
ENDBRANCH  32  35
ENDBRANCH  31  32
ENDBRANCH  30  31
ENDBRANCH  27  30
ENDBRANCH  23  27
ENDBRANCH   5  23
BRANCH  19  37
HETATM   37  O   UNK     0      15.310  25.609  76.372  0.00  0.00    -0.393 OA
HETATM   38  H   UNK     0      15.450  24.657  76.239  0.00  0.00     0.210 HD
ENDBRANCH  19  37
BRANCH  20  39
HETATM   39  O   UNK     0      15.705  28.345  76.236  0.00  0.00    -0.393 OA
HETATM   40  H   UNK     0      15.538  29.213  75.828  0.00  0.00     0.210 HD
ENDBRANCH  20  39
ENDBRANCH   1   3
TORSDOF 11
ENDMDL
