MODEL 1
REMARK VINA RESULT:      -7.5      0.000      0.000
REMARK  13 active torsions:
REMARK  status: ('A' for Active; 'I' for Inactive)
REMARK    1  A    between atoms: C_2  and  O_12 
REMARK    2  A    between atoms: C_3  and  O_10 
REMARK    3  A    between atoms: C_4  and  O_8 
REMARK    4  A    between atoms: C_5  and  O_6 
REMARK    5  A    between atoms: C_22  and  C_23 
REMARK    6  A    between atoms: O_12  and  C_13 
REMARK    7  A    between atoms: C_13  and  C_14 
REMARK    8  A    between atoms: C_15  and  C_16 
REMARK    9  A    between atoms: C_23  and  O_24 
REMARK   10  A    between atoms: O_24  and  C_25 
REMARK   11  A    between atoms: C_26  and  O_34 
REMARK   12  A    between atoms: C_27  and  O_32 
REMARK   13  A    between atoms: C_28  and  O_30 
ROOT
ATOM      1  O   LIG     1       7.344  43.364  19.995  0.00  0.00    -0.341 OA
ATOM      2  C   LIG     1       6.257  43.838  19.205  0.00  0.00     0.282 C 
ATOM      3  C   LIG     1       6.189  45.365  19.250  0.00  0.00     0.201 C 
ATOM      4  C   LIG     1       7.525  45.994  18.857  0.00  0.00     0.179 C 
ATOM      5  C   LIG     1       8.685  45.346  19.612  0.00  0.00     0.177 C 
ATOM      6  C   LIG     1       8.610  43.820  19.517  0.00  0.00     0.178 C 
ENDROOT
BRANCH   6   7
ATOM      7  C   LIG     1       9.691  43.148  20.359  0.00  0.00     0.197 C 
BRANCH   7   8
ATOM      8  O   LIG     1      10.059  44.028  21.406  0.00  0.00    -0.346 OA
BRANCH   8   9
ATOM      9  C   LIG     1      10.003  43.390  22.677  0.00  0.00     0.281 C 
ATOM     10  O   LIG     1       8.662  43.051  23.049  0.00  0.00    -0.346 OA
ATOM     11  C   LIG     1       7.829  44.183  23.289  0.00  0.00     0.197 C 
ATOM     12  C   LIG     1       8.386  45.028  24.428  0.00  0.00     0.171 C 
ATOM     13  C   LIG     1       9.813  45.480  24.116  0.00  0.00     0.178 C 
ATOM     14  C   LIG     1      10.678  44.274  23.736  0.00  0.00     0.201 C 
BRANCH  12  15
ATOM     15  O   LIG     1       7.559  46.160  24.655  0.00  0.00    -0.387 OA
ATOM     16  H   LIG     1       6.736  45.846  25.068  0.00  0.00     0.210 HD
ENDBRANCH  12  15
BRANCH  13  17
ATOM     17  O   LIG     1       9.787  46.409  23.034  0.00  0.00    -0.386 OA
ATOM     18  H   LIG     1      10.266  47.206  23.320  0.00  0.00     0.210 HD
ENDBRANCH  13  17
BRANCH  14  19
ATOM     19  O   LIG     1      10.909  43.476  24.894  0.00  0.00    -0.384 OA
ATOM     20  H   LIG     1      11.374  42.667  24.623  0.00  0.00     0.210 HD
ENDBRANCH  14  19
ENDBRANCH   8   9
ENDBRANCH   7   8
ENDBRANCH   6   7
BRANCH   5  21
ATOM     21  O   LIG     1       9.918  45.794  19.055  0.00  0.00    -0.386 OA
ATOM     22  H   LIG     1      10.641  45.412  19.582  0.00  0.00     0.210 HD
ENDBRANCH   5  21
BRANCH   2  23
ATOM     23  O   LIG     1       5.028  43.327  19.719  0.00  0.00    -0.345 OA
BRANCH  23  24
ATOM     24  C   LIG     1       4.724  43.888  20.986  0.00  0.00     0.190 C 
BRANCH  24  25
ATOM     25  C   LIG     1       4.273  42.796  21.901  0.00  0.00     0.001 C 
ATOM     26  C   LIG     1       3.314  42.958  22.826  0.00  0.00     0.006 C 
BRANCH  26  27
ATOM     27  C   LIG     1       2.828  41.909  23.738  0.00  0.00    -0.025 A 
ATOM     28  C   LIG     1       3.187  41.952  25.076  0.00  0.00     0.008 A 
ATOM     29  C   LIG     1       2.725  40.958  25.939  0.00  0.00     0.001 A 
ATOM     30  C   LIG     1       1.912  39.934  25.453  0.00  0.00     0.000 A 
ATOM     31  C   LIG     1       1.559  39.904  24.104  0.00  0.00     0.001 A 
ATOM     32  C   LIG     1       2.021  40.898  23.241  0.00  0.00     0.008 A 
ENDBRANCH  26  27
ENDBRANCH  24  25
ENDBRANCH  23  24
ENDBRANCH   2  23
BRANCH   4  33
ATOM     33  O   LIG     1       7.509  47.385  19.181  0.00  0.00    -0.386 OA
ATOM     34  H   LIG     1       6.893  47.820  18.567  0.00  0.00     0.210 HD
ENDBRANCH   4  33
BRANCH   3  35
ATOM     35  O   LIG     1       5.176  45.795  18.341  0.00  0.00    -0.384 OA
ATOM     36  H   LIG     1       5.461  45.562  17.441  0.00  0.00     0.210 HD
ENDBRANCH   3  35
TORSDOF 13
ENDMDL
MODEL 2
REMARK VINA RESULT:      -7.5      3.048      7.770
REMARK  13 active torsions:
REMARK  status: ('A' for Active; 'I' for Inactive)
REMARK    1  A    between atoms: C_2  and  O_12 
REMARK    2  A    between atoms: C_3  and  O_10 
REMARK    3  A    between atoms: C_4  and  O_8 
REMARK    4  A    between atoms: C_5  and  O_6 
REMARK    5  A    between atoms: C_22  and  C_23 
REMARK    6  A    between atoms: O_12  and  C_13 
REMARK    7  A    between atoms: C_13  and  C_14 
REMARK    8  A    between atoms: C_15  and  C_16 
REMARK    9  A    between atoms: C_23  and  O_24 
REMARK   10  A    between atoms: O_24  and  C_25 
REMARK   11  A    between atoms: C_26  and  O_34 
REMARK   12  A    between atoms: C_27  and  O_32 
REMARK   13  A    between atoms: C_28  and  O_30 
ROOT
ATOM      1  O   LIG     1       8.069  43.857  19.813  0.00  0.00    -0.341 OA
ATOM      2  C   LIG     1       8.845  44.759  20.598  0.00  0.00     0.282 C 
ATOM      3  C   LIG     1       8.834  46.156  19.975  0.00  0.00     0.201 C 
ATOM      4  C   LIG     1       7.407  46.650  19.742  0.00  0.00     0.179 C 
ATOM      5  C   LIG     1       6.561  45.590  19.038  0.00  0.00     0.177 C 
ATOM      6  C   LIG     1       6.693  44.236  19.740  0.00  0.00     0.178 C 
ENDROOT
BRANCH   6   7
ATOM      7  C   LIG     1       5.951  43.135  18.989  0.00  0.00     0.197 C 
BRANCH   7   8
ATOM      8  O   LIG     1       4.683  42.952  19.594  0.00  0.00    -0.346 OA
BRANCH   8   9
ATOM      9  C   LIG     1       4.736  43.154  21.002  0.00  0.00     0.281 C 
ATOM     10  O   LIG     1       5.036  41.944  21.707  0.00  0.00    -0.346 OA
ATOM     11  C   LIG     1       4.008  40.960  21.622  0.00  0.00     0.197 C 
ATOM     12  C   LIG     1       2.710  41.487  22.219  0.00  0.00     0.171 C 
ATOM     13  C   LIG     1       2.272  42.769  21.508  0.00  0.00     0.178 C 
ATOM     14  C   LIG     1       3.422  43.782  21.490  0.00  0.00     0.201 C 
BRANCH  12  15
ATOM     15  O   LIG     1       1.685  40.508  22.122  0.00  0.00    -0.387 OA
ATOM     16  H   LIG     1       2.111  39.657  21.921  0.00  0.00     0.210 HD
ENDBRANCH  12  15
BRANCH  13  17
ATOM     17  O   LIG     1       1.887  42.459  20.170  0.00  0.00    -0.386 OA
ATOM     18  H   LIG     1       1.666  41.512  20.141  0.00  0.00     0.210 HD
ENDBRANCH  13  17
BRANCH  14  19
ATOM     19  O   LIG     1       3.634  44.279  22.809  0.00  0.00    -0.384 OA
ATOM     20  H   LIG     1       4.483  43.937  23.134  0.00  0.00     0.210 HD
ENDBRANCH  14  19
ENDBRANCH   8   9
ENDBRANCH   7   8
ENDBRANCH   6   7
BRANCH   5  21
ATOM     21  O   LIG     1       5.195  45.994  19.046  0.00  0.00    -0.386 OA
ATOM     22  H   LIG     1       4.682  45.307  19.507  0.00  0.00     0.210 HD
ENDBRANCH   5  21
BRANCH   2  23
ATOM     23  O   LIG     1      10.197  44.311  20.652  0.00  0.00    -0.345 OA
BRANCH  23  24
ATOM     24  C   LIG     1      10.404  43.187  19.811  0.00  0.00     0.190 C 
BRANCH  24  25
ATOM     25  C   LIG     1      11.794  42.679  20.018  0.00  0.00     0.001 C 
ATOM     26  C   LIG     1      12.217  42.136  21.170  0.00  0.00     0.006 C 
BRANCH  26  27
ATOM     27  C   LIG     1      13.571  41.610  21.414  0.00  0.00    -0.025 A 
ATOM     28  C   LIG     1      14.638  42.116  20.688  0.00  0.00     0.008 A 
ATOM     29  C   LIG     1      15.919  41.618  20.920  0.00  0.00     0.001 A 
ATOM     30  C   LIG     1      16.118  40.619  21.874  0.00  0.00     0.000 A 
ATOM     31  C   LIG     1      15.035  40.119  22.596  0.00  0.00     0.001 A 
ATOM     32  C   LIG     1      13.753  40.618  22.365  0.00  0.00     0.008 A 
ENDBRANCH  26  27
ENDBRANCH  24  25
ENDBRANCH  23  24
ENDBRANCH   2  23
BRANCH   4  33
ATOM     33  O   LIG     1       7.436  47.813  18.912  0.00  0.00    -0.386 OA
ATOM     34  H   LIG     1       6.624  47.810  18.378  0.00  0.00     0.210 HD
ENDBRANCH   4  33
BRANCH   3  35
ATOM     35  O   LIG     1       9.506  47.047  20.865  0.00  0.00    -0.384 OA
ATOM     36  H   LIG     1      10.405  47.191  20.525  0.00  0.00     0.210 HD
ENDBRANCH   3  35
TORSDOF 13
ENDMDL
MODEL 3
REMARK VINA RESULT:      -7.4      1.943      3.269
REMARK  13 active torsions:
REMARK  status: ('A' for Active; 'I' for Inactive)
REMARK    1  A    between atoms: C_2  and  O_12 
REMARK    2  A    between atoms: C_3  and  O_10 
REMARK    3  A    between atoms: C_4  and  O_8 
REMARK    4  A    between atoms: C_5  and  O_6 
REMARK    5  A    between atoms: C_22  and  C_23 
REMARK    6  A    between atoms: O_12  and  C_13 
REMARK    7  A    between atoms: C_13  and  C_14 
REMARK    8  A    between atoms: C_15  and  C_16 
REMARK    9  A    between atoms: C_23  and  O_24 
REMARK   10  A    between atoms: O_24  and  C_25 
REMARK   11  A    between atoms: C_26  and  O_34 
REMARK   12  A    between atoms: C_27  and  O_32 
REMARK   13  A    between atoms: C_28  and  O_30 
ROOT
ATOM      1  O   LIG     1       7.060  44.041  21.168  0.00  0.00    -0.341 OA
ATOM      2  C   LIG     1       6.185  44.166  20.049  0.00  0.00     0.282 C 
ATOM      3  C   LIG     1       6.168  45.608  19.541  0.00  0.00     0.201 C 
ATOM      4  C   LIG     1       7.581  46.111  19.247  0.00  0.00     0.179 C 
ATOM      5  C   LIG     1       8.527  45.815  20.410  0.00  0.00     0.177 C 
ATOM      6  C   LIG     1       8.415  44.351  20.842  0.00  0.00     0.178 C 
ENDROOT
BRANCH   6   7
ATOM      7  C   LIG     1       9.264  44.060  22.076  0.00  0.00     0.197 C 
BRANCH   7   8
ATOM      8  O   LIG     1      10.630  44.137  21.711  0.00  0.00    -0.346 OA
BRANCH   8   9
ATOM      9  C   LIG     1      11.353  42.981  22.121  0.00  0.00     0.281 C 
ATOM     10  O   LIG     1      12.650  43.311  22.631  0.00  0.00    -0.346 OA
ATOM     11  C   LIG     1      13.537  43.839  21.647  0.00  0.00     0.197 C 
ATOM     12  C   LIG     1      13.765  42.827  20.532  0.00  0.00     0.171 C 
ATOM     13  C   LIG     1      12.437  42.429  19.885  0.00  0.00     0.178 C 
ATOM     14  C   LIG     1      11.441  41.980  20.958  0.00  0.00     0.201 C 
BRANCH  12  15
ATOM     15  O   LIG     1      14.640  43.362  19.548  0.00  0.00    -0.387 OA
ATOM     16  H   LIG     1      14.098  43.862  18.914  0.00  0.00     0.210 HD
ENDBRANCH  12  15
BRANCH  13  17
ATOM     17  O   LIG     1      11.905  43.548  19.177  0.00  0.00    -0.386 OA
ATOM     18  H   LIG     1      12.654  44.103  18.901  0.00  0.00     0.210 HD
ENDBRANCH  13  17
BRANCH  14  19
ATOM     19  O   LIG     1      11.853  40.723  21.489  0.00  0.00    -0.384 OA
ATOM     20  H   LIG     1      12.481  40.886  22.213  0.00  0.00     0.210 HD
ENDBRANCH  14  19
ENDBRANCH   8   9
ENDBRANCH   7   8
ENDBRANCH   6   7
BRANCH   5  21
ATOM     21  O   LIG     1       9.867  46.087  20.008  0.00  0.00    -0.386 OA
ATOM     22  H   LIG     1       9.907  46.029  19.038  0.00  0.00     0.210 HD
ENDBRANCH   5  21
BRANCH   2  23
ATOM     23  O   LIG     1       4.856  43.819  20.435  0.00  0.00    -0.345 OA
BRANCH  23  24
ATOM     24  C   LIG     1       4.384  44.659  21.476  0.00  0.00     0.190 C 
BRANCH  24  25
ATOM     25  C   LIG     1       3.995  43.808  22.642  0.00  0.00     0.001 C 
ATOM     26  C   LIG     1       3.233  42.709  22.531  0.00  0.00     0.006 C 
BRANCH  26  27
ATOM     27  C   LIG     1       2.837  41.834  23.648  0.00  0.00    -0.025 A 
ATOM     28  C   LIG     1       2.018  40.744  23.399  0.00  0.00     0.008 A 
ATOM     29  C   LIG     1       1.643  39.916  24.457  0.00  0.00     0.001 A 
ATOM     30  C   LIG     1       2.092  40.188  25.749  0.00  0.00     0.000 A 
ATOM     31  C   LIG     1       2.916  41.288  25.984  0.00  0.00     0.001 A 
ATOM     32  C   LIG     1       3.291  42.117  24.926  0.00  0.00     0.008 A 
ENDBRANCH  26  27
ENDBRANCH  24  25
ENDBRANCH  23  24
ENDBRANCH   2  23
BRANCH   4  33
ATOM     33  O   LIG     1       7.550  47.526  19.052  0.00  0.00    -0.386 OA
ATOM     34  H   LIG     1       6.776  47.870  19.529  0.00  0.00     0.210 HD
ENDBRANCH   4  33
BRANCH   3  35
ATOM     35  O   LIG     1       5.390  45.651  18.345  0.00  0.00    -0.384 OA
ATOM     36  H   LIG     1       4.464  45.811  18.593  0.00  0.00     0.210 HD
ENDBRANCH   3  35
TORSDOF 13
ENDMDL
MODEL 4
REMARK VINA RESULT:      -7.4      1.382      2.010
REMARK  13 active torsions:
REMARK  status: ('A' for Active; 'I' for Inactive)
REMARK    1  A    between atoms: C_2  and  O_12 
REMARK    2  A    between atoms: C_3  and  O_10 
REMARK    3  A    between atoms: C_4  and  O_8 
REMARK    4  A    between atoms: C_5  and  O_6 
REMARK    5  A    between atoms: C_22  and  C_23 
REMARK    6  A    between atoms: O_12  and  C_13 
REMARK    7  A    between atoms: C_13  and  C_14 
REMARK    8  A    between atoms: C_15  and  C_16 
REMARK    9  A    between atoms: C_23  and  O_24 
REMARK   10  A    between atoms: O_24  and  C_25 
REMARK   11  A    between atoms: C_26  and  O_34 
REMARK   12  A    between atoms: C_27  and  O_32 
REMARK   13  A    between atoms: C_28  and  O_30 
ROOT
ATOM      1  O   LIG     1       6.792  44.065  21.115  0.00  0.00    -0.341 OA
ATOM      2  C   LIG     1       6.540  43.786  19.740  0.00  0.00     0.282 C 
ATOM      3  C   LIG     1       6.421  45.086  18.943  0.00  0.00     0.201 C 
ATOM      4  C   LIG     1       7.642  45.981  19.152  0.00  0.00     0.179 C 
ATOM      5  C   LIG     1       7.975  46.126  20.636  0.00  0.00     0.177 C 
ATOM      6  C   LIG     1       8.025  44.757  21.318  0.00  0.00     0.178 C 
ENDROOT
BRANCH   6   7
ATOM      7  C   LIG     1       8.241  44.882  22.823  0.00  0.00     0.197 C 
BRANCH   7   8
ATOM      8  O   LIG     1       9.578  45.288  23.054  0.00  0.00    -0.346 OA
BRANCH   8   9
ATOM      9  C   LIG     1      10.495  44.213  22.875  0.00  0.00     0.281 C 
ATOM     10  O   LIG     1      10.277  43.159  23.820  0.00  0.00    -0.346 OA
ATOM     11  C   LIG     1      10.565  43.526  25.167  0.00  0.00     0.197 C 
ATOM     12  C   LIG     1      12.026  43.931  25.312  0.00  0.00     0.171 C 
ATOM     13  C   LIG     1      12.362  45.087  24.368  0.00  0.00     0.178 C 
ATOM     14  C   LIG     1      11.937  44.740  22.938  0.00  0.00     0.201 C 
BRANCH  12  15
ATOM     15  O   LIG     1      12.305  44.307  26.654  0.00  0.00    -0.387 OA
ATOM     16  H   LIG     1      11.604  44.918  26.940  0.00  0.00     0.210 HD
ENDBRANCH  12  15
BRANCH  13  17
ATOM     17  O   LIG     1      11.676  46.261  24.799  0.00  0.00    -0.386 OA
ATOM     18  H   LIG     1      12.054  46.523  25.657  0.00  0.00     0.210 HD
ENDBRANCH  13  17
BRANCH  14  19
ATOM     19  O   LIG     1      12.798  43.728  22.421  0.00  0.00    -0.384 OA
ATOM     20  H   LIG     1      12.759  42.959  23.013  0.00  0.00     0.210 HD
ENDBRANCH  14  19
ENDBRANCH   8   9
ENDBRANCH   7   8
ENDBRANCH   6   7
BRANCH   5  21
ATOM     21  O   LIG     1       9.239  46.769  20.775  0.00  0.00    -0.386 OA
ATOM     22  H   LIG     1       9.110  47.573  21.309  0.00  0.00     0.210 HD
ENDBRANCH   5  21
BRANCH   2  23
ATOM     23  O   LIG     1       5.311  43.075  19.609  0.00  0.00    -0.345 OA
BRANCH  23  24
ATOM     24  C   LIG     1       4.274  43.693  20.354  0.00  0.00     0.190 C 
BRANCH  24  25
ATOM     25  C   LIG     1       3.671  42.681  21.273  0.00  0.00     0.001 C 
ATOM     26  C   LIG     1       3.589  42.847  22.602  0.00  0.00     0.006 C 
BRANCH  26  27
ATOM     27  C   LIG     1       2.991  41.885  23.543  0.00  0.00    -0.025 A 
ATOM     28  C   LIG     1       3.272  41.994  24.896  0.00  0.00     0.008 A 
ATOM     29  C   LIG     1       2.706  41.082  25.787  0.00  0.00     0.001 A 
ATOM     30  C   LIG     1       1.866  40.074  25.314  0.00  0.00     0.000 A 
ATOM     31  C   LIG     1       1.592  39.977  23.950  0.00  0.00     0.001 A 
ATOM     32  C   LIG     1       2.159  40.888  23.059  0.00  0.00     0.008 A 
ENDBRANCH  26  27
ENDBRANCH  24  25
ENDBRANCH  23  24
ENDBRANCH   2  23
BRANCH   4  33
ATOM     33  O   LIG     1       7.371  47.284  18.631  0.00  0.00    -0.386 OA
ATOM     34  H   LIG     1       7.904  47.917  19.140  0.00  0.00     0.210 HD
ENDBRANCH   4  33
BRANCH   3  35
ATOM     35  O   LIG     1       6.307  44.753  17.560  0.00  0.00    -0.384 OA
ATOM     36  H   LIG     1       5.474  45.128  17.227  0.00  0.00     0.210 HD
ENDBRANCH   3  35
TORSDOF 13
ENDMDL
MODEL 5
REMARK VINA RESULT:      -7.4      1.629      2.451
REMARK  13 active torsions:
REMARK  status: ('A' for Active; 'I' for Inactive)
REMARK    1  A    between atoms: C_2  and  O_12 
REMARK    2  A    between atoms: C_3  and  O_10 
REMARK    3  A    between atoms: C_4  and  O_8 
REMARK    4  A    between atoms: C_5  and  O_6 
REMARK    5  A    between atoms: C_22  and  C_23 
REMARK    6  A    between atoms: O_12  and  C_13 
REMARK    7  A    between atoms: C_13  and  C_14 
REMARK    8  A    between atoms: C_15  and  C_16 
REMARK    9  A    between atoms: C_23  and  O_24 
REMARK   10  A    between atoms: O_24  and  C_25 
REMARK   11  A    between atoms: C_26  and  O_34 
REMARK   12  A    between atoms: C_27  and  O_32 
REMARK   13  A    between atoms: C_28  and  O_30 
ROOT
ATOM      1  O   LIG     1       8.025  44.180  21.112  0.00  0.00    -0.341 OA
ATOM      2  C   LIG     1       7.316  44.904  20.108  0.00  0.00     0.282 C 
ATOM      3  C   LIG     1       8.291  45.664  19.208  0.00  0.00     0.201 C 
ATOM      4  C   LIG     1       9.353  44.732  18.626  0.00  0.00     0.179 C 
ATOM      5  C   LIG     1       9.978  43.858  19.713  0.00  0.00     0.177 C 
ATOM      6  C   LIG     1       8.894  43.189  20.562  0.00  0.00     0.178 C 
ENDROOT
BRANCH   6   7
ATOM      7  C   LIG     1       9.492  42.404  21.726  0.00  0.00     0.197 C 
BRANCH   7   8
ATOM      8  O   LIG     1       9.472  43.224  22.880  0.00  0.00    -0.346 OA
BRANCH   8   9
ATOM      9  C   LIG     1      10.737  43.249  23.532  0.00  0.00     0.281 C 
ATOM     10  O   LIG     1      10.621  43.601  24.916  0.00  0.00    -0.346 OA
ATOM     11  C   LIG     1      10.188  44.942  25.134  0.00  0.00     0.197 C 
ATOM     12  C   LIG     1      11.175  45.930  24.526  0.00  0.00     0.171 C 
ATOM     13  C   LIG     1      11.347  45.669  23.029  0.00  0.00     0.178 C 
ATOM     14  C   LIG     1      11.691  44.195  22.787  0.00  0.00     0.201 C 
BRANCH  12  15
ATOM     15  O   LIG     1      10.733  47.264  24.735  0.00  0.00    -0.387 OA
ATOM     16  H   LIG     1      10.066  47.245  25.443  0.00  0.00     0.210 HD
ENDBRANCH  12  15
BRANCH  13  17
ATOM     17  O   LIG     1      10.135  45.994  22.351  0.00  0.00    -0.386 OA
ATOM     18  H   LIG     1      10.370  46.283  21.453  0.00  0.00     0.210 HD
ENDBRANCH  13  17
BRANCH  14  19
ATOM     19  O   LIG     1      13.015  43.938  23.246  0.00  0.00    -0.384 OA
ATOM     20  H   LIG     1      13.371  44.754  23.634  0.00  0.00     0.210 HD
ENDBRANCH  14  19
ENDBRANCH   8   9
ENDBRANCH   7   8
ENDBRANCH   6   7
BRANCH   5  21
ATOM     21  O   LIG     1      10.787  42.854  19.104  0.00  0.00    -0.386 OA
ATOM     22  H   LIG     1      11.063  43.181  18.230  0.00  0.00     0.210 HD
ENDBRANCH   5  21
BRANCH   2  23
ATOM     23  O   LIG     1       6.450  45.857  20.722  0.00  0.00    -0.345 OA
BRANCH  23  24
ATOM     24  C   LIG     1       5.089  45.576  20.437  0.00  0.00     0.190 C 
BRANCH  24  25
ATOM     25  C   LIG     1       4.604  44.527  21.386  0.00  0.00     0.001 C 
ATOM     26  C   LIG     1       4.559  44.700  22.716  0.00  0.00     0.006 C 
BRANCH  26  27
ATOM     27  C   LIG     1       4.077  43.703  23.686  0.00  0.00    -0.025 A 
ATOM     28  C   LIG     1       3.280  42.657  23.247  0.00  0.00     0.008 A 
ATOM     29  C   LIG     1       2.824  41.713  24.166  0.00  0.00     0.001 A 
ATOM     30  C   LIG     1       3.169  41.826  25.512  0.00  0.00     0.000 A 
ATOM     31  C   LIG     1       3.971  42.883  25.940  0.00  0.00     0.001 A 
ATOM     32  C   LIG     1       4.428  43.828  25.021  0.00  0.00     0.008 A 
ENDBRANCH  26  27
ENDBRANCH  24  25
ENDBRANCH  23  24
ENDBRANCH   2  23
BRANCH   4  33
ATOM     33  O   LIG     1      10.394  45.509  18.032  0.00  0.00    -0.386 OA
ATOM     34  H   LIG     1      10.600  46.236  18.644  0.00  0.00     0.210 HD
ENDBRANCH   4  33
BRANCH   3  35
ATOM     35  O   LIG     1       7.547  46.257  18.144  0.00  0.00    -0.384 OA
ATOM     36  H   LIG     1       8.029  47.045  17.842  0.00  0.00     0.210 HD
ENDBRANCH   3  35
TORSDOF 13
ENDMDL
MODEL 6
REMARK VINA RESULT:      -7.3      4.153      8.533
REMARK  13 active torsions:
REMARK  status: ('A' for Active; 'I' for Inactive)
REMARK    1  A    between atoms: C_2  and  O_12 
REMARK    2  A    between atoms: C_3  and  O_10 
REMARK    3  A    between atoms: C_4  and  O_8 
REMARK    4  A    between atoms: C_5  and  O_6 
REMARK    5  A    between atoms: C_22  and  C_23 
REMARK    6  A    between atoms: O_12  and  C_13 
REMARK    7  A    between atoms: C_13  and  C_14 
REMARK    8  A    between atoms: C_15  and  C_16 
REMARK    9  A    between atoms: C_23  and  O_24 
REMARK   10  A    between atoms: O_24  and  C_25 
REMARK   11  A    between atoms: C_26  and  O_34 
REMARK   12  A    between atoms: C_27  and  O_32 
REMARK   13  A    between atoms: C_28  and  O_30 
ROOT
ATOM      1  O   LIG     1      10.138  43.485  21.676  0.00  0.00    -0.341 OA
ATOM      2  C   LIG     1      11.279  43.158  20.886  0.00  0.00     0.282 C 
ATOM      3  C   LIG     1      11.093  43.647  19.449  0.00  0.00     0.201 C 
ATOM      4  C   LIG     1      10.750  45.136  19.407  0.00  0.00     0.179 C 
ATOM      5  C   LIG     1       9.627  45.473  20.387  0.00  0.00     0.177 C 
ATOM      6  C   LIG     1       9.922  44.894  21.773  0.00  0.00     0.178 C 
ENDROOT
BRANCH   6   7
ATOM      7  C   LIG     1       8.762  45.117  22.738  0.00  0.00     0.197 C 
BRANCH   7   8
ATOM      8  O   LIG     1       7.659  45.622  22.007  0.00  0.00    -0.346 OA
BRANCH   8   9
ATOM      9  C   LIG     1       6.546  44.736  22.052  0.00  0.00     0.281 C 
ATOM     10  O   LIG     1       6.619  43.730  21.035  0.00  0.00    -0.346 OA
ATOM     11  C   LIG     1       6.493  44.241  19.711  0.00  0.00     0.197 C 
ATOM     12  C   LIG     1       5.148  44.932  19.527  0.00  0.00     0.171 C 
ATOM     13  C   LIG     1       4.978  46.061  20.546  0.00  0.00     0.178 C 
ATOM     14  C   LIG     1       5.237  45.536  21.962  0.00  0.00     0.201 C 
BRANCH  12  15
ATOM     15  O   LIG     1       5.032  45.450  18.210  0.00  0.00    -0.387 OA
ATOM     16  H   LIG     1       5.199  44.719  17.591  0.00  0.00     0.210 HD
ENDBRANCH  12  15
BRANCH  13  17
ATOM     17  O   LIG     1       5.900  47.107  20.248  0.00  0.00    -0.386 OA
ATOM     18  H   LIG     1       5.614  47.522  19.416  0.00  0.00     0.210 HD
ENDBRANCH  13  17
BRANCH  14  19
ATOM     19  O   LIG     1       4.168  44.677  22.351  0.00  0.00    -0.384 OA
ATOM     20  H   LIG     1       4.546  43.881  22.761  0.00  0.00     0.210 HD
ENDBRANCH  14  19
ENDBRANCH   8   9
ENDBRANCH   7   8
ENDBRANCH   6   7
BRANCH   5  21
ATOM     21  O   LIG     1       9.497  46.889  20.486  0.00  0.00    -0.386 OA
ATOM     22  H   LIG     1       8.587  47.087  20.771  0.00  0.00     0.210 HD
ENDBRANCH   5  21
BRANCH   2  23
ATOM     23  O   LIG     1      11.453  41.743  20.851  0.00  0.00    -0.345 OA
BRANCH  23  24
ATOM     24  C   LIG     1      12.155  41.280  21.993  0.00  0.00     0.190 C 
BRANCH  24  25
ATOM     25  C   LIG     1      13.613  41.219  21.670  0.00  0.00     0.001 C 
ATOM     26  C   LIG     1      14.510  40.570  22.428  0.00  0.00     0.006 C 
BRANCH  26  27
ATOM     27  C   LIG     1      15.952  40.471  22.141  0.00  0.00    -0.025 A 
ATOM     28  C   LIG     1      16.720  39.547  22.832  0.00  0.00     0.008 A 
ATOM     29  C   LIG     1      18.084  39.453  22.560  0.00  0.00     0.001 A 
ATOM     30  C   LIG     1      18.664  40.285  21.602  0.00  0.00     0.000 A 
ATOM     31  C   LIG     1      17.879  41.210  20.915  0.00  0.00     0.001 A 
ATOM     32  C   LIG     1      16.513  41.304  21.187  0.00  0.00     0.008 A 
ENDBRANCH  26  27
ENDBRANCH  24  25
ENDBRANCH  23  24
ENDBRANCH   2  23
BRANCH   4  33
ATOM     33  O   LIG     1      10.310  45.486  18.094  0.00  0.00    -0.386 OA
ATOM     34  H   LIG     1       9.677  46.218  18.185  0.00  0.00     0.210 HD
ENDBRANCH   4  33
BRANCH   3  35
ATOM     35  O   LIG     1      12.310  43.421  18.739  0.00  0.00    -0.384 OA
ATOM     36  H   LIG     1      12.892  44.185  18.886  0.00  0.00     0.210 HD
ENDBRANCH   3  35
TORSDOF 13
ENDMDL
MODEL 7
REMARK VINA RESULT:      -7.2      1.874      2.997
REMARK  13 active torsions:
REMARK  status: ('A' for Active; 'I' for Inactive)
REMARK    1  A    between atoms: C_2  and  O_12 
REMARK    2  A    between atoms: C_3  and  O_10 
REMARK    3  A    between atoms: C_4  and  O_8 
REMARK    4  A    between atoms: C_5  and  O_6 
REMARK    5  A    between atoms: C_22  and  C_23 
REMARK    6  A    between atoms: O_12  and  C_13 
REMARK    7  A    between atoms: C_13  and  C_14 
REMARK    8  A    between atoms: C_15  and  C_16 
REMARK    9  A    between atoms: C_23  and  O_24 
REMARK   10  A    between atoms: O_24  and  C_25 
REMARK   11  A    between atoms: C_26  and  O_34 
REMARK   12  A    between atoms: C_27  and  O_32 
REMARK   13  A    between atoms: C_28  and  O_30 
ROOT
ATOM      1  O   LIG     1       8.198  46.510  20.638  0.00  0.00    -0.341 OA
ATOM      2  C   LIG     1       7.252  45.866  19.789  0.00  0.00     0.282 C 
ATOM      3  C   LIG     1       7.931  45.360  18.516  0.00  0.00     0.201 C 
ATOM      4  C   LIG     1       9.134  44.475  18.840  0.00  0.00     0.179 C 
ATOM      5  C   LIG     1      10.043  45.135  19.876  0.00  0.00     0.177 C 
ATOM      6  C   LIG     1       9.232  45.627  21.077  0.00  0.00     0.178 C 
ENDROOT
BRANCH   6   7
ATOM      7  C   LIG     1      10.101  46.393  22.071  0.00  0.00     0.197 C 
BRANCH   7   8
ATOM      8  O   LIG     1       9.898  45.846  23.361  0.00  0.00    -0.346 OA
BRANCH   8   9
ATOM      9  C   LIG     1      11.076  45.224  23.862  0.00  0.00     0.281 C 
ATOM     10  O   LIG     1      11.311  43.950  23.253  0.00  0.00    -0.346 OA
ATOM     11  C   LIG     1      10.334  42.965  23.584  0.00  0.00     0.197 C 
ATOM     12  C   LIG     1      10.309  42.718  25.087  0.00  0.00     0.171 C 
ATOM     13  C   LIG     1      10.025  44.018  25.842  0.00  0.00     0.178 C 
ATOM     14  C   LIG     1      10.998  45.113  25.393  0.00  0.00     0.201 C 
BRANCH  12  15
ATOM     15  O   LIG     1       9.327  41.746  25.414  0.00  0.00    -0.387 OA
ATOM     16  H   LIG     1       9.793  40.946  25.712  0.00  0.00     0.210 HD
ENDBRANCH  12  15
BRANCH  13  17
ATOM     17  O   LIG     1       8.685  44.432  25.580  0.00  0.00    -0.386 OA
ATOM     18  H   LIG     1       8.477  45.156  26.194  0.00  0.00     0.210 HD
ENDBRANCH  13  17
BRANCH  14  19
ATOM     19  O   LIG     1      12.304  44.814  25.880  0.00  0.00    -0.384 OA
ATOM     20  H   LIG     1      12.216  44.307  26.704  0.00  0.00     0.210 HD
ENDBRANCH  14  19
ENDBRANCH   8   9
ENDBRANCH   7   8
ENDBRANCH   6   7
BRANCH   5  21
ATOM     21  O   LIG     1      11.016  44.192  20.319  0.00  0.00    -0.386 OA
ATOM     22  H   LIG     1      10.761  43.895  21.210  0.00  0.00     0.210 HD
ENDBRANCH   5  21
BRANCH   2  23
ATOM     23  O   LIG     1       6.236  46.792  19.408  0.00  0.00    -0.345 OA
BRANCH  23  24
ATOM     24  C   LIG     1       5.257  46.932  20.425  0.00  0.00     0.190 C 
BRANCH  24  25
ATOM     25  C   LIG     1       4.839  45.571  20.882  0.00  0.00     0.001 C 
ATOM     26  C   LIG     1       3.852  45.361  21.767  0.00  0.00     0.006 C 
BRANCH  26  27
ATOM     27  C   LIG     1       3.397  44.041  22.234  0.00  0.00    -0.025 A 
ATOM     28  C   LIG     1       2.462  43.341  21.488  0.00  0.00     0.008 A 
ATOM     29  C   LIG     1       2.032  42.091  21.932  0.00  0.00     0.001 A 
ATOM     30  C   LIG     1       2.541  41.556  23.115  0.00  0.00     0.000 A 
ATOM     31  C   LIG     1       3.481  42.272  23.856  0.00  0.00     0.001 A 
ATOM     32  C   LIG     1       3.912  43.523  23.412  0.00  0.00     0.008 A 
ENDBRANCH  26  27
ENDBRANCH  24  25
ENDBRANCH  23  24
ENDBRANCH   2  23
BRANCH   4  33
ATOM     33  O   LIG     1       9.900  44.259  17.654  0.00  0.00    -0.386 OA
ATOM     34  H   LIG     1       9.479  44.768  16.940  0.00  0.00     0.210 HD
ENDBRANCH   4  33
BRANCH   3  35
ATOM     35  O   LIG     1       6.976  44.607  17.768  0.00  0.00    -0.384 OA
ATOM     36  H   LIG     1       7.387  43.762  17.520  0.00  0.00     0.210 HD
ENDBRANCH   3  35
TORSDOF 13
ENDMDL
MODEL 8
REMARK VINA RESULT:      -7.2      2.659      4.079
REMARK  13 active torsions:
REMARK  status: ('A' for Active; 'I' for Inactive)
REMARK    1  A    between atoms: C_2  and  O_12 
REMARK    2  A    between atoms: C_3  and  O_10 
REMARK    3  A    between atoms: C_4  and  O_8 
REMARK    4  A    between atoms: C_5  and  O_6 
REMARK    5  A    between atoms: C_22  and  C_23 
REMARK    6  A    between atoms: O_12  and  C_13 
REMARK    7  A    between atoms: C_13  and  C_14 
REMARK    8  A    between atoms: C_15  and  C_16 
REMARK    9  A    between atoms: C_23  and  O_24 
REMARK   10  A    between atoms: O_24  and  C_25 
REMARK   11  A    between atoms: C_26  and  O_34 
REMARK   12  A    between atoms: C_27  and  O_32 
REMARK   13  A    between atoms: C_28  and  O_30 
ROOT
ATOM      1  O   LIG     1       8.830  44.845  21.107  0.00  0.00    -0.341 OA
ATOM      2  C   LIG     1       7.884  45.223  20.110  0.00  0.00     0.282 C 
ATOM      3  C   LIG     1       8.599  45.646  18.826  0.00  0.00     0.201 C 
ATOM      4  C   LIG     1       9.566  44.565  18.345  0.00  0.00     0.179 C 
ATOM      5  C   LIG     1      10.457  44.073  19.485  0.00  0.00     0.177 C 
ATOM      6  C   LIG     1       9.620  43.721  20.717  0.00  0.00     0.178 C 
ENDROOT
BRANCH   6   7
ATOM      7  C   LIG     1      10.496  43.337  21.905  0.00  0.00     0.197 C 
BRANCH   7   8
ATOM      8  O   LIG     1      11.812  43.801  21.663  0.00  0.00    -0.346 OA
BRANCH   8   9
ATOM      9  C   LIG     1      12.698  43.452  22.721  0.00  0.00     0.281 C 
ATOM     10  O   LIG     1      13.944  44.152  22.631  0.00  0.00    -0.346 OA
ATOM     11  C   LIG     1      14.730  43.783  21.500  0.00  0.00     0.197 C 
ATOM     12  C   LIG     1      15.078  42.301  21.548  0.00  0.00     0.171 C 
ATOM     13  C   LIG     1      13.808  41.450  21.608  0.00  0.00     0.178 C 
ATOM     14  C   LIG     1      12.905  41.930  22.749  0.00  0.00     0.201 C 
BRANCH  12  15
ATOM     15  O   LIG     1      15.850  41.936  20.413  0.00  0.00    -0.387 OA
ATOM     16  H   LIG     1      16.603  42.549  20.360  0.00  0.00     0.210 HD
ENDBRANCH  12  15
BRANCH  13  17
ATOM     17  O   LIG     1      13.110  41.558  20.368  0.00  0.00    -0.386 OA
ATOM     18  H   LIG     1      13.752  41.839  19.694  0.00  0.00     0.210 HD
ENDBRANCH  13  17
BRANCH  14  19
ATOM     19  O   LIG     1      13.501  41.589  23.998  0.00  0.00    -0.384 OA
ATOM     20  H   LIG     1      12.980  41.997  24.709  0.00  0.00     0.210 HD
ENDBRANCH  14  19
ENDBRANCH   8   9
ENDBRANCH   7   8
ENDBRANCH   6   7
BRANCH   5  21
ATOM     21  O   LIG     1      11.176  42.918  19.057  0.00  0.00    -0.386 OA
ATOM     22  H   LIG     1      11.707  43.166  18.281  0.00  0.00     0.210 HD
ENDBRANCH   5  21
BRANCH   2  23
ATOM     23  O   LIG     1       7.114  46.331  20.571  0.00  0.00    -0.345 OA
BRANCH  23  24
ATOM     24  C   LIG     1       5.750  46.203  20.200  0.00  0.00     0.190 C 
BRANCH  24  25
ATOM     25  C   LIG     1       5.182  44.990  20.864  0.00  0.00     0.001 C 
ATOM     26  C   LIG     1       4.091  45.020  21.644  0.00  0.00     0.006 C 
BRANCH  26  27
ATOM     27  C   LIG     1       3.488  43.850  22.306  0.00  0.00    -0.025 A 
ATOM     28  C   LIG     1       3.959  43.454  23.548  0.00  0.00     0.008 A 
ATOM     29  C   LIG     1       3.387  42.347  24.174  0.00  0.00     0.001 A 
ATOM     30  C   LIG     1       2.354  41.649  23.550  0.00  0.00     0.000 A 
ATOM     31  C   LIG     1       1.891  42.058  22.300  0.00  0.00     0.001 A 
ATOM     32  C   LIG     1       2.462  43.166  21.674  0.00  0.00     0.008 A 
ENDBRANCH  26  27
ENDBRANCH  24  25
ENDBRANCH  23  24
ENDBRANCH   2  23
BRANCH   4  33
ATOM     33  O   LIG     1      10.410  45.101  17.325  0.00  0.00    -0.386 OA
ATOM     34  H   LIG     1      10.884  44.356  16.918  0.00  0.00     0.210 HD
ENDBRANCH   4  33
BRANCH   3  35
ATOM     35  O   LIG     1       7.612  45.881  17.821  0.00  0.00    -0.384 OA
ATOM     36  H   LIG     1       8.067  46.179  17.016  0.00  0.00     0.210 HD
ENDBRANCH   3  35
TORSDOF 13
ENDMDL
MODEL 9
REMARK VINA RESULT:      -7.1      1.282      2.002
REMARK  13 active torsions:
REMARK  status: ('A' for Active; 'I' for Inactive)
REMARK    1  A    between atoms: C_2  and  O_12 
REMARK    2  A    between atoms: C_3  and  O_10 
REMARK    3  A    between atoms: C_4  and  O_8 
REMARK    4  A    between atoms: C_5  and  O_6 
REMARK    5  A    between atoms: C_22  and  C_23 
REMARK    6  A    between atoms: O_12  and  C_13 
REMARK    7  A    between atoms: C_13  and  C_14 
REMARK    8  A    between atoms: C_15  and  C_16 
REMARK    9  A    between atoms: C_23  and  O_24 
REMARK   10  A    between atoms: O_24  and  C_25 
REMARK   11  A    between atoms: C_26  and  O_34 
REMARK   12  A    between atoms: C_27  and  O_32 
REMARK   13  A    between atoms: C_28  and  O_30 
ROOT
ATOM      1  O   LIG     1       7.188  43.500  20.376  0.00  0.00    -0.341 OA
ATOM      2  C   LIG     1       6.176  43.738  19.400  0.00  0.00     0.282 C 
ATOM      3  C   LIG     1       6.057  45.234  19.106  0.00  0.00     0.201 C 
ATOM      4  C   LIG     1       7.407  45.833  18.715  0.00  0.00     0.179 C 
ATOM      5  C   LIG     1       8.501  45.423  19.700  0.00  0.00     0.177 C 
ATOM      6  C   LIG     1       8.483  43.910  19.933  0.00  0.00     0.178 C 
ENDROOT
BRANCH   6   7
ATOM      7  C   LIG     1       9.489  43.491  21.001  0.00  0.00     0.197 C 
BRANCH   7   8
ATOM      8  O   LIG     1       8.787  43.223  22.201  0.00  0.00    -0.346 OA
BRANCH   8   9
ATOM      9  C   LIG     1       8.992  44.244  23.172  0.00  0.00     0.281 C 
ATOM     10  O   LIG     1       9.863  43.817  24.225  0.00  0.00    -0.346 OA
ATOM     11  C   LIG     1       9.313  42.786  25.043  0.00  0.00     0.197 C 
ATOM     12  C   LIG     1       8.033  43.262  25.717  0.00  0.00     0.171 C 
ATOM     13  C   LIG     1       7.008  43.710  24.674  0.00  0.00     0.178 C 
ATOM     14  C   LIG     1       7.640  44.727  23.717  0.00  0.00     0.201 C 
BRANCH  12  15
ATOM     15  O   LIG     1       7.483  42.228  26.521  0.00  0.00    -0.387 OA
ATOM     16  H   LIG     1       7.643  42.462  27.452  0.00  0.00     0.210 HD
ENDBRANCH  12  15
BRANCH  13  17
ATOM     17  O   LIG     1       6.560  42.574  23.936  0.00  0.00    -0.386 OA
ATOM     18  H   LIG     1       6.491  42.840  23.003  0.00  0.00     0.210 HD
ENDBRANCH  13  17
BRANCH  14  19
ATOM     19  O   LIG     1       7.855  45.955  24.409  0.00  0.00    -0.384 OA
ATOM     20  H   LIG     1       7.015  46.235  24.807  0.00  0.00     0.210 HD
ENDBRANCH  14  19
ENDBRANCH   8   9
ENDBRANCH   7   8
ENDBRANCH   6   7
BRANCH   5  21
ATOM     21  O   LIG     1       9.772  45.805  19.181  0.00  0.00    -0.386 OA
ATOM     22  H   LIG     1       9.735  45.729  18.212  0.00  0.00     0.210 HD
ENDBRANCH   5  21
BRANCH   2  23
ATOM     23  O   LIG     1       4.917  43.284  19.892  0.00  0.00    -0.345 OA
BRANCH  23  24
ATOM     24  C   LIG     1       4.552  43.962  21.084  0.00  0.00     0.190 C 
BRANCH  24  25
ATOM     25  C   LIG     1       3.650  43.079  21.884  0.00  0.00     0.001 C 
ATOM     26  C   LIG     1       3.818  41.752  21.986  0.00  0.00     0.006 C 
BRANCH  26  27
ATOM     27  C   LIG     1       2.964  40.845  22.773  0.00  0.00    -0.025 A 
ATOM     28  C   LIG     1       2.723  41.128  24.108  0.00  0.00     0.008 A 
ATOM     29  C   LIG     1       1.915  40.269  24.852  0.00  0.00     0.001 A 
ATOM     30  C   LIG     1       1.359  39.139  24.253  0.00  0.00     0.000 A 
ATOM     31  C   LIG     1       1.611  38.867  22.909  0.00  0.00     0.001 A 
ATOM     32  C   LIG     1       2.419  39.726  22.164  0.00  0.00     0.008 A 
ENDBRANCH  26  27
ENDBRANCH  24  25
ENDBRANCH  23  24
ENDBRANCH   2  23
BRANCH   4  33
ATOM     33  O   LIG     1       7.316  47.259  18.726  0.00  0.00    -0.386 OA
ATOM     34  H   LIG     1       6.579  47.507  18.142  0.00  0.00     0.210 HD
ENDBRANCH   4  33
BRANCH   3  35
ATOM     35  O   LIG     1       5.133  45.405  18.031  0.00  0.00    -0.384 OA
ATOM     36  H   LIG     1       5.338  44.744  17.349  0.00  0.00     0.210 HD
ENDBRANCH   3  35
TORSDOF 13
ENDMDL
