MODEL 1
REMARK VINA RESULT:      -6.7      0.000      0.000
REMARK  4 active torsions:
REMARK  status: ('A' for Active; 'I' for Inactive)
REMARK    1  A    between atoms: O_1  and  C_10 
REMARK    2  A    between atoms: O_1  and  C_11 
REMARK    3  A    between atoms: N_3  and  C_7 
REMARK    4  A    between atoms: C_4  and  C_10 
ROOT
HETATM    1  O   UNK     0      10.420  21.172  26.990  0.00  0.00    -0.318 OA
ENDROOT
BRANCH   1   2
HETATM    2  C   UNK     0       9.346  22.020  26.978  0.00  0.00     0.293 C 
HETATM    3  O   UNK     0       8.766  22.417  27.997  0.00  0.00    -0.259 OA
BRANCH   2   4
HETATM    4  C   UNK     0       8.974  22.394  25.623  0.00  0.00     0.039 A 
HETATM    5  C   UNK     0       8.649  21.406  24.692  0.00  0.00     0.020 A 
HETATM    6  C   UNK     0       8.294  21.764  23.391  0.00  0.00     0.030 A 
HETATM    7  C   UNK     0       8.262  23.109  23.021  0.00  0.00     0.025 A 
HETATM    8  C   UNK     0       8.587  24.095  23.952  0.00  0.00     0.030 A 
HETATM    9  C   UNK     0       8.944  23.738  25.252  0.00  0.00     0.020 A 
BRANCH   7  10
HETATM   10  N   UNK     0       7.903  23.470  21.707  0.00  0.00    -0.399 N 
HETATM   11  H   UNK     0       6.955  23.330  21.384  0.00  0.00     0.156 HD
HETATM   12  H   UNK     0       8.594  23.868  21.084  0.00  0.00     0.156 HD
ENDBRANCH   7  10
ENDBRANCH   2   4
ENDBRANCH   1   2
BRANCH   1  13
HETATM   13  C   UNK     0      11.711  21.761  26.796  0.00  0.00     0.174 C 
HETATM   14  C   UNK     0      12.330  22.045  28.147  0.00  0.00     0.034 C 
ENDBRANCH   1  13
TORSDOF 4
ENDMDL
MODEL 2
REMARK VINA RESULT:      -6.6      1.709      2.240
REMARK  4 active torsions:
REMARK  status: ('A' for Active; 'I' for Inactive)
REMARK    1  A    between atoms: O_1  and  C_10 
REMARK    2  A    between atoms: O_1  and  C_11 
REMARK    3  A    between atoms: N_3  and  C_7 
REMARK    4  A    between atoms: C_4  and  C_10 
ROOT
HETATM    1  O   UNK     0      11.712  21.556  28.184  0.00  0.00    -0.318 OA
ENDROOT
BRANCH   1   2
HETATM    2  C   UNK     0      10.877  22.472  27.603  0.00  0.00     0.293 C 
HETATM    3  O   UNK     0      10.599  23.569  28.103  0.00  0.00    -0.259 OA
BRANCH   2   4
HETATM    4  C   UNK     0      10.361  21.992  26.331  0.00  0.00     0.039 A 
HETATM    5  C   UNK     0      11.093  21.068  25.586  0.00  0.00     0.020 A 
HETATM    6  C   UNK     0      10.598  20.608  24.365  0.00  0.00     0.030 A 
HETATM    7  C   UNK     0       9.371  21.072  23.890  0.00  0.00     0.025 A 
HETATM    8  C   UNK     0       8.639  21.996  24.636  0.00  0.00     0.030 A 
HETATM    9  C   UNK     0       9.134  22.456  25.856  0.00  0.00     0.020 A 
BRANCH   7  10
HETATM   10  N   UNK     0       8.871  20.607  22.657  0.00  0.00    -0.399 N 
HETATM   11  H   UNK     0       7.980  20.940  22.314  0.00  0.00     0.156 HD
HETATM   12  H   UNK     0       9.403  19.939  22.114  0.00  0.00     0.156 HD
ENDBRANCH   7  10
ENDBRANCH   2   4
ENDBRANCH   1   2
BRANCH   1  13
HETATM   13  C   UNK     0      12.943  22.053  28.722  0.00  0.00     0.174 C 
HETATM   14  C   UNK     0      14.076  21.159  28.266  0.00  0.00     0.034 C 
ENDBRANCH   1  13
TORSDOF 4
ENDMDL
MODEL 3
REMARK VINA RESULT:      -6.6     27.105     28.889
REMARK  4 active torsions:
REMARK  status: ('A' for Active; 'I' for Inactive)
REMARK    1  A    between atoms: O_1  and  C_10 
REMARK    2  A    between atoms: O_1  and  C_11 
REMARK    3  A    between atoms: N_3  and  C_7 
REMARK    4  A    between atoms: C_4  and  C_10 
ROOT
HETATM    1  O   UNK     0      33.346  34.102  30.460  0.00  0.00    -0.318 OA
ENDROOT
BRANCH   1   2
HETATM    2  C   UNK     0      34.657  34.482  30.553  0.00  0.00     0.293 C 
HETATM    3  O   UNK     0      35.333  34.391  31.587  0.00  0.00    -0.259 OA
BRANCH   2   4
HETATM    4  C   UNK     0      35.153  35.004  29.290  0.00  0.00     0.039 A 
HETATM    5  C   UNK     0      35.667  34.133  28.329  0.00  0.00     0.020 A 
HETATM    6  C   UNK     0      36.143  34.634  27.117  0.00  0.00     0.030 A 
HETATM    7  C   UNK     0      36.105  36.005  26.865  0.00  0.00     0.025 A 
HETATM    8  C   UNK     0      35.590  36.876  27.826  0.00  0.00     0.030 A 
HETATM    9  C   UNK     0      35.115  36.376  29.038  0.00  0.00     0.020 A 
BRANCH   7  10
HETATM   10  N   UNK     0      36.586  36.511  25.641  0.00  0.00    -0.399 N 
HETATM   11  H   UNK     0      37.443  37.047  25.616  0.00  0.00     0.156 HD
HETATM   12  H   UNK     0      36.073  36.340  24.785  0.00  0.00     0.156 HD
ENDBRANCH   7  10
ENDBRANCH   2   4
ENDBRANCH   1   2
BRANCH   1  13
HETATM   13  C   UNK     0      32.413  34.787  31.304  0.00  0.00     0.174 C 
HETATM   14  C   UNK     0      31.708  35.853  30.494  0.00  0.00     0.034 C 
ENDBRANCH   1  13
TORSDOF 4
ENDMDL
MODEL 4
REMARK VINA RESULT:      -6.5      9.582     10.945
REMARK  4 active torsions:
REMARK  status: ('A' for Active; 'I' for Inactive)
REMARK    1  A    between atoms: O_1  and  C_10 
REMARK    2  A    between atoms: O_1  and  C_11 
REMARK    3  A    between atoms: N_3  and  C_7 
REMARK    4  A    between atoms: C_4  and  C_10 
ROOT
HETATM    1  O   UNK     0       9.403  14.030  22.219  0.00  0.00    -0.318 OA
ENDROOT
BRANCH   1   2
HETATM    2  C   UNK     0      10.611  14.387  22.754  0.00  0.00     0.293 C 
HETATM    3  O   UNK     0      11.184  15.458  22.515  0.00  0.00    -0.259 OA
BRANCH   2   4
HETATM    4  C   UNK     0      11.134  13.352  23.632  0.00  0.00     0.039 A 
HETATM    5  C   UNK     0      11.086  12.014  23.239  0.00  0.00     0.020 A 
HETATM    6  C   UNK     0      11.586  11.022  24.082  0.00  0.00     0.030 A 
HETATM    7  C   UNK     0      12.135  11.366  25.317  0.00  0.00     0.025 A 
HETATM    8  C   UNK     0      12.183  12.704  25.709  0.00  0.00     0.030 A 
HETATM    9  C   UNK     0      11.682  13.697  24.867  0.00  0.00     0.020 A 
BRANCH   7  10
HETATM   10  N   UNK     0      12.641  10.363  26.168  0.00  0.00    -0.399 N 
HETATM   11  H   UNK     0      13.569   9.991  26.017  0.00  0.00     0.156 HD
HETATM   12  H   UNK     0      12.075  10.013  26.930  0.00  0.00     0.156 HD
ENDBRANCH   7  10
ENDBRANCH   2   4
ENDBRANCH   1   2
BRANCH   1  13
HETATM   13  C   UNK     0       9.286  14.080  20.793  0.00  0.00     0.174 C 
HETATM   14  C   UNK     0       8.477  12.891  20.323  0.00  0.00     0.034 C 
ENDBRANCH   1  13
TORSDOF 4
ENDMDL
MODEL 5
REMARK VINA RESULT:      -6.2      3.295      4.861
REMARK  4 active torsions:
REMARK  status: ('A' for Active; 'I' for Inactive)
REMARK    1  A    between atoms: O_1  and  C_10 
REMARK    2  A    between atoms: O_1  and  C_11 
REMARK    3  A    between atoms: N_3  and  C_7 
REMARK    4  A    between atoms: C_4  and  C_10 
ROOT
HETATM    1  O   UNK     0       8.867  22.275  22.006  0.00  0.00    -0.318 OA
ENDROOT
BRANCH   1   2
HETATM    2  C   UNK     0       8.863  23.168  23.043  0.00  0.00     0.293 C 
HETATM    3  O   UNK     0       8.451  24.332  22.953  0.00  0.00    -0.259 OA
BRANCH   2   4
HETATM    4  C   UNK     0       9.402  22.578  24.257  0.00  0.00     0.039 A 
HETATM    5  C   UNK     0       8.547  22.225  25.301  0.00  0.00     0.020 A 
HETATM    6  C   UNK     0       9.065  21.660  26.467  0.00  0.00     0.030 A 
HETATM    7  C   UNK     0      10.438  21.446  26.588  0.00  0.00     0.025 A 
HETATM    8  C   UNK     0      11.293  21.799  25.545  0.00  0.00     0.030 A 
HETATM    9  C   UNK     0      10.776  22.365  24.379  0.00  0.00     0.020 A 
BRANCH   7  10
HETATM   10  N   UNK     0      10.961  20.875  27.766  0.00  0.00    -0.399 N 
HETATM   11  H   UNK     0      11.271  21.470  28.523  0.00  0.00     0.156 HD
HETATM   12  H   UNK     0      11.027  19.869  27.855  0.00  0.00     0.156 HD
ENDBRANCH   7  10
ENDBRANCH   2   4
ENDBRANCH   1   2
BRANCH   1  13
HETATM   13  C   UNK     0       7.725  21.420  21.884  0.00  0.00     0.174 C 
HETATM   14  C   UNK     0       8.191  19.981  21.829  0.00  0.00     0.034 C 
ENDBRANCH   1  13
TORSDOF 4
ENDMDL
MODEL 6
REMARK VINA RESULT:      -6.1     29.091     30.265
REMARK  4 active torsions:
REMARK  status: ('A' for Active; 'I' for Inactive)
REMARK    1  A    between atoms: O_1  and  C_10 
REMARK    2  A    between atoms: O_1  and  C_11 
REMARK    3  A    between atoms: N_3  and  C_7 
REMARK    4  A    between atoms: C_4  and  C_10 
ROOT
HETATM    1  O   UNK     0      35.879  38.445  27.493  0.00  0.00    -0.318 OA
ENDROOT
BRANCH   1   2
HETATM    2  C   UNK     0      35.805  37.197  26.936  0.00  0.00     0.293 C 
HETATM    3  O   UNK     0      35.917  36.972  25.724  0.00  0.00    -0.259 OA
BRANCH   2   4
HETATM    4  C   UNK     0      35.577  36.175  27.945  0.00  0.00     0.039 A 
HETATM    5  C   UNK     0      35.251  36.544  29.251  0.00  0.00     0.020 A 
HETATM    6  C   UNK     0      35.033  35.563  30.219  0.00  0.00     0.030 A 
HETATM    7  C   UNK     0      35.141  34.213  29.881  0.00  0.00     0.025 A 
HETATM    8  C   UNK     0      35.466  33.845  28.576  0.00  0.00     0.030 A 
HETATM    9  C   UNK     0      35.685  34.825  27.608  0.00  0.00     0.020 A 
BRANCH   7  10
HETATM   10  N   UNK     0      34.921  33.223  30.860  0.00  0.00    -0.399 N 
HETATM   11  H   UNK     0      34.055  32.700  30.865  0.00  0.00     0.156 HD
HETATM   12  H   UNK     0      35.628  33.035  31.559  0.00  0.00     0.156 HD
ENDBRANCH   7  10
ENDBRANCH   2   4
ENDBRANCH   1   2
BRANCH   1  13
HETATM   13  C   UNK     0      36.656  39.421  26.791  0.00  0.00     0.174 C 
HETATM   14  C   UNK     0      36.358  40.791  27.362  0.00  0.00     0.034 C 
ENDBRANCH   1  13
TORSDOF 4
ENDMDL
MODEL 7
REMARK VINA RESULT:      -6.1      9.475     10.882
REMARK  4 active torsions:
REMARK  status: ('A' for Active; 'I' for Inactive)
REMARK    1  A    between atoms: O_1  and  C_10 
REMARK    2  A    between atoms: O_1  and  C_11 
REMARK    3  A    between atoms: N_3  and  C_7 
REMARK    4  A    between atoms: C_4  and  C_10 
ROOT
HETATM    1  O   UNK     0      10.675  14.193  21.288  0.00  0.00    -0.318 OA
ENDROOT
BRANCH   1   2
HETATM    2  C   UNK     0      10.436  12.933  21.764  0.00  0.00     0.293 C 
HETATM    3  O   UNK     0       9.798  12.069  21.149  0.00  0.00    -0.259 OA
BRANCH   2   4
HETATM    4  C   UNK     0      11.024  12.739  23.080  0.00  0.00     0.039 A 
HETATM    5  C   UNK     0      11.254  13.838  23.909  0.00  0.00     0.020 A 
HETATM    6  C   UNK     0      11.819  13.652  25.171  0.00  0.00     0.030 A 
HETATM    7  C   UNK     0      12.153  12.369  25.605  0.00  0.00     0.025 A 
HETATM    8  C   UNK     0      11.922  11.272  24.776  0.00  0.00     0.030 A 
HETATM    9  C   UNK     0      11.358  11.456  23.514  0.00  0.00     0.020 A 
BRANCH   7  10
HETATM   10  N   UNK     0      12.724  12.182  26.881  0.00  0.00    -0.399 N 
HETATM   11  H   UNK     0      13.084  11.275  27.146  0.00  0.00     0.156 HD
HETATM   12  H   UNK     0      12.771  12.955  27.532  0.00  0.00     0.156 HD
ENDBRANCH   7  10
ENDBRANCH   2   4
ENDBRANCH   1   2
BRANCH   1  13
HETATM   13  C   UNK     0       9.541  14.932  20.819  0.00  0.00     0.174 C 
HETATM   14  C   UNK     0       9.641  16.357  21.320  0.00  0.00     0.034 C 
ENDBRANCH   1  13
TORSDOF 4
ENDMDL
MODEL 8
REMARK VINA RESULT:      -6.1     16.009     17.891
REMARK  4 active torsions:
REMARK  status: ('A' for Active; 'I' for Inactive)
REMARK    1  A    between atoms: O_1  and  C_10 
REMARK    2  A    between atoms: O_1  and  C_11 
REMARK    3  A    between atoms: N_3  and  C_7 
REMARK    4  A    between atoms: C_4  and  C_10 
ROOT
HETATM    1  O   UNK     0      27.724  26.404  22.994  0.00  0.00    -0.318 OA
ENDROOT
BRANCH   1   2
HETATM    2  C   UNK     0      27.567  25.543  24.047  0.00  0.00     0.293 C 
HETATM    3  O   UNK     0      28.317  24.585  24.275  0.00  0.00    -0.259 OA
BRANCH   2   4
HETATM    4  C   UNK     0      26.413  25.897  24.858  0.00  0.00     0.039 A 
HETATM    5  C   UNK     0      26.588  26.598  26.051  0.00  0.00     0.020 A 
HETATM    6  C   UNK     0      25.481  26.936  26.830  0.00  0.00     0.030 A 
HETATM    7  C   UNK     0      24.199  26.573  26.415  0.00  0.00     0.025 A 
HETATM    8  C   UNK     0      24.025  25.872  25.223  0.00  0.00     0.030 A 
HETATM    9  C   UNK     0      25.132  25.533  24.444  0.00  0.00     0.020 A 
BRANCH   7  10
HETATM   10  N   UNK     0      23.080  26.915  27.203  0.00  0.00    -0.399 N 
HETATM   11  H   UNK     0      23.125  27.708  27.828  0.00  0.00     0.156 HD
HETATM   12  H   UNK     0      22.233  26.366  27.143  0.00  0.00     0.156 HD
ENDBRANCH   7  10
ENDBRANCH   2   4
ENDBRANCH   1   2
BRANCH   1  13
HETATM   13  C   UNK     0      28.736  27.409  23.125  0.00  0.00     0.174 C 
HETATM   14  C   UNK     0      28.789  28.222  21.850  0.00  0.00     0.034 C 
ENDBRANCH   1  13
TORSDOF 4
ENDMDL
MODEL 9
REMARK VINA RESULT:      -6.1     27.633     28.790
REMARK  4 active torsions:
REMARK  status: ('A' for Active; 'I' for Inactive)
REMARK    1  A    between atoms: O_1  and  C_10 
REMARK    2  A    between atoms: O_1  and  C_11 
REMARK    3  A    between atoms: N_3  and  C_7 
REMARK    4  A    between atoms: C_4  and  C_10 
ROOT
HETATM    1  O   UNK     0      36.314  35.424  28.000  0.00  0.00    -0.318 OA
ENDROOT
BRANCH   1   2
HETATM    2  C   UNK     0      35.352  34.542  28.411  0.00  0.00     0.293 C 
HETATM    3  O   UNK     0      35.310  33.354  28.068  0.00  0.00    -0.259 OA
BRANCH   2   4
HETATM    4  C   UNK     0      34.389  35.177  29.297  0.00  0.00     0.039 A 
HETATM    5  C   UNK     0      33.318  35.895  28.763  0.00  0.00     0.020 A 
HETATM    6  C   UNK     0      32.395  36.504  29.613  0.00  0.00     0.030 A 
HETATM    7  C   UNK     0      32.541  36.396  30.996  0.00  0.00     0.025 A 
HETATM    8  C   UNK     0      33.612  35.679  31.529  0.00  0.00     0.030 A 
HETATM    9  C   UNK     0      34.536  35.070  30.680  0.00  0.00     0.020 A 
BRANCH   7  10
HETATM   10  N   UNK     0      31.608  37.013  31.854  0.00  0.00    -0.399 N 
HETATM   11  H   UNK     0      30.617  36.866  31.714  0.00  0.00     0.156 HD
HETATM   12  H   UNK     0      31.929  37.604  32.610  0.00  0.00     0.156 HD
ENDBRANCH   7  10
ENDBRANCH   2   4
ENDBRANCH   1   2
BRANCH   1  13
HETATM   13  C   UNK     0      36.251  35.862  26.638  0.00  0.00     0.174 C 
HETATM   14  C   UNK     0      36.216  37.374  26.608  0.00  0.00     0.034 C 
ENDBRANCH   1  13
TORSDOF 4
ENDMDL
