MODEL 1
REMARK VINA RESULT:      -8.8      0.000      0.000
REMARK  12 active torsions:
REMARK  status: ('A' for Active; 'I' for Inactive)
REMARK    1  A    between atoms: O_1  and  C_10 
REMARK    2  A    between atoms: O_2  and  C_17 
REMARK    3  A    between atoms: O_3  and  C_20 
REMARK    4  A    between atoms: O_4  and  C_27 
REMARK    5  A    between atoms: O_6  and  C_29 
REMARK    6  A    between atoms: O_7  and  C_28 
REMARK    7  A    between atoms: O_8  and  C_33 
REMARK    8  A    between atoms: C_11  and  C_20 
REMARK    9  A    between atoms: C_20  and  C_28 
REMARK   10  A    between atoms: C_28  and  C_31 
REMARK   11  A    between atoms: C_31  and  C_32 
REMARK   12  A    between atoms: C_32  and  C_33 
ROOT
HETATM    1  O   UNK     0     149.325 150.507 142.281  0.00  0.00    -0.384 OA
HETATM    2  H   UNK     0     149.253 151.428 142.568  0.00  0.00     0.211 HD
ENDROOT
BRANCH   1   3
HETATM    3  C   UNK     0     148.915 149.599 143.329  0.00  0.00     0.090 C 
HETATM    4  C   UNK     0     148.897 148.148 142.783  0.00  0.00    -0.000 C 
HETATM    5  C   UNK     0     147.782 148.256 141.710  0.00  0.00     0.034 C 
HETATM    6  C   UNK     0     150.285 147.824 142.211  0.00  0.00     0.045 C 
HETATM    7  C   UNK     0     148.523 147.096 143.864  0.00  0.00     0.019 C 
HETATM    8  C   UNK     0     146.718 149.159 142.376  0.00  0.00     0.012 C 
HETATM    9  C   UNK     0     147.421 149.878 143.548  0.00  0.00     0.044 C 
HETATM   10  C   UNK     0     151.386 147.986 143.279  0.00  0.00     0.128 C 
HETATM   11  C   UNK     0     151.377 149.372 144.023  0.00  0.00     0.055 C 
HETATM   12  C   UNK     0     152.433 149.473 145.211  0.00  0.00    -0.021 C 
HETATM   13  C   UNK     0     149.939 149.754 144.434  0.00  0.00    -0.034 C 
HETATM   14  C   UNK     0     152.073 150.657 146.154  0.00  0.00     0.071 C 
HETATM   15  C   UNK     0     153.897 149.659 144.665  0.00  0.00     0.045 C 
HETATM   16  C   UNK     0     152.423 148.174 146.065  0.00  0.00     0.017 C 
HETATM   17  C   UNK     0     152.293 152.060 145.561  0.00  0.00     0.047 C 
HETATM   18  C   UNK     0     150.641 150.553 146.637  0.00  0.00     0.154 C 
HETATM   19  C   UNK     0     153.426 152.127 144.543  0.00  0.00     0.147 C 
HETATM   20  C   UNK     0     154.487 151.066 144.804  0.00  0.00     0.147 C 
HETATM   21  O   UNK     0     150.324 150.806 147.797  0.00  0.00    -0.293 OA
HETATM   22  C   UNK     0     149.601 150.229 145.641  0.00  0.00     0.057 C 
BRANCH   5  23
HETATM   23  C   UNK     0     147.205 146.945 141.193  0.00  0.00     0.084 C 
HETATM   24  C   UNK     0     147.276 146.914 139.658  0.00  0.00     0.049 C 
BRANCH  23  25
HETATM   25  O   UNK     0     148.018 145.869 141.681  0.00  0.00    -0.387 OA
HETATM   26  H   UNK     0     148.759 145.732 141.069  0.00  0.00     0.210 HD
ENDBRANCH  23  25
BRANCH  23  27
HETATM   27  C   UNK     0     145.749 146.712 141.680  0.00  0.00     0.152 C 
BRANCH  27  28
HETATM   28  O   UNK     0     145.741 145.715 142.708  0.00  0.00    -0.393 OA
HETATM   29  H   UNK     0     145.680 144.848 142.272  0.00  0.00     0.210 HD
ENDBRANCH  27  28
BRANCH  27  30
HETATM   30  C   UNK     0     144.774 146.272 140.571  0.00  0.00     0.037 C 
BRANCH  30  31
HETATM   31  C   UNK     0     144.204 144.865 140.828  0.00  0.00     0.040 C 
BRANCH  31  32
HETATM   32  C   UNK     0     144.905 143.737 140.043  0.00  0.00     0.051 C 
HETATM   33  C   UNK     0     144.090 142.444 140.164  0.00  0.00     0.045 C 
HETATM   34  C   UNK     0     145.108 144.088 138.567  0.00  0.00     0.045 C 
BRANCH  32  35
HETATM   35  O   UNK     0     146.185 143.506 140.633  0.00  0.00    -0.391 OA
HETATM   36  H   UNK     0     146.213 143.948 141.498  0.00  0.00     0.210 HD
ENDBRANCH  32  35
ENDBRANCH  31  32
ENDBRANCH  30  31
ENDBRANCH  27  30
ENDBRANCH  23  27
ENDBRANCH   5  23
BRANCH  10  37
HETATM   37  O   UNK     0     152.636 147.775 142.628  0.00  0.00    -0.395 OA
HETATM   38  H   UNK     0     152.727 146.821 142.463  0.00  0.00     0.210 HD
ENDBRANCH  10  37
BRANCH  19  39
HETATM   39  O   UNK     0     154.004 153.428 144.585  0.00  0.00    -0.393 OA
HETATM   40  H   UNK     0     154.662 153.447 145.300  0.00  0.00     0.210 HD
ENDBRANCH  19  39
BRANCH  20  41
HETATM   41  O   UNK     0     155.027 151.216 146.118  0.00  0.00    -0.393 OA
HETATM   42  H   UNK     0     154.668 152.039 146.492  0.00  0.00     0.210 HD
ENDBRANCH  20  41
ENDBRANCH   1   3
TORSDOF 12
ENDMDL
MODEL 2
REMARK VINA RESULT:      -8.7      4.770      8.018
REMARK  12 active torsions:
REMARK  status: ('A' for Active; 'I' for Inactive)
REMARK    1  A    between atoms: O_1  and  C_10 
REMARK    2  A    between atoms: O_2  and  C_17 
REMARK    3  A    between atoms: O_3  and  C_20 
REMARK    4  A    between atoms: O_4  and  C_27 
REMARK    5  A    between atoms: O_6  and  C_29 
REMARK    6  A    between atoms: O_7  and  C_28 
REMARK    7  A    between atoms: O_8  and  C_33 
REMARK    8  A    between atoms: C_11  and  C_20 
REMARK    9  A    between atoms: C_20  and  C_28 
REMARK   10  A    between atoms: C_28  and  C_31 
REMARK   11  A    between atoms: C_31  and  C_32 
REMARK   12  A    between atoms: C_32  and  C_33 
ROOT
HETATM    1  O   UNK     0     153.974 152.588 148.230  0.00  0.00    -0.384 OA
HETATM    2  H   UNK     0     154.744 152.527 147.646  0.00  0.00     0.211 HD
ENDROOT
BRANCH   1   3
HETATM    3  C   UNK     0     152.987 153.503 147.701  0.00  0.00     0.090 C 
HETATM    4  C   UNK     0     151.604 152.803 147.650  0.00  0.00    -0.000 C 
HETATM    5  C   UNK     0     151.888 151.678 146.620  0.00  0.00     0.034 C 
HETATM    6  C   UNK     0     151.263 152.292 149.056  0.00  0.00     0.045 C 
HETATM    7  C   UNK     0     150.469 153.737 147.147  0.00  0.00     0.019 C 
HETATM    8  C   UNK     0     152.776 152.367 145.558  0.00  0.00     0.012 C 
HETATM    9  C   UNK     0     153.328 153.653 146.211  0.00  0.00     0.044 C 
HETATM   10  C   UNK     0     151.248 153.440 150.086  0.00  0.00     0.128 C 
HETATM   11  C   UNK     0     152.548 154.328 150.093  0.00  0.00     0.055 C 
HETATM   12  C   UNK     0     152.463 155.585 151.067  0.00  0.00    -0.021 C 
HETATM   13  C   UNK     0     152.967 154.683 148.651  0.00  0.00    -0.034 C 
HETATM   14  C   UNK     0     153.561 156.626 150.700  0.00  0.00     0.071 C 
HETATM   15  C   UNK     0     152.621 155.159 152.573  0.00  0.00     0.045 C 
HETATM   16  C   UNK     0     151.085 156.292 150.930  0.00  0.00     0.017 C 
HETATM   17  C   UNK     0     155.004 156.203 151.032  0.00  0.00     0.047 C 
HETATM   18  C   UNK     0     153.489 157.000 149.234  0.00  0.00     0.154 C 
HETATM   19  C   UNK     0     155.111 155.274 152.236  0.00  0.00     0.147 C 
HETATM   20  C   UNK     0     153.969 155.488 153.221  0.00  0.00     0.147 C 
HETATM   21  O   UNK     0     153.638 158.158 148.848  0.00  0.00    -0.293 OA
HETATM   22  C   UNK     0     153.332 155.909 148.252  0.00  0.00     0.057 C 
BRANCH   5  23
HETATM   23  C   UNK     0     150.673 150.986 146.016  0.00  0.00     0.084 C 
HETATM   24  C   UNK     0     150.871 149.462 146.050  0.00  0.00     0.049 C 
BRANCH  23  25
HETATM   25  O   UNK     0     149.530 151.288 146.827  0.00  0.00    -0.387 OA
HETATM   26  H   UNK     0     149.037 152.018 146.417  0.00  0.00     0.210 HD
ENDBRANCH  23  25
BRANCH  23  27
HETATM   27  C   UNK     0     150.382 151.469 144.569  0.00  0.00     0.152 C 
BRANCH  27  28
HETATM   28  O   UNK     0     149.227 152.315 144.570  0.00  0.00    -0.393 OA
HETATM   29  H   UNK     0     148.453 151.750 144.738  0.00  0.00     0.210 HD
ENDBRANCH  27  28
BRANCH  27  30
HETATM   30  C   UNK     0     150.148 150.330 143.557  0.00  0.00     0.037 C 
BRANCH  30  31
HETATM   31  C   UNK     0     148.746 150.399 142.925  0.00  0.00     0.040 C 
BRANCH  31  32
HETATM   32  C   UNK     0     147.699 149.479 143.588  0.00  0.00     0.051 C 
HETATM   33  C   UNK     0     146.439 149.426 142.718  0.00  0.00     0.045 C 
HETATM   34  C   UNK     0     148.229 148.062 143.824  0.00  0.00     0.045 C 
BRANCH  32  35
HETATM   35  O   UNK     0     147.338 150.043 144.850  0.00  0.00    -0.391 OA
HETATM   36  H   UNK     0     146.382 150.218 144.849  0.00  0.00     0.210 HD
ENDBRANCH  32  35
ENDBRANCH  31  32
ENDBRANCH  30  31
ENDBRANCH  27  30
ENDBRANCH  23  27
ENDBRANCH   5  23
BRANCH  10  37
HETATM   37  O   UNK     0     151.035 152.853 151.367  0.00  0.00    -0.395 OA
HETATM   38  H   UNK     0     150.221 153.235 151.736  0.00  0.00     0.210 HD
ENDBRANCH  10  37
BRANCH  19  39
HETATM   39  O   UNK     0     156.365 155.494 152.874  0.00  0.00    -0.393 OA
HETATM   40  H   UNK     0     156.995 154.831 152.545  0.00  0.00     0.210 HD
ENDBRANCH  19  39
BRANCH  20  41
HETATM   41  O   UNK     0     153.950 156.843 153.674  0.00  0.00    -0.393 OA
HETATM   42  H   UNK     0     153.037 157.167 153.593  0.00  0.00     0.210 HD
ENDBRANCH  20  41
ENDBRANCH   1   3
TORSDOF 12
ENDMDL
MODEL 3
REMARK VINA RESULT:      -8.7      5.123      8.643
REMARK  12 active torsions:
REMARK  status: ('A' for Active; 'I' for Inactive)
REMARK    1  A    between atoms: O_1  and  C_10 
REMARK    2  A    between atoms: O_2  and  C_17 
REMARK    3  A    between atoms: O_3  and  C_20 
REMARK    4  A    between atoms: O_4  and  C_27 
REMARK    5  A    between atoms: O_6  and  C_29 
REMARK    6  A    between atoms: O_7  and  C_28 
REMARK    7  A    between atoms: O_8  and  C_33 
REMARK    8  A    between atoms: C_11  and  C_20 
REMARK    9  A    between atoms: C_20  and  C_28 
REMARK   10  A    between atoms: C_28  and  C_31 
REMARK   11  A    between atoms: C_31  and  C_32 
REMARK   12  A    between atoms: C_32  and  C_33 
ROOT
HETATM    1  O   UNK     0     153.950 152.535 148.270  0.00  0.00    -0.384 OA
HETATM    2  H   UNK     0     153.603 152.212 149.113  0.00  0.00     0.211 HD
ENDROOT
BRANCH   1   3
HETATM    3  C   UNK     0     153.091 153.553 147.707  0.00  0.00     0.090 C 
HETATM    4  C   UNK     0     151.663 152.980 147.515  0.00  0.00    -0.000 C 
HETATM    5  C   UNK     0     151.934 151.875 146.460  0.00  0.00     0.034 C 
HETATM    6  C   UNK     0     151.165 152.445 148.865  0.00  0.00     0.045 C 
HETATM    7  C   UNK     0     150.655 154.029 146.967  0.00  0.00     0.019 C 
HETATM    8  C   UNK     0     152.962 152.524 145.504  0.00  0.00     0.012 C 
HETATM    9  C   UNK     0     153.564 153.731 146.257  0.00  0.00     0.044 C 
HETATM   10  C   UNK     0     151.162 153.549 149.942  0.00  0.00     0.128 C 
HETATM   11  C   UNK     0     152.526 154.319 150.093  0.00  0.00     0.055 C 
HETATM   12  C   UNK     0     152.468 155.540 151.114  0.00  0.00    -0.021 C 
HETATM   13  C   UNK     0     153.091 154.692 148.706  0.00  0.00    -0.034 C 
HETATM   14  C   UNK     0     153.676 156.494 150.883  0.00  0.00     0.071 C 
HETATM   15  C   UNK     0     152.464 155.043 152.606  0.00  0.00     0.045 C 
HETATM   16  C   UNK     0     151.170 156.369 150.902  0.00  0.00     0.017 C 
HETATM   17  C   UNK     0     155.045 155.933 151.307  0.00  0.00     0.047 C 
HETATM   18  C   UNK     0     153.757 156.930 149.435  0.00  0.00     0.154 C 
HETATM   19  C   UNK     0     154.974 154.952 152.473  0.00  0.00     0.147 C 
HETATM   20  C   UNK     0     153.778 155.226 153.373  0.00  0.00     0.147 C 
HETATM   21  O   UNK     0     154.034 158.084 149.116  0.00  0.00    -0.293 OA
HETATM   22  C   UNK     0     153.590 155.897 148.394  0.00  0.00     0.057 C 
BRANCH   5  23
HETATM   23  C   UNK     0     150.720 151.316 145.731  0.00  0.00     0.084 C 
HETATM   24  C   UNK     0     150.249 150.024 146.418  0.00  0.00     0.049 C 
BRANCH  23  25
HETATM   25  O   UNK     0     149.654 152.269 145.832  0.00  0.00    -0.387 OA
HETATM   26  H   UNK     0     148.834 151.801 146.061  0.00  0.00     0.210 HD
ENDBRANCH  23  25
BRANCH  23  27
HETATM   27  C   UNK     0     151.004 151.065 144.225  0.00  0.00     0.152 C 
BRANCH  27  28
HETATM   28  O   UNK     0     149.820 151.326 143.464  0.00  0.00    -0.393 OA
HETATM   29  H   UNK     0     149.093 150.832 143.878  0.00  0.00     0.210 HD
ENDBRANCH  27  28
BRANCH  27  30
HETATM   30  C   UNK     0     151.482 149.636 143.901  0.00  0.00     0.037 C 
BRANCH  30  31
HETATM   31  C   UNK     0     152.799 149.635 143.104  0.00  0.00     0.040 C 
BRANCH  31  32
HETATM   32  C   UNK     0     153.928 148.790 143.732  0.00  0.00     0.051 C 
HETATM   33  C   UNK     0     153.689 148.654 145.239  0.00  0.00     0.045 C 
HETATM   34  C   UNK     0     154.045 147.403 143.096  0.00  0.00     0.045 C 
BRANCH  32  35
HETATM   35  O   UNK     0     155.165 149.480 143.544  0.00  0.00    -0.391 OA
HETATM   36  H   UNK     0     155.167 149.876 142.656  0.00  0.00     0.210 HD
ENDBRANCH  32  35
ENDBRANCH  31  32
ENDBRANCH  30  31
ENDBRANCH  27  30
ENDBRANCH  23  27
ENDBRANCH   5  23
BRANCH  10  37
HETATM   37  O   UNK     0     150.795 152.933 151.174  0.00  0.00    -0.395 OA
HETATM   38  H   UNK     0     149.853 152.698 151.118  0.00  0.00     0.210 HD
ENDBRANCH  10  37
BRANCH  19  39
HETATM   39  O   UNK     0     156.186 155.036 153.217  0.00  0.00    -0.393 OA
HETATM   40  H   UNK     0     156.783 154.335 152.907  0.00  0.00     0.210 HD
ENDBRANCH  19  39
BRANCH  20  41
HETATM   41  O   UNK     0     153.835 156.559 153.885  0.00  0.00    -0.393 OA
HETATM   42  H   UNK     0     153.786 156.505 154.854  0.00  0.00     0.210 HD
ENDBRANCH  20  41
ENDBRANCH   1   3
TORSDOF 12
ENDMDL
MODEL 4
REMARK VINA RESULT:      -8.6      1.839      2.675
REMARK  12 active torsions:
REMARK  status: ('A' for Active; 'I' for Inactive)
REMARK    1  A    between atoms: O_1  and  C_10 
REMARK    2  A    between atoms: O_2  and  C_17 
REMARK    3  A    between atoms: O_3  and  C_20 
REMARK    4  A    between atoms: O_4  and  C_27 
REMARK    5  A    between atoms: O_6  and  C_29 
REMARK    6  A    between atoms: O_7  and  C_28 
REMARK    7  A    between atoms: O_8  and  C_33 
REMARK    8  A    between atoms: C_11  and  C_20 
REMARK    9  A    between atoms: C_20  and  C_28 
REMARK   10  A    between atoms: C_28  and  C_31 
REMARK   11  A    between atoms: C_31  and  C_32 
REMARK   12  A    between atoms: C_32  and  C_33 
ROOT
HETATM    1  O   UNK     0     149.238 150.648 142.355  0.00  0.00    -0.384 OA
HETATM    2  H   UNK     0     149.210 151.557 142.687  0.00  0.00     0.211 HD
ENDROOT
BRANCH   1   3
HETATM    3  C   UNK     0     148.851 149.705 143.381  0.00  0.00     0.090 C 
HETATM    4  C   UNK     0     148.827 148.272 142.787  0.00  0.00    -0.000 C 
HETATM    5  C   UNK     0     147.689 148.412 141.742  0.00  0.00     0.034 C 
HETATM    6  C   UNK     0     150.203 147.973 142.176  0.00  0.00     0.045 C 
HETATM    7  C   UNK     0     148.478 147.184 143.840  0.00  0.00     0.019 C 
HETATM    8  C   UNK     0     146.637 149.289 142.459  0.00  0.00     0.012 C 
HETATM    9  C   UNK     0     147.362 149.971 143.640  0.00  0.00     0.044 C 
HETATM   10  C   UNK     0     151.326 148.102 143.225  0.00  0.00     0.128 C 
HETATM   11  C   UNK     0     151.328 149.463 144.016  0.00  0.00     0.055 C 
HETATM   12  C   UNK     0     152.409 149.528 145.184  0.00  0.00    -0.021 C 
HETATM   13  C   UNK     0     149.899 149.826 144.469  0.00  0.00    -0.034 C 
HETATM   14  C   UNK     0     152.065 150.679 146.174  0.00  0.00     0.071 C 
HETATM   15  C   UNK     0     153.861 149.737 144.614  0.00  0.00     0.045 C 
HETATM   16  C   UNK     0     152.420 148.202 145.994  0.00  0.00     0.017 C 
HETATM   17  C   UNK     0     152.269 152.101 145.623  0.00  0.00     0.047 C 
HETATM   18  C   UNK     0     150.644 150.553 146.682  0.00  0.00     0.154 C 
HETATM   19  C   UNK     0     153.381 152.206 144.584  0.00  0.00     0.147 C 
HETATM   20  C   UNK     0     154.449 151.141 144.788  0.00  0.00     0.147 C 
HETATM   21  O   UNK     0     150.350 150.767 147.857  0.00  0.00    -0.293 OA
HETATM   22  C   UNK     0     149.584 150.260 145.698  0.00  0.00     0.057 C 
BRANCH   5  23
HETATM   23  C   UNK     0     147.105 147.117 141.193  0.00  0.00     0.084 C 
HETATM   24  C   UNK     0     146.634 146.226 142.354  0.00  0.00     0.049 C 
BRANCH  23  25
HETATM   25  O   UNK     0     145.953 147.439 140.404  0.00  0.00    -0.387 OA
HETATM   26  H   UNK     0     146.245 147.798 139.550  0.00  0.00     0.210 HD
ENDBRANCH  23  25
BRANCH  23  27
HETATM   27  C   UNK     0     148.113 146.355 140.291  0.00  0.00     0.152 C 
BRANCH  27  28
HETATM   28  O   UNK     0     147.539 146.155 138.994  0.00  0.00    -0.393 OA
HETATM   29  H   UNK     0     147.797 146.913 138.442  0.00  0.00     0.210 HD
ENDBRANCH  27  28
BRANCH  27  30
HETATM   30  C   UNK     0     148.548 144.984 140.845  0.00  0.00     0.037 C 
BRANCH  30  31
HETATM   31  C   UNK     0     150.073 144.787 140.766  0.00  0.00     0.040 C 
BRANCH  31  32
HETATM   32  C   UNK     0     150.591 143.517 141.472  0.00  0.00     0.051 C 
HETATM   33  C   UNK     0     151.574 143.910 142.580  0.00  0.00     0.045 C 
HETATM   34  C   UNK     0     149.459 142.667 142.056  0.00  0.00     0.045 C 
BRANCH  32  35
HETATM   35  O   UNK     0     151.301 142.728 140.515  0.00  0.00    -0.391 OA
HETATM   36  H   UNK     0     151.045 143.017 139.623  0.00  0.00     0.210 HD
ENDBRANCH  32  35
ENDBRANCH  31  32
ENDBRANCH  30  31
ENDBRANCH  27  30
ENDBRANCH  23  27
ENDBRANCH   5  23
BRANCH  10  37
HETATM   37  O   UNK     0     152.563 147.918 142.542  0.00  0.00    -0.395 OA
HETATM   38  H   UNK     0     152.886 148.794 142.273  0.00  0.00     0.210 HD
ENDBRANCH  10  37
BRANCH  19  39
HETATM   39  O   UNK     0     153.955 153.507 144.658  0.00  0.00    -0.393 OA
HETATM   40  H   UNK     0     154.231 153.668 145.576  0.00  0.00     0.210 HD
ENDBRANCH  19  39
BRANCH  20  41
HETATM   41  O   UNK     0     155.016 151.249 146.095  0.00  0.00    -0.393 OA
HETATM   42  H   UNK     0     154.284 151.343 146.727  0.00  0.00     0.210 HD
ENDBRANCH  20  41
ENDBRANCH   1   3
TORSDOF 12
ENDMDL
MODEL 5
REMARK VINA RESULT:      -8.6      1.932      8.684
REMARK  12 active torsions:
REMARK  status: ('A' for Active; 'I' for Inactive)
REMARK    1  A    between atoms: O_1  and  C_10 
REMARK    2  A    between atoms: O_2  and  C_17 
REMARK    3  A    between atoms: O_3  and  C_20 
REMARK    4  A    between atoms: O_4  and  C_27 
REMARK    5  A    between atoms: O_6  and  C_29 
REMARK    6  A    between atoms: O_7  and  C_28 
REMARK    7  A    between atoms: O_8  and  C_33 
REMARK    8  A    between atoms: C_11  and  C_20 
REMARK    9  A    between atoms: C_20  and  C_28 
REMARK   10  A    between atoms: C_28  and  C_31 
REMARK   11  A    between atoms: C_31  and  C_32 
REMARK   12  A    between atoms: C_32  and  C_33 
ROOT
HETATM    1  O   UNK     0     149.273 146.505 144.411  0.00  0.00    -0.384 OA
HETATM    2  H   UNK     0     148.309 146.426 144.441  0.00  0.00     0.211 HD
ENDROOT
BRANCH   1   3
HETATM    3  C   UNK     0     149.684 147.525 143.472  0.00  0.00     0.090 C 
HETATM    4  C   UNK     0     151.101 147.196 142.935  0.00  0.00    -0.000 C 
HETATM    5  C   UNK     0     151.937 147.308 144.236  0.00  0.00     0.034 C 
HETATM    6  C   UNK     0     151.078 145.787 142.326  0.00  0.00     0.045 C 
HETATM    7  C   UNK     0     151.599 148.213 141.871  0.00  0.00     0.019 C 
HETATM    8  C   UNK     0     151.327 148.530 144.961  0.00  0.00     0.012 C 
HETATM    9  C   UNK     0     149.944 148.779 144.320  0.00  0.00     0.044 C 
HETATM   10  C   UNK     0     150.034 145.678 141.196  0.00  0.00     0.128 C 
HETATM   11  C   UNK     0     148.589 146.160 141.592  0.00  0.00     0.055 C 
HETATM   12  C   UNK     0     147.556 146.165 140.380  0.00  0.00    -0.021 C 
HETATM   13  C   UNK     0     148.658 147.498 142.358  0.00  0.00    -0.034 C 
HETATM   14  C   UNK     0     146.321 147.045 140.728  0.00  0.00     0.071 C 
HETATM   15  C   UNK     0     147.084 144.708 140.020  0.00  0.00     0.045 C 
HETATM   16  C   UNK     0     148.213 146.764 139.104  0.00  0.00     0.017 C 
HETATM   17  C   UNK     0     145.381 146.463 141.799  0.00  0.00     0.047 C 
HETATM   18  C   UNK     0     146.744 148.434 141.157  0.00  0.00     0.154 C 
HETATM   19  C   UNK     0     145.347 144.938 141.825  0.00  0.00     0.147 C 
HETATM   20  C   UNK     0     145.663 144.340 140.461  0.00  0.00     0.147 C 
HETATM   21  O   UNK     0     146.138 149.441 140.796  0.00  0.00    -0.293 OA
HETATM   22  C   UNK     0     147.861 148.549 142.114  0.00  0.00     0.057 C 
BRANCH   5  23
HETATM   23  C   UNK     0     153.447 147.413 144.069  0.00  0.00     0.084 C 
HETATM   24  C   UNK     0     154.103 147.711 145.427  0.00  0.00     0.049 C 
BRANCH  23  25
HETATM   25  O   UNK     0     153.942 146.143 143.623  0.00  0.00    -0.387 OA
HETATM   26  H   UNK     0     153.475 145.891 142.809  0.00  0.00     0.210 HD
ENDBRANCH  23  25
BRANCH  23  27
HETATM   27  C   UNK     0     153.848 148.485 143.019  0.00  0.00     0.152 C 
BRANCH  27  28
HETATM   28  O   UNK     0     154.713 147.898 142.041  0.00  0.00    -0.393 OA
HETATM   29  H   UNK     0     155.627 148.107 142.298  0.00  0.00     0.210 HD
ENDBRANCH  27  28
BRANCH  27  30
HETATM   30  C   UNK     0     154.556 149.718 143.613  0.00  0.00     0.037 C 
BRANCH  30  31
HETATM   31  C   UNK     0     153.714 150.998 143.456  0.00  0.00     0.040 C 
BRANCH  31  32
HETATM   32  C   UNK     0     153.704 151.915 144.698  0.00  0.00     0.051 C 
HETATM   33  C   UNK     0     152.262 152.313 145.031  0.00  0.00     0.045 C 
HETATM   34  C   UNK     0     154.358 151.258 145.917  0.00  0.00     0.045 C 
BRANCH  32  35
HETATM   35  O   UNK     0     154.428 153.106 144.384  0.00  0.00    -0.391 OA
HETATM   36  H   UNK     0     154.883 152.978 143.535  0.00  0.00     0.210 HD
ENDBRANCH  32  35
ENDBRANCH  31  32
ENDBRANCH  30  31
ENDBRANCH  27  30
ENDBRANCH  23  27
ENDBRANCH   5  23
BRANCH  10  37
HETATM   37  O   UNK     0     150.010 144.316 140.776  0.00  0.00    -0.395 OA
HETATM   38  H   UNK     0     149.817 144.303 139.823  0.00  0.00     0.210 HD
ENDBRANCH  10  37
BRANCH  19  39
HETATM   39  O   UNK     0     144.060 144.516 142.266  0.00  0.00    -0.393 OA
HETATM   40  H   UNK     0     144.166 144.050 143.113  0.00  0.00     0.210 HD
ENDBRANCH  19  39
BRANCH  20  41
HETATM   41  O   UNK     0     144.736 144.814 139.483  0.00  0.00    -0.393 OA
HETATM   42  H   UNK     0     145.145 145.570 139.031  0.00  0.00     0.210 HD
ENDBRANCH  20  41
ENDBRANCH   1   3
TORSDOF 12
ENDMDL
MODEL 6
REMARK VINA RESULT:      -8.5      2.260      4.249
REMARK  12 active torsions:
REMARK  status: ('A' for Active; 'I' for Inactive)
REMARK    1  A    between atoms: O_1  and  C_10 
REMARK    2  A    between atoms: O_2  and  C_17 
REMARK    3  A    between atoms: O_3  and  C_20 
REMARK    4  A    between atoms: O_4  and  C_27 
REMARK    5  A    between atoms: O_6  and  C_29 
REMARK    6  A    between atoms: O_7  and  C_28 
REMARK    7  A    between atoms: O_8  and  C_33 
REMARK    8  A    between atoms: C_11  and  C_20 
REMARK    9  A    between atoms: C_20  and  C_28 
REMARK   10  A    between atoms: C_28  and  C_31 
REMARK   11  A    between atoms: C_31  and  C_32 
REMARK   12  A    between atoms: C_32  and  C_33 
ROOT
HETATM    1  O   UNK     0     151.374 146.647 145.362  0.00  0.00    -0.384 OA
HETATM    2  H   UNK     0     151.809 145.822 145.621  0.00  0.00     0.211 HD
ENDROOT
BRANCH   1   3
HETATM    3  C   UNK     0     151.731 147.024 144.012  0.00  0.00     0.090 C 
HETATM    4  C   UNK     0     150.725 146.397 143.014  0.00  0.00    -0.000 C 
HETATM    5  C   UNK     0     151.005 144.887 143.231  0.00  0.00     0.034 C 
HETATM    6  C   UNK     0     149.307 146.832 143.409  0.00  0.00     0.045 C 
HETATM    7  C   UNK     0     151.000 146.802 141.538  0.00  0.00     0.019 C 
HETATM    8  C   UNK     0     152.542 144.817 143.384  0.00  0.00     0.012 C 
HETATM    9  C   UNK     0     153.020 146.252 143.700  0.00  0.00     0.044 C 
HETATM   10  C   UNK     0     149.170 148.369 143.418  0.00  0.00     0.128 C 
HETATM   11  C   UNK     0     150.263 149.117 144.268  0.00  0.00     0.055 C 
HETATM   12  C   UNK     0     150.188 150.704 144.160  0.00  0.00    -0.021 C 
HETATM   13  C   UNK     0     151.664 148.538 143.976  0.00  0.00    -0.034 C 
HETATM   14  C   UNK     0     151.523 151.341 144.645  0.00  0.00     0.071 C 
HETATM   15  C   UNK     0     148.991 151.283 145.000  0.00  0.00     0.045 C 
HETATM   16  C   UNK     0     149.970 151.143 142.685  0.00  0.00     0.017 C 
HETATM   17  C   UNK     0     151.783 151.248 146.159  0.00  0.00     0.047 C 
HETATM   18  C   UNK     0     152.708 150.749 143.911  0.00  0.00     0.154 C 
HETATM   19  C   UNK     0     150.512 151.243 147.002  0.00  0.00     0.147 C 
HETATM   20  C   UNK     0     149.370 151.976 146.312  0.00  0.00     0.147 C 
HETATM   21  O   UNK     0     153.649 151.440 143.526  0.00  0.00    -0.293 OA
HETATM   22  C   UNK     0     152.756 149.282 143.753  0.00  0.00     0.057 C 
BRANCH   5  23
HETATM   23  C   UNK     0     150.473 143.935 142.168  0.00  0.00     0.084 C 
HETATM   24  C   UNK     0     150.836 144.461 140.770  0.00  0.00     0.049 C 
BRANCH  23  25
HETATM   25  O   UNK     0     151.121 142.667 142.331  0.00  0.00    -0.387 OA
HETATM   26  H   UNK     0     151.971 142.685 141.861  0.00  0.00     0.210 HD
ENDBRANCH  23  25
BRANCH  23  27
HETATM   27  C   UNK     0     148.941 143.715 142.291  0.00  0.00     0.152 C 
BRANCH  27  28
HETATM   28  O   UNK     0     148.657 142.313 142.298  0.00  0.00    -0.393 OA
HETATM   29  H   UNK     0     147.819 142.188 142.776  0.00  0.00     0.210 HD
ENDBRANCH  27  28
BRANCH  27  30
HETATM   30  C   UNK     0     148.115 144.371 141.167  0.00  0.00     0.037 C 
BRANCH  30  31
HETATM   31  C   UNK     0     146.760 144.894 141.676  0.00  0.00     0.040 C 
BRANCH  31  32
HETATM   32  C   UNK     0     146.297 146.214 141.025  0.00  0.00     0.051 C 
HETATM   33  C   UNK     0     147.399 146.747 140.104  0.00  0.00     0.045 C 
HETATM   34  C   UNK     0     144.993 146.054 140.238  0.00  0.00     0.045 C 
BRANCH  32  35
HETATM   35  O   UNK     0     146.085 147.176 142.060  0.00  0.00    -0.391 OA
HETATM   36  H   UNK     0     145.325 147.731 141.816  0.00  0.00     0.210 HD
ENDBRANCH  32  35
ENDBRANCH  31  32
ENDBRANCH  30  31
ENDBRANCH  27  30
ENDBRANCH  23  27
ENDBRANCH   5  23
BRANCH  10  37
HETATM   37  O   UNK     0     147.865 148.672 143.902  0.00  0.00    -0.395 OA
HETATM   38  H   UNK     0     147.821 148.388 144.831  0.00  0.00     0.210 HD
ENDBRANCH  10  37
BRANCH  19  39
HETATM   39  O   UNK     0     150.797 151.840 148.264  0.00  0.00    -0.393 OA
HETATM   40  H   UNK     0     151.560 152.432 148.155  0.00  0.00     0.210 HD
ENDBRANCH  19  39
BRANCH  20  41
HETATM   41  O   UNK     0     149.743 153.327 146.034  0.00  0.00    -0.393 OA
HETATM   42  H   UNK     0     149.812 153.794 146.883  0.00  0.00     0.210 HD
ENDBRANCH  20  41
ENDBRANCH   1   3
TORSDOF 12
ENDMDL
MODEL 7
REMARK VINA RESULT:      -8.3      8.316     12.801
REMARK  12 active torsions:
REMARK  status: ('A' for Active; 'I' for Inactive)
REMARK    1  A    between atoms: O_1  and  C_10 
REMARK    2  A    between atoms: O_2  and  C_17 
REMARK    3  A    between atoms: O_3  and  C_20 
REMARK    4  A    between atoms: O_4  and  C_27 
REMARK    5  A    between atoms: O_6  and  C_29 
REMARK    6  A    between atoms: O_7  and  C_28 
REMARK    7  A    between atoms: O_8  and  C_33 
REMARK    8  A    between atoms: C_11  and  C_20 
REMARK    9  A    between atoms: C_20  and  C_28 
REMARK   10  A    between atoms: C_28  and  C_31 
REMARK   11  A    between atoms: C_31  and  C_32 
REMARK   12  A    between atoms: C_32  and  C_33 
ROOT
HETATM    1  O   UNK     0     150.947 156.902 149.971  0.00  0.00    -0.384 OA
HETATM    2  H   UNK     0     150.520 156.520 150.751  0.00  0.00     0.211 HD
ENDROOT
BRANCH   1   3
HETATM    3  C   UNK     0     151.100 155.918 148.923  0.00  0.00     0.090 C 
HETATM    4  C   UNK     0     151.484 154.551 149.546  0.00  0.00    -0.000 C 
HETATM    5  C   UNK     0     152.869 154.890 150.158  0.00  0.00     0.034 C 
HETATM    6  C   UNK     0     150.419 154.170 150.584  0.00  0.00     0.045 C 
HETATM    7  C   UNK     0     151.610 153.416 148.492  0.00  0.00     0.019 C 
HETATM    8  C   UNK     0     153.526 155.802 149.096  0.00  0.00     0.012 C 
HETATM    9  C   UNK     0     152.387 156.307 148.182  0.00  0.00     0.044 C 
HETATM   10  C   UNK     0     149.014 154.099 149.951  0.00  0.00     0.128 C 
HETATM   11  C   UNK     0     148.598 155.380 149.139  0.00  0.00     0.055 C 
HETATM   12  C   UNK     0     147.203 155.239 148.383  0.00  0.00    -0.021 C 
HETATM   13  C   UNK     0     149.755 155.842 148.229  0.00  0.00    -0.034 C 
HETATM   14  C   UNK     0     147.074 156.330 147.280  0.00  0.00     0.071 C 
HETATM   15  C   UNK     0     145.992 155.352 149.382  0.00  0.00     0.045 C 
HETATM   16  C   UNK     0     147.096 153.854 147.685  0.00  0.00     0.017 C 
HETATM   17  C   UNK     0     146.886 157.767 147.797  0.00  0.00     0.047 C 
HETATM   18  C   UNK     0     148.265 156.302 146.344  0.00  0.00     0.154 C 
HETATM   19  C   UNK     0     146.156 157.850 149.133  0.00  0.00     0.147 C 
HETATM   20  C   UNK     0     145.214 156.671 149.340  0.00  0.00     0.147 C 
HETATM   21  O   UNK     0     148.144 156.442 145.129  0.00  0.00    -0.293 OA
HETATM   22  C   UNK     0     149.610 156.199 146.945  0.00  0.00     0.057 C 
BRANCH   5  23
HETATM   23  C   UNK     0     153.748 153.710 150.550  0.00  0.00     0.084 C 
HETATM   24  C   UNK     0     152.925 152.693 151.357  0.00  0.00     0.049 C 
BRANCH  23  25
HETATM   25  O   UNK     0     154.185 153.054 149.352  0.00  0.00    -0.387 OA
HETATM   26  H   UNK     0     155.145 152.916 149.402  0.00  0.00     0.210 HD
ENDBRANCH  23  25
BRANCH  23  27
HETATM   27  C   UNK     0     155.005 154.154 151.346  0.00  0.00     0.152 C 
BRANCH  27  28
HETATM   28  O   UNK     0     155.618 153.011 151.950  0.00  0.00    -0.393 OA
HETATM   29  H   UNK     0     154.950 152.589 152.517  0.00  0.00     0.210 HD
ENDBRANCH  27  28
BRANCH  27  30
HETATM   30  C   UNK     0     154.722 155.192 152.448  0.00  0.00     0.037 C 
BRANCH  30  31
HETATM   31  C   UNK     0     155.581 156.459 152.282  0.00  0.00     0.040 C 
BRANCH  31  32
HETATM   32  C   UNK     0     154.781 157.779 152.271  0.00  0.00     0.051 C 
HETATM   33  C   UNK     0     154.998 158.499 150.936  0.00  0.00     0.045 C 
HETATM   34  C   UNK     0     153.284 157.559 152.507  0.00  0.00     0.045 C 
BRANCH  32  35
HETATM   35  O   UNK     0     155.284 158.620 153.311  0.00  0.00    -0.391 OA
HETATM   36  H   UNK     0     156.086 158.213 153.679  0.00  0.00     0.210 HD
ENDBRANCH  32  35
ENDBRANCH  31  32
ENDBRANCH  30  31
ENDBRANCH  27  30
ENDBRANCH  23  27
ENDBRANCH   5  23
BRANCH  10  37
HETATM   37  O   UNK     0     148.090 153.852 151.007  0.00  0.00    -0.395 OA
HETATM   38  H   UNK     0     147.973 152.890 151.080  0.00  0.00     0.210 HD
ENDBRANCH  10  37
BRANCH  19  39
HETATM   39  O   UNK     0     145.436 159.077 149.187  0.00  0.00    -0.393 OA
HETATM   40  H   UNK     0     146.009 159.783 148.844  0.00  0.00     0.210 HD
ENDBRANCH  19  39
BRANCH  20  41
HETATM   41  O   UNK     0     144.254 156.611 148.283  0.00  0.00    -0.393 OA
HETATM   42  H   UNK     0     144.560 155.945 147.645  0.00  0.00     0.210 HD
ENDBRANCH  20  41
ENDBRANCH   1   3
TORSDOF 12
ENDMDL
MODEL 8
REMARK VINA RESULT:      -8.3      3.172      9.726
REMARK  12 active torsions:
REMARK  status: ('A' for Active; 'I' for Inactive)
REMARK    1  A    between atoms: O_1  and  C_10 
REMARK    2  A    between atoms: O_2  and  C_17 
REMARK    3  A    between atoms: O_3  and  C_20 
REMARK    4  A    between atoms: O_4  and  C_27 
REMARK    5  A    between atoms: O_6  and  C_29 
REMARK    6  A    between atoms: O_7  and  C_28 
REMARK    7  A    between atoms: O_8  and  C_33 
REMARK    8  A    between atoms: C_11  and  C_20 
REMARK    9  A    between atoms: C_20  and  C_28 
REMARK   10  A    between atoms: C_28  and  C_31 
REMARK   11  A    between atoms: C_31  and  C_32 
REMARK   12  A    between atoms: C_32  and  C_33 
ROOT
HETATM    1  O   UNK     0     150.835 151.498 144.029  0.00  0.00    -0.384 OA
HETATM    2  H   UNK     0     150.617 150.976 143.244  0.00  0.00     0.211 HD
ENDROOT
BRANCH   1   3
HETATM    3  C   UNK     0     151.974 150.944 144.726  0.00  0.00     0.090 C 
HETATM    4  C   UNK     0     151.702 150.947 146.252  0.00  0.00    -0.000 C 
HETATM    5  C   UNK     0     151.605 152.470 146.526  0.00  0.00     0.034 C 
HETATM    6  C   UNK     0     150.399 150.180 146.518  0.00  0.00     0.045 C 
HETATM    7  C   UNK     0     152.856 150.311 147.077  0.00  0.00     0.019 C 
HETATM    8  C   UNK     0     152.718 153.075 145.639  0.00  0.00     0.012 C 
HETATM    9  C   UNK     0     153.084 151.997 144.595  0.00  0.00     0.044 C 
HETATM   10  C   UNK     0     150.477 148.734 145.987  0.00  0.00     0.128 C 
HETATM   11  C   UNK     0     150.922 148.614 144.482  0.00  0.00     0.055 C 
HETATM   12  C   UNK     0     151.125 147.113 143.988  0.00  0.00    -0.021 C 
HETATM   13  C   UNK     0     152.131 149.531 144.202  0.00  0.00    -0.034 C 
HETATM   14  C   UNK     0     151.967 147.086 142.679  0.00  0.00     0.071 C 
HETATM   15  C   UNK     0     149.746 146.395 143.745  0.00  0.00     0.045 C 
HETATM   16  C   UNK     0     151.894 146.285 145.055  0.00  0.00     0.017 C 
HETATM   17  C   UNK     0     151.250 147.622 141.426  0.00  0.00     0.047 C 
HETATM   18  C   UNK     0     153.270 147.838 142.852  0.00  0.00     0.154 C 
HETATM   19  C   UNK     0     149.739 147.414 141.446  0.00  0.00     0.147 C 
HETATM   20  C   UNK     0     149.343 146.203 142.280  0.00  0.00     0.147 C 
HETATM   21  O   UNK     0     154.330 147.422 142.390  0.00  0.00    -0.293 OA
HETATM   22  C   UNK     0     153.220 149.155 143.517  0.00  0.00     0.057 C 
BRANCH   5  23
HETATM   23  C   UNK     0     151.706 152.908 147.981  0.00  0.00     0.084 C 
HETATM   24  C   UNK     0     151.009 154.266 148.166  0.00  0.00     0.049 C 
BRANCH  23  25
HETATM   25  O   UNK     0     151.007 151.954 148.791  0.00  0.00    -0.387 OA
HETATM   26  H   UNK     0     151.611 151.617 149.473  0.00  0.00     0.210 HD
ENDBRANCH  23  25
BRANCH  23  27
HETATM   27  C   UNK     0     153.177 152.976 148.474  0.00  0.00     0.152 C 
BRANCH  27  28
HETATM   28  O   UNK     0     153.418 151.921 149.411  0.00  0.00    -0.393 OA
HETATM   29  H   UNK     0     154.293 152.077 149.805  0.00  0.00     0.210 HD
ENDBRANCH  27  28
BRANCH  27  30
HETATM   30  C   UNK     0     153.561 154.312 149.139  0.00  0.00     0.037 C 
BRANCH  30  31
HETATM   31  C   UNK     0     154.870 154.202 149.941  0.00  0.00     0.040 C 
BRANCH  31  32
HETATM   32  C   UNK     0     154.679 154.101 151.469  0.00  0.00     0.051 C 
HETATM   33  C   UNK     0     155.714 154.981 152.176  0.00  0.00     0.045 C 
HETATM   34  C   UNK     0     153.268 154.499 151.911  0.00  0.00     0.045 C 
BRANCH  32  35
HETATM   35  O   UNK     0     154.910 152.747 151.863  0.00  0.00    -0.391 OA
HETATM   36  H   UNK     0     154.767 152.171 151.094  0.00  0.00     0.210 HD
ENDBRANCH  32  35
ENDBRANCH  31  32
ENDBRANCH  30  31
ENDBRANCH  27  30
ENDBRANCH  23  27
ENDBRANCH   5  23
BRANCH  10  37
HETATM   37  O   UNK     0     149.193 148.146 146.178  0.00  0.00    -0.395 OA
HETATM   38  H   UNK     0     148.586 148.849 146.466  0.00  0.00     0.210 HD
ENDBRANCH  10  37
BRANCH  19  39
HETATM   39  O   UNK     0     149.280 147.266 140.105  0.00  0.00    -0.393 OA
HETATM   40  H   UNK     0     148.406 146.843 140.127  0.00  0.00     0.210 HD
ENDBRANCH  19  39
BRANCH  20  41
HETATM   41  O   UNK     0     149.973 145.024 141.775  0.00  0.00    -0.393 OA
HETATM   42  H   UNK     0     150.389 144.568 142.526  0.00  0.00     0.210 HD
ENDBRANCH  20  41
ENDBRANCH   1   3
TORSDOF 12
ENDMDL
MODEL 9
REMARK VINA RESULT:      -8.2      7.523     10.526
REMARK  12 active torsions:
REMARK  status: ('A' for Active; 'I' for Inactive)
REMARK    1  A    between atoms: O_1  and  C_10 
REMARK    2  A    between atoms: O_2  and  C_17 
REMARK    3  A    between atoms: O_3  and  C_20 
REMARK    4  A    between atoms: O_4  and  C_27 
REMARK    5  A    between atoms: O_6  and  C_29 
REMARK    6  A    between atoms: O_7  and  C_28 
REMARK    7  A    between atoms: O_8  and  C_33 
REMARK    8  A    between atoms: C_11  and  C_20 
REMARK    9  A    between atoms: C_20  and  C_28 
REMARK   10  A    between atoms: C_28  and  C_31 
REMARK   11  A    between atoms: C_31  and  C_32 
REMARK   12  A    between atoms: C_32  and  C_33 
ROOT
HETATM    1  O   UNK     0     151.666 153.102 148.601  0.00  0.00    -0.384 OA
HETATM    2  H   UNK     0     150.842 152.769 148.984  0.00  0.00     0.211 HD
ENDROOT
BRANCH   1   3
HETATM    3  C   UNK     0     151.472 154.397 147.988  0.00  0.00     0.090 C 
HETATM    4  C   UNK     0     150.013 154.868 148.219  0.00  0.00    -0.000 C 
HETATM    5  C   UNK     0     149.231 153.787 147.428  0.00  0.00     0.034 C 
HETATM    6  C   UNK     0     149.731 154.864 149.728  0.00  0.00     0.045 C 
HETATM    7  C   UNK     0     149.733 156.284 147.642  0.00  0.00     0.019 C 
HETATM    8  C   UNK     0     150.093 153.562 146.164  0.00  0.00     0.012 C 
HETATM    9  C   UNK     0     151.492 154.140 146.475  0.00  0.00     0.044 C 
HETATM   10  C   UNK     0     150.718 155.773 150.489  0.00  0.00     0.128 C 
HETATM   11  C   UNK     0     152.236 155.489 150.184  0.00  0.00     0.055 C 
HETATM   12  C   UNK     0     153.235 156.520 150.874  0.00  0.00    -0.021 C 
HETATM   13  C   UNK     0     152.459 155.326 148.666  0.00  0.00    -0.034 C 
HETATM   14  C   UNK     0     154.632 156.455 150.191  0.00  0.00     0.071 C 
HETATM   15  C   UNK     0     153.384 156.234 152.413  0.00  0.00     0.045 C 
HETATM   16  C   UNK     0     152.710 157.975 150.725  0.00  0.00     0.017 C 
HETATM   17  C   UNK     0     155.437 155.171 150.464  0.00  0.00     0.047 C 
HETATM   18  C   UNK     0     154.518 156.647 148.694  0.00  0.00     0.154 C 
HETATM   19  C   UNK     0     155.147 154.540 151.822  0.00  0.00     0.147 C 
HETATM   20  C   UNK     0     154.698 155.574 152.845  0.00  0.00     0.147 C 
HETATM   21  O   UNK     0     155.320 157.329 148.060  0.00  0.00    -0.293 OA
HETATM   22  C   UNK     0     153.458 155.904 147.984  0.00  0.00     0.057 C 
BRANCH   5  23
HETATM   23  C   UNK     0     147.777 154.099 147.103  0.00  0.00     0.084 C 
HETATM   24  C   UNK     0     147.706 155.177 146.009  0.00  0.00     0.049 C 
BRANCH  23  25
HETATM   25  O   UNK     0     147.166 152.914 146.578  0.00  0.00    -0.387 OA
HETATM   26  H   UNK     0     147.242 152.202 147.235  0.00  0.00     0.210 HD
ENDBRANCH  23  25
BRANCH  23  27
HETATM   27  C   UNK     0     146.977 154.541 148.359  0.00  0.00     0.152 C 
BRANCH  27  28
HETATM   28  O   UNK     0     146.383 153.394 148.977  0.00  0.00    -0.393 OA
HETATM   29  H   UNK     0     145.690 153.067 148.379  0.00  0.00     0.210 HD
ENDBRANCH  27  28
BRANCH  27  30
HETATM   30  C   UNK     0     145.864 155.567 148.072  0.00  0.00     0.037 C 
BRANCH  30  31
HETATM   31  C   UNK     0     145.571 156.457 149.294  0.00  0.00     0.040 C 
BRANCH  31  32
HETATM   32  C   UNK     0     146.317 157.808 149.296  0.00  0.00     0.051 C 
HETATM   33  C   UNK     0     145.366 158.919 149.753  0.00  0.00     0.045 C 
HETATM   34  C   UNK     0     147.562 157.788 150.188  0.00  0.00     0.045 C 
BRANCH  32  35
HETATM   35  O   UNK     0     146.724 158.100 147.958  0.00  0.00    -0.391 OA
HETATM   36  H   UNK     0     145.981 158.518 147.492  0.00  0.00     0.210 HD
ENDBRANCH  32  35
ENDBRANCH  31  32
ENDBRANCH  30  31
ENDBRANCH  27  30
ENDBRANCH  23  27
ENDBRANCH   5  23
BRANCH  10  37
HETATM   37  O   UNK     0     150.449 155.614 151.879  0.00  0.00    -0.395 OA
HETATM   38  H   UNK     0     149.809 156.300 152.137  0.00  0.00     0.210 HD
ENDBRANCH  10  37
BRANCH  19  39
HETATM   39  O   UNK     0     156.318 153.868 152.274  0.00  0.00    -0.393 OA
HETATM   40  H   UNK     0     156.752 153.460 151.507  0.00  0.00     0.210 HD
ENDBRANCH  19  39
BRANCH  20  41
HETATM   41  O   UNK     0     155.697 156.584 153.001  0.00  0.00    -0.393 OA
HETATM   42  H   UNK     0     156.561 156.141 153.031  0.00  0.00     0.210 HD
ENDBRANCH  20  41
ENDBRANCH   1   3
TORSDOF 12
ENDMDL
MODEL 10
REMARK VINA RESULT:      -8.2      2.088      8.473
REMARK  12 active torsions:
REMARK  status: ('A' for Active; 'I' for Inactive)
REMARK    1  A    between atoms: O_1  and  C_10 
REMARK    2  A    between atoms: O_2  and  C_17 
REMARK    3  A    between atoms: O_3  and  C_20 
REMARK    4  A    between atoms: O_4  and  C_27 
REMARK    5  A    between atoms: O_6  and  C_29 
REMARK    6  A    between atoms: O_7  and  C_28 
REMARK    7  A    between atoms: O_8  and  C_33 
REMARK    8  A    between atoms: C_11  and  C_20 
REMARK    9  A    between atoms: C_20  and  C_28 
REMARK   10  A    between atoms: C_28  and  C_31 
REMARK   11  A    between atoms: C_31  and  C_32 
REMARK   12  A    between atoms: C_32  and  C_33 
ROOT
HETATM    1  O   UNK     0     152.193 148.852 141.876  0.00  0.00    -0.384 OA
HETATM    2  H   UNK     0     151.628 149.632 141.779  0.00  0.00     0.211 HD
ENDROOT
BRANCH   1   3
HETATM    3  C   UNK     0     151.952 148.185 143.137  0.00  0.00     0.090 C 
HETATM    4  C   UNK     0     151.708 149.241 144.245  0.00  0.00    -0.000 C 
HETATM    5  C   UNK     0     153.087 149.950 144.278  0.00  0.00     0.034 C 
HETATM    6  C   UNK     0     150.549 150.148 143.810  0.00  0.00     0.045 C 
HETATM    7  C   UNK     0     151.381 148.608 145.626  0.00  0.00     0.019 C 
HETATM    8  C   UNK     0     154.100 148.794 144.109  0.00  0.00     0.012 C 
HETATM    9  C   UNK     0     153.307 147.592 143.549  0.00  0.00     0.044 C 
HETATM   10  C   UNK     0     149.265 149.336 143.547  0.00  0.00     0.128 C 
HETATM   11  C   UNK     0     149.449 148.122 142.563  0.00  0.00     0.055 C 
HETATM   12  C   UNK     0     148.149 147.216 142.406  0.00  0.00    -0.021 C 
HETATM   13  C   UNK     0     150.723 147.326 142.921  0.00  0.00    -0.034 C 
HETATM   14  C   UNK     0     148.524 145.834 141.796  0.00  0.00     0.071 C 
HETATM   15  C   UNK     0     147.066 147.916 141.504  0.00  0.00     0.045 C 
HETATM   16  C   UNK     0     147.494 146.953 143.791  0.00  0.00     0.017 C 
HETATM   17  C   UNK     0     148.939 145.862 140.313  0.00  0.00     0.047 C 
HETATM   18  C   UNK     0     149.623 145.166 142.595  0.00  0.00     0.154 C 
HETATM   19  C   UNK     0     148.268 146.969 139.508  0.00  0.00     0.147 C 
HETATM   20  C   UNK     0     146.914 147.353 140.087  0.00  0.00     0.147 C 
HETATM   21  O   UNK     0     149.611 143.962 142.841  0.00  0.00    -0.293 OA
HETATM   22  C   UNK     0     150.781 145.989 142.996  0.00  0.00     0.057 C 
BRANCH   5  23
HETATM   23  C   UNK     0     153.378 150.818 145.495  0.00  0.00     0.084 C 
HETATM   24  C   UNK     0     153.162 150.003 146.780  0.00  0.00     0.049 C 
BRANCH  23  25
HETATM   25  O   UNK     0     154.759 151.201 145.458  0.00  0.00    -0.387 OA
HETATM   26  H   UNK     0     155.228 150.759 146.185  0.00  0.00     0.210 HD
ENDBRANCH  23  25
BRANCH  23  27
HETATM   27  C   UNK     0     152.518 152.110 145.514  0.00  0.00     0.152 C 
BRANCH  27  28
HETATM   28  O   UNK     0     153.352 153.246 145.259  0.00  0.00    -0.393 OA
HETATM   29  H   UNK     0     153.683 153.561 146.117  0.00  0.00     0.210 HD
ENDBRANCH  27  28
BRANCH  27  30
HETATM   30  C   UNK     0     151.765 152.350 146.837  0.00  0.00     0.037 C 
BRANCH  30  31
HETATM   31  C   UNK     0     150.241 152.205 146.668  0.00  0.00     0.040 C 
BRANCH  31  32
HETATM   32  C   UNK     0     149.430 153.451 147.081  0.00  0.00     0.051 C 
HETATM   33  C   UNK     0     150.086 154.707 146.498  0.00  0.00     0.045 C 
HETATM   34  C   UNK     0     147.967 153.372 146.634  0.00  0.00     0.045 C 
BRANCH  32  35
HETATM   35  O   UNK     0     149.462 153.559 148.505  0.00  0.00    -0.391 OA
HETATM   36  H   UNK     0     150.141 152.953 148.846  0.00  0.00     0.210 HD
ENDBRANCH  32  35
ENDBRANCH  31  32
ENDBRANCH  30  31
ENDBRANCH  27  30
ENDBRANCH  23  27
ENDBRANCH   5  23
BRANCH  10  37
HETATM   37  O   UNK     0     148.289 150.244 143.044  0.00  0.00    -0.395 OA
HETATM   38  H   UNK     0     148.518 151.133 143.365  0.00  0.00     0.210 HD
ENDBRANCH  10  37
BRANCH  19  39
HETATM   39  O   UNK     0     148.127 146.533 138.159  0.00  0.00    -0.393 OA
HETATM   40  H   UNK     0     147.469 145.818 138.137  0.00  0.00     0.210 HD
ENDBRANCH  19  39
BRANCH  20  41
HETATM   41  O   UNK     0     146.051 146.215 140.129  0.00  0.00    -0.393 OA
HETATM   42  H   UNK     0     145.905 145.990 141.063  0.00  0.00     0.210 HD
ENDBRANCH  20  41
ENDBRANCH   1   3
TORSDOF 12
ENDMDL
