MODEL 1
REMARK VINA RESULT:    -9.367      0.000      0.000
REMARK INTER + INTRA:         -14.481
REMARK INTER:                 -13.748
REMARK INTRA:                  -0.734
REMARK UNBOUND:                -0.734
REMARK  Name = 74978140
REMARK  12 active torsions:
REMARK  status: ('A' for Active; 'I' for Inactive)
REMARK    1  A    between atoms: O_2  and  C_16
REMARK    2  A    between atoms: O_2  and  C_18
REMARK    3  A    between atoms: O_3  and  C_12
REMARK    4  A    between atoms: O_4  and  C_13
REMARK    5  A    between atoms: O_5  and  C_14
REMARK    6  A    between atoms: O_6  and  C_17
REMARK    7  A    between atoms: O_9  and  C_24
REMARK    8  A    between atoms: O_10  and  C_29
REMARK    9  A    between atoms: O_11  and  C_32
REMARK   10  A    between atoms: O_11  and  C_33
REMARK   11  A    between atoms: C_15  and  C_17
REMARK   12  A    between atoms: C_19  and  C_23
REMARK                            x       y       z     vdW  Elec       q    Type
REMARK                         _______ _______ _______ _____ _____    ______ ____
ROOT
ATOM      1  O   UNL     1     108.047 144.176 164.839  0.00  0.00    +0.000 OA
ATOM      2  O   UNL     1     105.698 141.662 167.021  0.00  0.00    +0.000 OA
ATOM      3  C   UNL     1     105.885 143.151 165.190  0.00  0.00    +0.000 A 
ATOM      4  C   UNL     1     106.715 143.970 164.518  0.00  0.00    +0.000 A 
ATOM      5  C   UNL     1     106.405 142.419 166.370  0.00  0.00    +0.000 A 
ATOM      6  C   UNL     1     107.816 142.651 166.714  0.00  0.00    +0.000 A 
ATOM      7  C   UNL     1     108.567 143.522 165.926  0.00  0.00    +0.000 A 
ATOM      8  C   UNL     1     108.398 142.011 167.810  0.00  0.00    +0.000 A 
ATOM      9  C   UNL     1     109.907 143.758 166.231  0.00  0.00    +0.000 A 
ATOM     10  C   UNL     1     109.740 142.249 168.113  0.00  0.00    +0.000 A 
ATOM     11  C   UNL     1     110.493 143.120 167.325  0.00  0.00    +0.000 A 
ENDROOT
BRANCH   4  12
ATOM     12  C   UNL     1     106.286 144.730 163.330  0.00  0.00    +0.000 A 
ATOM     13  C   UNL     1     106.326 144.134 162.070  0.00  0.00    +0.000 A 
ATOM     14  C   UNL     1     105.839 146.044 163.466  0.00  0.00    +0.000 A 
ATOM     15  C   UNL     1     105.918 144.852 160.945  0.00  0.00    +0.000 A 
ATOM     16  C   UNL     1     105.433 146.762 162.342  0.00  0.00    +0.000 A 
ATOM     17  C   UNL     1     105.472 146.167 161.082  0.00  0.00    +0.000 A 
BRANCH  17  18
ATOM     18  O   UNL     1     105.074 146.868 159.986  0.00  0.00    +0.000 OA
ATOM     19  C   UNL     1     105.999 146.959 158.903  0.00  0.00    +0.000 C 
ENDBRANCH  17  18
ENDBRANCH   4  12
BRANCH   8  20
ATOM     20  O   UNL     1     107.710 141.151 168.611  0.00  0.00    +0.000 OA
ATOM     21  H   UNL     1     107.733 141.452 169.532  0.00  0.00    +0.000 HD
ENDBRANCH   8  20
BRANCH  11  22
ATOM     22  O   UNL     1     111.801 143.350 167.625  0.00  0.00    +0.000 OA
ATOM     23  H   UNL     1     111.925 143.259 168.585  0.00  0.00    +0.000 HD
ENDBRANCH  11  22
BRANCH   3  24
ATOM     24  O   UNL     1     104.574 142.943 164.824  0.00  0.00    +0.000 OA
BRANCH  24  30
ATOM     25  O   UNL     1     102.424 143.881 164.739  0.00  0.00    +0.000 OA
ATOM     26  C   UNL     1     102.642 144.779 167.457  0.00  0.00    +0.000 C 
ATOM     27  C   UNL     1     101.307 144.803 166.707  0.00  0.00    +0.000 C 
ATOM     28  C   UNL     1     103.581 143.729 166.863  0.00  0.00    +0.000 C 
ATOM     29  C   UNL     1     101.544 144.914 165.194  0.00  0.00    +0.000 C 
ATOM     30  C   UNL     1     103.712 143.945 165.355  0.00  0.00    +0.000 C 
BRANCH  26  31
ATOM     31  O   UNL     1     102.402 144.499 168.832  0.00  0.00    +0.000 OA
ATOM     32  H   UNL     1     102.729 145.255 169.347  0.00  0.00    +0.000 HD
ENDBRANCH  26  31
BRANCH  27  33
ATOM     33  O   UNL     1     100.540 145.922 167.143  0.00  0.00    +0.000 OA
ATOM     34  H   UNL     1      99.976 146.207 166.405  0.00  0.00    +0.000 HD
ENDBRANCH  27  33
BRANCH  28  35
ATOM     35  O   UNL     1     103.038 142.423 167.082  0.00  0.00    +0.000 OA
ATOM     36  H   UNL     1     102.253 142.318 166.519  0.00  0.00    +0.000 HD
ENDBRANCH  28  35
BRANCH  29  37
ATOM     37  C   UNL     1     100.240 144.784 164.412  0.00  0.00    +0.000 C 
BRANCH  37  38
ATOM     38  O   UNL     1      99.615 146.054 164.367  0.00  0.00    +0.000 OA
ATOM     39  H   UNL     1      99.670 146.433 165.260  0.00  0.00    +0.000 HD
ENDBRANCH  37  38
ENDBRANCH  29  37
ENDBRANCH  24  30
ENDBRANCH   3  24
TORSDOF 11
ENDMDL
MODEL 2
REMARK VINA RESULT:    -9.322      1.596      5.573
REMARK INTER + INTRA:         -14.416
REMARK INTER:                 -13.188
REMARK INTRA:                  -1.228
REMARK UNBOUND:                -0.734
REMARK  Name = 74978140
REMARK  12 active torsions:
REMARK  status: ('A' for Active; 'I' for Inactive)
REMARK    1  A    between atoms: O_2  and  C_16
REMARK    2  A    between atoms: O_2  and  C_18
REMARK    3  A    between atoms: O_3  and  C_12
REMARK    4  A    between atoms: O_4  and  C_13
REMARK    5  A    between atoms: O_5  and  C_14
REMARK    6  A    between atoms: O_6  and  C_17
REMARK    7  A    between atoms: O_9  and  C_24
REMARK    8  A    between atoms: O_10  and  C_29
REMARK    9  A    between atoms: O_11  and  C_32
REMARK   10  A    between atoms: O_11  and  C_33
REMARK   11  A    between atoms: C_15  and  C_17
REMARK   12  A    between atoms: C_19  and  C_23
REMARK                            x       y       z     vdW  Elec       q    Type
REMARK                         _______ _______ _______ _____ _____    ______ ____
ROOT
ATOM      1  O   UNL     1     107.851 144.669 163.703  0.00  0.00    +0.000 OA
ATOM      2  O   UNL     1     104.107 144.953 162.121  0.00  0.00    +0.000 OA
ATOM      3  C   UNL     1     105.522 144.021 163.774  0.00  0.00    +0.000 A 
ATOM      4  C   UNL     1     106.783 143.969 164.241  0.00  0.00    +0.000 A 
ATOM      5  C   UNL     1     105.233 144.867 162.591  0.00  0.00    +0.000 A 
ATOM      6  C   UNL     1     106.372 145.597 162.015  0.00  0.00    +0.000 A 
ATOM      7  C   UNL     1     107.628 145.459 162.605  0.00  0.00    +0.000 A 
ATOM      8  C   UNL     1     106.204 146.418 160.898  0.00  0.00    +0.000 A 
ATOM      9  C   UNL     1     108.724 146.143 162.078  0.00  0.00    +0.000 A 
ATOM     10  C   UNL     1     107.303 147.100 160.374  0.00  0.00    +0.000 A 
ATOM     11  C   UNL     1     108.560 146.963 160.963  0.00  0.00    +0.000 A 
ENDROOT
BRANCH   4  12
ATOM     12  C   UNL     1     107.159 143.162 165.416  0.00  0.00    +0.000 A 
ATOM     13  C   UNL     1     107.106 141.770 165.351  0.00  0.00    +0.000 A 
ATOM     14  C   UNL     1     107.567 143.790 166.592  0.00  0.00    +0.000 A 
ATOM     15  C   UNL     1     107.464 141.006 166.463  0.00  0.00    +0.000 A 
ATOM     16  C   UNL     1     107.924 143.027 167.703  0.00  0.00    +0.000 A 
ATOM     17  C   UNL     1     107.873 141.635 167.639  0.00  0.00    +0.000 A 
BRANCH  17  18
ATOM     18  O   UNL     1     108.222 140.891 168.723  0.00  0.00    +0.000 OA
ATOM     19  C   UNL     1     108.227 139.473 168.563  0.00  0.00    +0.000 C 
ENDBRANCH  17  18
ENDBRANCH   4  12
BRANCH   8  20
ATOM     20  O   UNL     1     105.000 146.588 160.286  0.00  0.00    +0.000 OA
ATOM     21  H   UNL     1     105.005 146.184 159.404  0.00  0.00    +0.000 HD
ENDBRANCH   8  20
BRANCH  11  22
ATOM     22  O   UNL     1     109.629 147.630 160.447  0.00  0.00    +0.000 OA
ATOM     23  H   UNL     1     109.307 148.325 159.847  0.00  0.00    +0.000 HD
ENDBRANCH  11  22
BRANCH   3  24
ATOM     24  O   UNL     1     104.476 143.338 164.354  0.00  0.00    +0.000 OA
BRANCH  24  30
ATOM     25  O   UNL     1     102.286 144.082 164.758  0.00  0.00    +0.000 OA
ATOM     26  C   UNL     1     102.935 144.704 167.484  0.00  0.00    +0.000 C 
ATOM     27  C   UNL     1     101.487 144.687 166.987  0.00  0.00    +0.000 C 
ATOM     28  C   UNL     1     103.820 143.812 166.614  0.00  0.00    +0.000 C 
ATOM     29  C   UNL     1     101.435 144.977 165.480  0.00  0.00    +0.000 C 
ATOM     30  C   UNL     1     103.658 144.196 165.144  0.00  0.00    +0.000 C 
BRANCH  26  31
ATOM     31  O   UNL     1     102.971 144.260 168.837  0.00  0.00    +0.000 OA
ATOM     32  H   UNL     1     103.885 144.357 169.153  0.00  0.00    +0.000 HD
ENDBRANCH  26  31
BRANCH  27  33
ATOM     33  O   UNL     1     100.737 145.680 167.681  0.00  0.00    +0.000 OA
ATOM     34  H   UNL     1      99.820 145.366 167.756  0.00  0.00    +0.000 HD
ENDBRANCH  27  33
BRANCH  28  35
ATOM     35  O   UNL     1     103.420 142.446 166.766  0.00  0.00    +0.000 OA
ATOM     36  H   UNL     1     104.122 141.971 167.242  0.00  0.00    +0.000 HD
ENDBRANCH  28  35
BRANCH  29  37
ATOM     37  C   UNL     1     100.022 144.814 164.927  0.00  0.00    +0.000 C 
BRANCH  37  38
ATOM     38  O   UNL     1      99.367 146.068 164.990  0.00  0.00    +0.000 OA
ATOM     39  H   UNL     1      99.391 146.450 164.097  0.00  0.00    +0.000 HD
ENDBRANCH  37  38
ENDBRANCH  29  37
ENDBRANCH  24  30
ENDBRANCH   3  24
TORSDOF 11
ENDMDL
MODEL 3
REMARK VINA RESULT:    -9.201     19.511     24.152
REMARK INTER + INTRA:         -14.237
REMARK INTER:                 -13.315
REMARK INTRA:                  -0.922
REMARK UNBOUND:                -0.734
REMARK  Name = 74978140
REMARK  12 active torsions:
REMARK  status: ('A' for Active; 'I' for Inactive)
REMARK    1  A    between atoms: O_2  and  C_16
REMARK    2  A    between atoms: O_2  and  C_18
REMARK    3  A    between atoms: O_3  and  C_12
REMARK    4  A    between atoms: O_4  and  C_13
REMARK    5  A    between atoms: O_5  and  C_14
REMARK    6  A    between atoms: O_6  and  C_17
REMARK    7  A    between atoms: O_9  and  C_24
REMARK    8  A    between atoms: O_10  and  C_29
REMARK    9  A    between atoms: O_11  and  C_32
REMARK   10  A    between atoms: O_11  and  C_33
REMARK   11  A    between atoms: C_15  and  C_17
REMARK   12  A    between atoms: C_19  and  C_23
REMARK                            x       y       z     vdW  Elec       q    Type
REMARK                         _______ _______ _______ _____ _____    ______ ____
ROOT
ATOM      1  O   UNL     1     117.291 146.778 146.744  0.00  0.00    +0.000 OA
ATOM      2  O   UNL     1     114.536 147.878 143.952  0.00  0.00    +0.000 OA
ATOM      3  C   UNL     1     116.756 148.047 144.756  0.00  0.00    +0.000 A 
ATOM      4  C   UNL     1     117.612 147.647 145.714  0.00  0.00    +0.000 A 
ATOM      5  C   UNL     1     115.360 147.549 144.794  0.00  0.00    +0.000 A 
ATOM      6  C   UNL     1     115.020 146.637 145.897  0.00  0.00    +0.000 A 
ATOM      7  C   UNL     1     116.009 146.297 146.819  0.00  0.00    +0.000 A 
ATOM      8  C   UNL     1     113.731 146.116 146.022  0.00  0.00    +0.000 A 
ATOM      9  C   UNL     1     115.713 145.433 147.873  0.00  0.00    +0.000 A 
ATOM     10  C   UNL     1     113.437 145.251 147.078  0.00  0.00    +0.000 A 
ATOM     11  C   UNL     1     114.426 144.911 148.001  0.00  0.00    +0.000 A 
ENDROOT
BRANCH   4  12
ATOM     12  C   UNL     1     119.020 148.085 145.750  0.00  0.00    +0.000 A 
ATOM     13  C   UNL     1     119.439 149.008 146.708  0.00  0.00    +0.000 A 
ATOM     14  C   UNL     1     119.932 147.576 144.826  0.00  0.00    +0.000 A 
ATOM     15  C   UNL     1     120.771 149.421 146.743  0.00  0.00    +0.000 A 
ATOM     16  C   UNL     1     121.263 147.989 144.861  0.00  0.00    +0.000 A 
ATOM     17  C   UNL     1     121.683 148.912 145.819  0.00  0.00    +0.000 A 
BRANCH  17  18
ATOM     18  O   UNL     1     122.983 149.313 145.853  0.00  0.00    +0.000 OA
ATOM     19  C   UNL     1     123.292 150.561 145.231  0.00  0.00    +0.000 C 
ENDBRANCH  17  18
ENDBRANCH   4  12
BRANCH   8  20
ATOM     20  O   UNL     1     112.729 146.414 145.149  0.00  0.00    +0.000 OA
ATOM     21  H   UNL     1     113.093 146.756 144.317  0.00  0.00    +0.000 HD
ENDBRANCH   8  20
BRANCH  11  22
ATOM     22  O   UNL     1     114.134 144.068 149.030  0.00  0.00    +0.000 OA
ATOM     23  H   UNL     1     114.839 143.402 149.102  0.00  0.00    +0.000 HD
ENDBRANCH  11  22
BRANCH   3  24
ATOM     24  O   UNL     1     117.117 148.887 143.726  0.00  0.00    +0.000 OA
BRANCH  24  30
ATOM     25  O   UNL     1     116.908 150.482 145.435  0.00  0.00    +0.000 OA
ATOM     26  C   UNL     1     117.540 152.607 143.611  0.00  0.00    +0.000 C 
ATOM     27  C   UNL     1     117.498 152.833 145.125  0.00  0.00    +0.000 C 
ATOM     28  C   UNL     1     117.820 151.140 143.288  0.00  0.00    +0.000 C 
ATOM     29  C   UNL     1     116.555 151.822 145.792  0.00  0.00    +0.000 C 
ATOM     30  C   UNL     1     116.823 150.247 144.027  0.00  0.00    +0.000 C 
BRANCH  26  31
ATOM     31  O   UNL     1     118.551 153.435 143.042  0.00  0.00    +0.000 OA
ATOM     32  H   UNL     1     119.329 152.876 142.879  0.00  0.00    +0.000 HD
ENDBRANCH  26  31
BRANCH  27  33
ATOM     33  O   UNL     1     117.034 154.154 145.393  0.00  0.00    +0.000 OA
ATOM     34  H   UNL     1     116.212 154.292 144.892  0.00  0.00    +0.000 HD
ENDBRANCH  27  33
BRANCH  28  35
ATOM     35  O   UNL     1     119.138 150.795 143.725  0.00  0.00    +0.000 OA
ATOM     36  H   UNL     1     119.779 151.288 143.186  0.00  0.00    +0.000 HD
ENDBRANCH  28  35
BRANCH  29  37
ATOM     37  C   UNL     1     116.610 151.922 147.313  0.00  0.00    +0.000 C 
BRANCH  37  38
ATOM     38  O   UNL     1     115.934 153.101 147.711  0.00  0.00    +0.000 OA
ATOM     39  H   UNL     1     115.312 152.851 148.416  0.00  0.00    +0.000 HD
ENDBRANCH  37  38
ENDBRANCH  29  37
ENDBRANCH  24  30
ENDBRANCH   3  24
TORSDOF 11
ENDMDL
MODEL 4
REMARK VINA RESULT:    -9.181     20.670     24.745
REMARK INTER + INTRA:         -14.209
REMARK INTER:                 -13.265
REMARK INTRA:                  -0.944
REMARK UNBOUND:                -0.734
REMARK  Name = 74978140
REMARK  12 active torsions:
REMARK  status: ('A' for Active; 'I' for Inactive)
REMARK    1  A    between atoms: O_2  and  C_16
REMARK    2  A    between atoms: O_2  and  C_18
REMARK    3  A    between atoms: O_3  and  C_12
REMARK    4  A    between atoms: O_4  and  C_13
REMARK    5  A    between atoms: O_5  and  C_14
REMARK    6  A    between atoms: O_6  and  C_17
REMARK    7  A    between atoms: O_9  and  C_24
REMARK    8  A    between atoms: O_10  and  C_29
REMARK    9  A    between atoms: O_11  and  C_32
REMARK   10  A    between atoms: O_11  and  C_33
REMARK   11  A    between atoms: C_15  and  C_17
REMARK   12  A    between atoms: C_19  and  C_23
REMARK                            x       y       z     vdW  Elec       q    Type
REMARK                         _______ _______ _______ _____ _____    ______ ____
ROOT
ATOM      1  O   UNL     1     117.294 147.152 146.798  0.00  0.00    +0.000 OA
ATOM      2  O   UNL     1     114.252 149.221 145.046  0.00  0.00    +0.000 OA
ATOM      3  C   UNL     1     116.508 149.191 145.762  0.00  0.00    +0.000 A 
ATOM      4  C   UNL     1     117.465 148.454 146.354  0.00  0.00    +0.000 A 
ATOM      5  C   UNL     1     115.162 148.598 145.576  0.00  0.00    +0.000 A 
ATOM      6  C   UNL     1     114.981 147.222 146.061  0.00  0.00    +0.000 A 
ATOM      7  C   UNL     1     116.062 146.568 146.650  0.00  0.00    +0.000 A 
ATOM      8  C   UNL     1     113.750 146.576 145.935  0.00  0.00    +0.000 A 
ATOM      9  C   UNL     1     115.916 145.261 147.117  0.00  0.00    +0.000 A 
ATOM     10  C   UNL     1     113.607 145.269 146.403  0.00  0.00    +0.000 A 
ATOM     11  C   UNL     1     114.688 144.613 146.992  0.00  0.00    +0.000 A 
ENDROOT
BRANCH   4  12
ATOM     12  C   UNL     1     118.833 148.959 146.572  0.00  0.00    +0.000 A 
ATOM     13  C   UNL     1     119.918 148.314 145.979  0.00  0.00    +0.000 A 
ATOM     14  C   UNL     1     119.042 150.084 147.370  0.00  0.00    +0.000 A 
ATOM     15  C   UNL     1     121.212 148.793 146.184  0.00  0.00    +0.000 A 
ATOM     16  C   UNL     1     120.335 150.562 147.576  0.00  0.00    +0.000 A 
ATOM     17  C   UNL     1     121.420 149.918 146.982  0.00  0.00    +0.000 A 
BRANCH  17  18
ATOM     18  O   UNL     1     122.682 150.386 147.183  0.00  0.00    +0.000 OA
ATOM     19  C   UNL     1     123.172 151.348 146.249  0.00  0.00    +0.000 C 
ENDBRANCH  17  18
ENDBRANCH   4  12
BRANCH   8  20
ATOM     20  O   UNL     1     112.663 147.169 145.367  0.00  0.00    +0.000 OA
ATOM     21  H   UNL     1     111.862 146.650 145.541  0.00  0.00    +0.000 HD
ENDBRANCH   8  20
BRANCH  11  22
ATOM     22  O   UNL     1     114.543 143.338 147.448  0.00  0.00    +0.000 OA
ATOM     23  H   UNL     1     113.613 143.193 147.690  0.00  0.00    +0.000 HD
ENDBRANCH  11  22
BRANCH   3  24
ATOM     24  O   UNL     1     116.723 150.472 145.301  0.00  0.00    +0.000 OA
BRANCH  24  30
ATOM     25  O   UNL     1     116.264 151.438 143.212  0.00  0.00    +0.000 OA
ATOM     26  C   UNL     1     118.929 150.881 142.301  0.00  0.00    +0.000 C 
ATOM     27  C   UNL     1     117.988 151.801 141.518  0.00  0.00    +0.000 C 
ATOM     28  C   UNL     1     118.542 150.838 143.779  0.00  0.00    +0.000 C 
ATOM     29  C   UNL     1     116.524 151.439 141.805  0.00  0.00    +0.000 C 
ATOM     30  C   UNL     1     117.062 150.485 143.918  0.00  0.00    +0.000 C 
BRANCH  26  31
ATOM     31  O   UNL     1     120.267 151.349 142.158  0.00  0.00    +0.000 OA
ATOM     32  H   UNL     1     120.833 150.574 142.004  0.00  0.00    +0.000 HD
ENDBRANCH  26  31
BRANCH  27  33
ATOM     33  O   UNL     1     118.240 151.659 140.123  0.00  0.00    +0.000 OA
ATOM     34  H   UNL     1     118.256 152.547 139.728  0.00  0.00    +0.000 HD
ENDBRANCH  27  33
BRANCH  28  35
ATOM     35  O   UNL     1     118.752 152.126 144.367  0.00  0.00    +0.000 OA
ATOM     36  H   UNL     1     119.496 152.063 144.988  0.00  0.00    +0.000 HD
ENDBRANCH  28  35
BRANCH  29  37
ATOM     37  C   UNL     1     115.564 152.435 141.161  0.00  0.00    +0.000 C 
BRANCH  37  38
ATOM     38  O   UNL     1     114.588 152.803 142.119  0.00  0.00    +0.000 OA
ATOM     39  H   UNL     1     114.828 152.368 142.955  0.00  0.00    +0.000 HD
ENDBRANCH  37  38
ENDBRANCH  29  37
ENDBRANCH  24  30
ENDBRANCH   3  24
TORSDOF 11
ENDMDL
MODEL 5
REMARK VINA RESULT:    -9.140     22.318     25.550
REMARK INTER + INTRA:         -14.149
REMARK INTER:                 -13.695
REMARK INTRA:                  -0.454
REMARK UNBOUND:                -0.734
REMARK  Name = 74978140
REMARK  12 active torsions:
REMARK  status: ('A' for Active; 'I' for Inactive)
REMARK    1  A    between atoms: O_2  and  C_16
REMARK    2  A    between atoms: O_2  and  C_18
REMARK    3  A    between atoms: O_3  and  C_12
REMARK    4  A    between atoms: O_4  and  C_13
REMARK    5  A    between atoms: O_5  and  C_14
REMARK    6  A    between atoms: O_6  and  C_17
REMARK    7  A    between atoms: O_9  and  C_24
REMARK    8  A    between atoms: O_10  and  C_29
REMARK    9  A    between atoms: O_11  and  C_32
REMARK   10  A    between atoms: O_11  and  C_33
REMARK   11  A    between atoms: C_15  and  C_17
REMARK   12  A    between atoms: C_19  and  C_23
REMARK                            x       y       z     vdW  Elec       q    Type
REMARK                         _______ _______ _______ _____ _____    ______ ____
ROOT
ATOM      1  O   UNL     1     119.996 149.736 147.047  0.00  0.00    +0.000 OA
ATOM      2  O   UNL     1     121.917 151.259 143.793  0.00  0.00    +0.000 OA
ATOM      3  C   UNL     1     120.012 150.158 144.666  0.00  0.00    +0.000 A 
ATOM      4  C   UNL     1     119.438 149.670 145.780  0.00  0.00    +0.000 A 
ATOM      5  C   UNL     1     121.345 150.799 144.771  0.00  0.00    +0.000 A 
ATOM      6  C   UNL     1     121.939 150.854 146.116  0.00  0.00    +0.000 A 
ATOM      7  C   UNL     1     121.230 150.317 147.188  0.00  0.00    +0.000 A 
ATOM      8  C   UNL     1     123.193 151.435 146.319  0.00  0.00    +0.000 A 
ATOM      9  C   UNL     1     121.772 150.358 148.473  0.00  0.00    +0.000 A 
ATOM     10  C   UNL     1     123.732 151.475 147.606  0.00  0.00    +0.000 A 
ATOM     11  C   UNL     1     123.023 150.938 148.680  0.00  0.00    +0.000 A 
ENDROOT
BRANCH   4  12
ATOM     12  C   UNL     1     118.112 149.025 145.770  0.00  0.00    +0.000 A 
ATOM     13  C   UNL     1     117.960 147.754 145.216  0.00  0.00    +0.000 A 
ATOM     14  C   UNL     1     117.011 149.684 146.315  0.00  0.00    +0.000 A 
ATOM     15  C   UNL     1     116.706 147.142 145.208  0.00  0.00    +0.000 A 
ATOM     16  C   UNL     1     115.757 149.074 146.306  0.00  0.00    +0.000 A 
ATOM     17  C   UNL     1     115.605 147.802 145.753  0.00  0.00    +0.000 A 
BRANCH  17  18
ATOM     18  O   UNL     1     114.381 147.206 145.746  0.00  0.00    +0.000 OA
ATOM     19  C   UNL     1     113.881 146.767 144.484  0.00  0.00    +0.000 C 
ENDBRANCH  17  18
ENDBRANCH   4  12
BRANCH   8  20
ATOM     20  O   UNL     1     123.926 151.975 145.306  0.00  0.00    +0.000 OA
ATOM     21  H   UNL     1     124.845 151.670 145.351  0.00  0.00    +0.000 HD
ENDBRANCH   8  20
BRANCH  11  22
ATOM     22  O   UNL     1     123.554 150.978 149.933  0.00  0.00    +0.000 OA
ATOM     23  H   UNL     1     123.892 151.874 150.104  0.00  0.00    +0.000 HD
ENDBRANCH  11  22
BRANCH   3  24
ATOM     24  O   UNL     1     119.414 150.106 143.426  0.00  0.00    +0.000 OA
BRANCH  24  30
ATOM     25  O   UNL     1     118.346 152.059 144.170  0.00  0.00    +0.000 OA
ATOM     26  C   UNL     1     116.631 152.073 141.868  0.00  0.00    +0.000 C 
ATOM     27  C   UNL     1     116.722 153.277 142.810  0.00  0.00    +0.000 C 
ATOM     28  C   UNL     1     117.906 151.232 141.936  0.00  0.00    +0.000 C 
ATOM     29  C   UNL     1     117.139 152.826 144.217  0.00  0.00    +0.000 C 
ATOM     30  C   UNL     1     118.212 150.870 143.388  0.00  0.00    +0.000 C 
BRANCH  26  31
ATOM     31  O   UNL     1     116.419 152.534 140.538  0.00  0.00    +0.000 OA
ATOM     32  H   UNL     1     115.664 153.145 140.557  0.00  0.00    +0.000 HD
ENDBRANCH  26  31
BRANCH  27  33
ATOM     33  O   UNL     1     115.452 153.918 142.881  0.00  0.00    +0.000 OA
ATOM     34  H   UNL     1     115.598 154.854 143.098  0.00  0.00    +0.000 HD
ENDBRANCH  27  33
BRANCH  28  35
ATOM     35  O   UNL     1     119.007 151.989 141.423  0.00  0.00    +0.000 OA
ATOM     36  H   UNL     1     118.890 152.090 140.463  0.00  0.00    +0.000 HD
ENDBRANCH  28  35
BRANCH  29  37
ATOM     37  C   UNL     1     117.387 154.019 145.136  0.00  0.00    +0.000 C 
BRANCH  37  38
ATOM     38  O   UNL     1     116.563 153.884 146.280  0.00  0.00    +0.000 OA
ATOM     39  H   UNL     1     115.647 154.038 145.993  0.00  0.00    +0.000 HD
ENDBRANCH  37  38
ENDBRANCH  29  37
ENDBRANCH  24  30
ENDBRANCH   3  24
TORSDOF 11
ENDMDL
MODEL 6
REMARK VINA RESULT:    -9.039     30.723     33.131
REMARK INTER + INTRA:         -13.999
REMARK INTER:                 -13.072
REMARK INTRA:                  -0.928
REMARK UNBOUND:                -0.734
REMARK  Name = 74978140
REMARK  12 active torsions:
REMARK  status: ('A' for Active; 'I' for Inactive)
REMARK    1  A    between atoms: O_2  and  C_16
REMARK    2  A    between atoms: O_2  and  C_18
REMARK    3  A    between atoms: O_3  and  C_12
REMARK    4  A    between atoms: O_4  and  C_13
REMARK    5  A    between atoms: O_5  and  C_14
REMARK    6  A    between atoms: O_6  and  C_17
REMARK    7  A    between atoms: O_9  and  C_24
REMARK    8  A    between atoms: O_10  and  C_29
REMARK    9  A    between atoms: O_11  and  C_32
REMARK   10  A    between atoms: O_11  and  C_33
REMARK   11  A    between atoms: C_15  and  C_17
REMARK   12  A    between atoms: C_19  and  C_23
REMARK                            x       y       z     vdW  Elec       q    Type
REMARK                         _______ _______ _______ _____ _____    ______ ____
ROOT
ATOM      1  O   UNL     1     131.685 148.567 145.033  0.00  0.00    +0.000 OA
ATOM      2  O   UNL     1     131.393 152.589 145.618  0.00  0.00    +0.000 OA
ATOM      3  C   UNL     1     130.945 150.725 144.229  0.00  0.00    +0.000 A 
ATOM      4  C   UNL     1     131.082 149.392 144.098  0.00  0.00    +0.000 A 
ATOM      5  C   UNL     1     131.486 151.381 145.443  0.00  0.00    +0.000 A 
ATOM      6  C   UNL     1     132.137 150.503 146.427  0.00  0.00    +0.000 A 
ATOM      7  C   UNL     1     132.203 149.135 146.169  0.00  0.00    +0.000 A 
ATOM      8  C   UNL     1     132.681 151.026 147.602  0.00  0.00    +0.000 A 
ATOM      9  C   UNL     1     132.815 148.281 147.086  0.00  0.00    +0.000 A 
ATOM     10  C   UNL     1     133.293 150.169 148.518  0.00  0.00    +0.000 A 
ATOM     11  C   UNL     1     133.359 148.799 148.261  0.00  0.00    +0.000 A 
ENDROOT
BRANCH   4  12
ATOM     12  C   UNL     1     130.568 148.656 142.929  0.00  0.00    +0.000 A 
ATOM     13  C   UNL     1     131.278 148.669 141.729  0.00  0.00    +0.000 A 
ATOM     14  C   UNL     1     129.372 147.945 143.024  0.00  0.00    +0.000 A 
ATOM     15  C   UNL     1     130.792 147.970 140.623  0.00  0.00    +0.000 A 
ATOM     16  C   UNL     1     128.886 147.247 141.918  0.00  0.00    +0.000 A 
ATOM     17  C   UNL     1     129.596 147.259 140.718  0.00  0.00    +0.000 A 
BRANCH  17  18
ATOM     18  O   UNL     1     129.122 146.577 139.640  0.00  0.00    +0.000 OA
ATOM     19  C   UNL     1     128.482 145.327 139.894  0.00  0.00    +0.000 C 
ENDBRANCH  17  18
ENDBRANCH   4  12
BRANCH   8  20
ATOM     20  O   UNL     1     132.643 152.354 147.903  0.00  0.00    +0.000 OA
ATOM     21  H   UNL     1     132.497 152.483 148.853  0.00  0.00    +0.000 HD
ENDBRANCH   8  20
BRANCH  11  22
ATOM     22  O   UNL     1     133.957 147.967 149.158  0.00  0.00    +0.000 OA
ATOM     23  H   UNL     1     134.794 148.367 149.450  0.00  0.00    +0.000 HD
ENDBRANCH  11  22
BRANCH   3  24
ATOM     24  O   UNL     1     130.309 151.512 143.295  0.00  0.00    +0.000 OA
BRANCH  24  30
ATOM     25  O   UNL     1     128.967 153.422 143.052  0.00  0.00    +0.000 OA
ATOM     26  C   UNL     1     126.908 152.258 144.679  0.00  0.00    +0.000 C 
ATOM     27  C   UNL     1     126.664 153.530 143.863  0.00  0.00    +0.000 C 
ATOM     28  C   UNL     1     128.038 151.428 144.069  0.00  0.00    +0.000 C 
ATOM     29  C   UNL     1     127.983 154.282 143.635  0.00  0.00    +0.000 C 
ATOM     30  C   UNL     1     129.279 152.301 143.883  0.00  0.00    +0.000 C 
BRANCH  26  31
ATOM     31  O   UNL     1     125.708 151.492 144.723  0.00  0.00    +0.000 OA
ATOM     32  H   UNL     1     125.941 150.599 145.028  0.00  0.00    +0.000 HD
ENDBRANCH  26  31
BRANCH  27  33
ATOM     33  O   UNL     1     125.758 154.376 144.565  0.00  0.00    +0.000 OA
ATOM     34  H   UNL     1     125.400 155.023 143.935  0.00  0.00    +0.000 HD
ENDBRANCH  27  33
BRANCH  28  35
ATOM     35  O   UNL     1     127.636 150.942 142.785  0.00  0.00    +0.000 OA
ATOM     36  H   UNL     1     126.891 150.330 142.908  0.00  0.00    +0.000 HD
ENDBRANCH  28  35
BRANCH  29  37
ATOM     37  C   UNL     1     127.796 155.470 142.696  0.00  0.00    +0.000 C 
BRANCH  37  38
ATOM     38  O   UNL     1     126.539 155.344 142.056  0.00  0.00    +0.000 OA
ATOM     39  H   UNL     1     126.232 156.242 141.847  0.00  0.00    +0.000 HD
ENDBRANCH  37  38
ENDBRANCH  29  37
ENDBRANCH  24  30
ENDBRANCH   3  24
TORSDOF 11
ENDMDL
MODEL 7
REMARK VINA RESULT:    -8.854     23.321     26.964
REMARK INTER + INTRA:         -13.728
REMARK INTER:                 -12.667
REMARK INTRA:                  -1.061
REMARK UNBOUND:                -0.734
REMARK  Name = 74978140
REMARK  12 active torsions:
REMARK  status: ('A' for Active; 'I' for Inactive)
REMARK    1  A    between atoms: O_2  and  C_16
REMARK    2  A    between atoms: O_2  and  C_18
REMARK    3  A    between atoms: O_3  and  C_12
REMARK    4  A    between atoms: O_4  and  C_13
REMARK    5  A    between atoms: O_5  and  C_14
REMARK    6  A    between atoms: O_6  and  C_17
REMARK    7  A    between atoms: O_9  and  C_24
REMARK    8  A    between atoms: O_10  and  C_29
REMARK    9  A    between atoms: O_11  and  C_32
REMARK   10  A    between atoms: O_11  and  C_33
REMARK   11  A    between atoms: C_15  and  C_17
REMARK   12  A    between atoms: C_19  and  C_23
REMARK                            x       y       z     vdW  Elec       q    Type
REMARK                         _______ _______ _______ _____ _____    ______ ____
ROOT
ATOM      1  O   UNL     1     121.577 151.684 144.792  0.00  0.00    +0.000 OA
ATOM      2  O   UNL     1     121.606 147.611 144.887  0.00  0.00    +0.000 OA
ATOM      3  C   UNL     1     122.788 149.635 145.217  0.00  0.00    +0.000 A 
ATOM      4  C   UNL     1     122.711 150.977 145.158  0.00  0.00    +0.000 A 
ATOM      5  C   UNL     1     121.595 148.834 144.854  0.00  0.00    +0.000 A 
ATOM      6  C   UNL     1     120.397 149.589 144.454  0.00  0.00    +0.000 A 
ATOM      7  C   UNL     1     120.452 150.982 144.444  0.00  0.00    +0.000 A 
ATOM      8  C   UNL     1     119.223 148.926 144.091  0.00  0.00    +0.000 A 
ATOM      9  C   UNL     1     119.329 151.720 144.070  0.00  0.00    +0.000 A 
ATOM     10  C   UNL     1     118.102 149.668 143.717  0.00  0.00    +0.000 A 
ATOM     11  C   UNL     1     118.155 151.062 143.707  0.00  0.00    +0.000 A 
ENDROOT
BRANCH   4  12
ATOM     12  C   UNL     1     123.845 151.852 145.508  0.00  0.00    +0.000 A 
ATOM     13  C   UNL     1     124.792 152.187 144.541  0.00  0.00    +0.000 A 
ATOM     14  C   UNL     1     123.969 152.344 146.807  0.00  0.00    +0.000 A 
ATOM     15  C   UNL     1     125.863 153.016 144.873  0.00  0.00    +0.000 A 
ATOM     16  C   UNL     1     125.041 153.172 147.139  0.00  0.00    +0.000 A 
ATOM     17  C   UNL     1     125.988 153.509 146.172  0.00  0.00    +0.000 A 
BRANCH  17  18
ATOM     18  O   UNL     1     127.033 154.318 146.497  0.00  0.00    +0.000 OA
ATOM     19  C   UNL     1     127.354 155.363 145.578  0.00  0.00    +0.000 C 
ENDBRANCH  17  18
ENDBRANCH   4  12
BRANCH   8  20
ATOM     20  O   UNL     1     119.117 147.568 144.084  0.00  0.00    +0.000 OA
ATOM     21  H   UNL     1     118.849 147.252 143.208  0.00  0.00    +0.000 HD
ENDBRANCH   8  20
BRANCH  11  22
ATOM     22  O   UNL     1     117.058 151.781 143.341  0.00  0.00    +0.000 OA
ATOM     23  H   UNL     1     117.021 151.827 142.370  0.00  0.00    +0.000 HD
ENDBRANCH  11  22
BRANCH   3  24
ATOM     24  O   UNL     1     123.923 148.964 145.617  0.00  0.00    +0.000 OA
BRANCH  24  30
ATOM     25  O   UNL     1     122.772 149.283 147.638  0.00  0.00    +0.000 OA
ATOM     26  C   UNL     1     124.308 147.218 148.910  0.00  0.00    +0.000 C 
ATOM     27  C   UNL     1     123.059 147.812 149.568  0.00  0.00    +0.000 C 
ATOM     28  C   UNL     1     124.251 147.380 147.391  0.00  0.00    +0.000 C 
ATOM     29  C   UNL     1     122.820 149.243 149.068  0.00  0.00    +0.000 C 
ATOM     30  C   UNL     1     123.992 148.843 147.035  0.00  0.00    +0.000 C 
BRANCH  26  31
ATOM     31  O   UNL     1     124.406 145.839 149.251  0.00  0.00    +0.000 OA
ATOM     32  H   UNL     1     125.014 145.423 148.618  0.00  0.00    +0.000 HD
ENDBRANCH  26  31
BRANCH  27  33
ATOM     33  O   UNL     1     123.235 147.833 150.982  0.00  0.00    +0.000 OA
ATOM     34  H   UNL     1     123.265 146.914 151.296  0.00  0.00    +0.000 HD
ENDBRANCH  27  33
BRANCH  28  35
ATOM     35  O   UNL     1     123.177 146.594 146.864  0.00  0.00    +0.000 OA
ATOM     36  H   UNL     1     122.428 146.646 147.482  0.00  0.00    +0.000 HD
ENDBRANCH  28  35
BRANCH  29  37
ATOM     37  C   UNL     1     121.499 149.805 149.587  0.00  0.00    +0.000 C 
BRANCH  37  38
ATOM     38  O   UNL     1     121.740 150.445 150.827  0.00  0.00    +0.000 OA
ATOM     39  H   UNL     1     120.946 150.965 151.040  0.00  0.00    +0.000 HD
ENDBRANCH  37  38
ENDBRANCH  29  37
ENDBRANCH  24  30
ENDBRANCH   3  24
TORSDOF 11
ENDMDL
MODEL 8
REMARK VINA RESULT:    -8.813     23.552     27.896
REMARK INTER + INTRA:         -13.668
REMARK INTER:                 -12.588
REMARK INTRA:                  -1.080
REMARK UNBOUND:                -0.734
REMARK  Name = 74978140
REMARK  12 active torsions:
REMARK  status: ('A' for Active; 'I' for Inactive)
REMARK    1  A    between atoms: O_2  and  C_16
REMARK    2  A    between atoms: O_2  and  C_18
REMARK    3  A    between atoms: O_3  and  C_12
REMARK    4  A    between atoms: O_4  and  C_13
REMARK    5  A    between atoms: O_5  and  C_14
REMARK    6  A    between atoms: O_6  and  C_17
REMARK    7  A    between atoms: O_9  and  C_24
REMARK    8  A    between atoms: O_10  and  C_29
REMARK    9  A    between atoms: O_11  and  C_32
REMARK   10  A    between atoms: O_11  and  C_33
REMARK   11  A    between atoms: C_15  and  C_17
REMARK   12  A    between atoms: C_19  and  C_23
REMARK                            x       y       z     vdW  Elec       q    Type
REMARK                         _______ _______ _______ _____ _____    ______ ____
ROOT
ATOM      1  O   UNL     1     120.496 150.569 146.990  0.00  0.00    +0.000 OA
ATOM      2  O   UNL     1     122.240 151.292 143.379  0.00  0.00    +0.000 OA
ATOM      3  C   UNL     1     122.514 150.872 145.693  0.00  0.00    +0.000 A 
ATOM      4  C   UNL     1     121.872 150.644 146.853  0.00  0.00    +0.000 A 
ATOM      5  C   UNL     1     121.713 151.079 144.463  0.00  0.00    +0.000 A 
ATOM      6  C   UNL     1     120.251 151.012 144.615  0.00  0.00    +0.000 A 
ATOM      7  C   UNL     1     119.717 150.759 145.877  0.00  0.00    +0.000 A 
ATOM      8  C   UNL     1     119.409 151.197 143.517  0.00  0.00    +0.000 A 
ATOM      9  C   UNL     1     118.334 150.690 146.048  0.00  0.00    +0.000 A 
ATOM     10  C   UNL     1     118.026 151.127 143.690  0.00  0.00    +0.000 A 
ATOM     11  C   UNL     1     117.490 150.873 144.953  0.00  0.00    +0.000 A 
ENDROOT
BRANCH   4  12
ATOM     12  C   UNL     1     122.588 150.419 148.123  0.00  0.00    +0.000 A 
ATOM     13  C   UNL     1     122.893 151.499 148.951  0.00  0.00    +0.000 A 
ATOM     14  C   UNL     1     122.959 149.128 148.495  0.00  0.00    +0.000 A 
ATOM     15  C   UNL     1     123.569 151.286 150.153  0.00  0.00    +0.000 A 
ATOM     16  C   UNL     1     123.635 148.915 149.696  0.00  0.00    +0.000 A 
ATOM     17  C   UNL     1     123.940 149.994 150.525  0.00  0.00    +0.000 A 
BRANCH  17  18
ATOM     18  O   UNL     1     124.599 149.785 151.698  0.00  0.00    +0.000 OA
ATOM     19  C   UNL     1     124.380 148.535 152.351  0.00  0.00    +0.000 C 
ENDBRANCH  17  18
ENDBRANCH   4  12
BRANCH   8  20
ATOM     20  O   UNL     1     119.880 151.445 142.263  0.00  0.00    +0.000 OA
ATOM     21  H   UNL     1     119.558 152.301 141.942  0.00  0.00    +0.000 HD
ENDBRANCH   8  20
BRANCH  11  22
ATOM     22  O   UNL     1     116.140 150.807 145.117  0.00  0.00    +0.000 OA
ATOM     23  H   UNL     1     115.707 151.114 144.302  0.00  0.00    +0.000 HD
ENDBRANCH  11  22
BRANCH   3  24
ATOM     24  O   UNL     1     123.887 150.906 145.586  0.00  0.00    +0.000 OA
BRANCH  24  30
ATOM     25  O   UNL     1     125.566 152.185 146.615  0.00  0.00    +0.000 OA
ATOM     26  C   UNL     1     125.315 154.232 144.619  0.00  0.00    +0.000 C 
ATOM     27  C   UNL     1     126.482 154.215 145.610  0.00  0.00    +0.000 C 
ATOM     28  C   UNL     1     124.741 152.828 144.429  0.00  0.00    +0.000 C 
ATOM     29  C   UNL     1     126.077 153.490 146.901  0.00  0.00    +0.000 C 
ATOM     30  C   UNL     1     124.399 152.220 145.789  0.00  0.00    +0.000 C 
BRANCH  26  31
ATOM     31  O   UNL     1     125.768 154.748 143.371  0.00  0.00    +0.000 OA
ATOM     32  H   UNL     1     126.712 154.960 143.467  0.00  0.00    +0.000 HD
ENDBRANCH  26  31
BRANCH  27  33
ATOM     33  O   UNL     1     126.856 155.554 145.923  0.00  0.00    +0.000 OA
ATOM     34  H   UNL     1     127.184 155.972 145.109  0.00  0.00    +0.000 HD
ENDBRANCH  27  33
BRANCH  28  35
ATOM     35  O   UNL     1     125.717 151.993 143.798  0.00  0.00    +0.000 OA
ATOM     36  H   UNL     1     126.594 152.390 143.932  0.00  0.00    +0.000 HD
ENDBRANCH  28  35
BRANCH  29  37
ATOM     37  C   UNL     1     127.264 153.322 147.845  0.00  0.00    +0.000 C 
BRANCH  37  38
ATOM     38  O   UNL     1     127.526 154.567 148.465  0.00  0.00    +0.000 OA
ATOM     39  H   UNL     1     127.482 155.248 147.772  0.00  0.00    +0.000 HD
ENDBRANCH  37  38
ENDBRANCH  29  37
ENDBRANCH  24  30
ENDBRANCH   3  24
TORSDOF 11
ENDMDL
MODEL 9
REMARK VINA RESULT:    -8.765     31.528     33.949
REMARK INTER + INTRA:         -13.597
REMARK INTER:                 -12.348
REMARK INTRA:                  -1.250
REMARK UNBOUND:                -0.734
REMARK  Name = 74978140
REMARK  12 active torsions:
REMARK  status: ('A' for Active; 'I' for Inactive)
REMARK    1  A    between atoms: O_2  and  C_16
REMARK    2  A    between atoms: O_2  and  C_18
REMARK    3  A    between atoms: O_3  and  C_12
REMARK    4  A    between atoms: O_4  and  C_13
REMARK    5  A    between atoms: O_5  and  C_14
REMARK    6  A    between atoms: O_6  and  C_17
REMARK    7  A    between atoms: O_9  and  C_24
REMARK    8  A    between atoms: O_10  and  C_29
REMARK    9  A    between atoms: O_11  and  C_32
REMARK   10  A    between atoms: O_11  and  C_33
REMARK   11  A    between atoms: C_15  and  C_17
REMARK   12  A    between atoms: C_19  and  C_23
REMARK                            x       y       z     vdW  Elec       q    Type
REMARK                         _______ _______ _______ _____ _____    ______ ____
ROOT
ATOM      1  O   UNL     1     128.994 151.401 142.953  0.00  0.00    +0.000 OA
ATOM      2  O   UNL     1     131.783 153.309 145.229  0.00  0.00    +0.000 OA
ATOM      3  C   UNL     1     131.121 151.336 144.103  0.00  0.00    +0.000 A 
ATOM      4  C   UNL     1     130.157 150.765 143.358  0.00  0.00    +0.000 A 
ATOM      5  C   UNL     1     130.942 152.738 144.549  0.00  0.00    +0.000 A 
ATOM      6  C   UNL     1     129.701 153.405 144.128  0.00  0.00    +0.000 A 
ATOM      7  C   UNL     1     128.787 152.698 143.348  0.00  0.00    +0.000 A 
ATOM      8  C   UNL     1     129.438 154.725 144.500  0.00  0.00    +0.000 A 
ATOM      9  C   UNL     1     127.603 153.309 142.935  0.00  0.00    +0.000 A 
ATOM     10  C   UNL     1     128.252 155.333 144.086  0.00  0.00    +0.000 A 
ATOM     11  C   UNL     1     127.337 154.627 143.305  0.00  0.00    +0.000 A 
ENDROOT
BRANCH   4  12
ATOM     12  C   UNL     1     130.255 149.379 142.863  0.00  0.00    +0.000 A 
ATOM     13  C   UNL     1     131.033 149.092 141.743  0.00  0.00    +0.000 A 
ATOM     14  C   UNL     1     129.569 148.356 143.517  0.00  0.00    +0.000 A 
ATOM     15  C   UNL     1     131.127 147.780 141.276  0.00  0.00    +0.000 A 
ATOM     16  C   UNL     1     129.662 147.045 143.051  0.00  0.00    +0.000 A 
ATOM     17  C   UNL     1     130.441 146.757 141.930  0.00  0.00    +0.000 A 
BRANCH  17  18
ATOM     18  O   UNL     1     130.533 145.477 141.476  0.00  0.00    +0.000 OA
ATOM     19  C   UNL     1     129.463 145.001 140.661  0.00  0.00    +0.000 C 
ENDBRANCH  17  18
ENDBRANCH   4  12
BRANCH   8  20
ATOM     20  O   UNL     1     130.296 155.460 145.260  0.00  0.00    +0.000 OA
ATOM     21  H   UNL     1     131.097 154.950 145.460  0.00  0.00    +0.000 HD
ENDBRANCH   8  20
BRANCH  11  22
ATOM     22  O   UNL     1     126.181 155.224 142.904  0.00  0.00    +0.000 OA
ATOM     23  H   UNL     1     126.067 155.082 141.949  0.00  0.00    +0.000 HD
ENDBRANCH  11  22
BRANCH   3  24
ATOM     24  O   UNL     1     132.281 150.684 144.459  0.00  0.00    +0.000 OA
BRANCH  24  30
ATOM     25  O   UNL     1     131.964 148.922 145.977  0.00  0.00    +0.000 OA
ATOM     26  C   UNL     1     133.682 150.186 147.898  0.00  0.00    +0.000 C 
ATOM     27  C   UNL     1     133.218 148.737 148.066  0.00  0.00    +0.000 C 
ATOM     28  C   UNL     1     133.654 150.600 146.427  0.00  0.00    +0.000 C 
ATOM     29  C   UNL     1     131.880 148.516 147.347  0.00  0.00    +0.000 C 
ATOM     30  C   UNL     1     132.275 150.310 145.833  0.00  0.00    +0.000 C 
BRANCH  26  31
ATOM     31  O   UNL     1     135.002 150.319 148.418  0.00  0.00    +0.000 OA
ATOM     32  H   UNL     1     134.924 150.601 149.344  0.00  0.00    +0.000 HD
ENDBRANCH  26  31
BRANCH  27  33
ATOM     33  O   UNL     1     133.057 148.450 149.452  0.00  0.00    +0.000 OA
ATOM     34  H   UNL     1     132.137 148.646 149.696  0.00  0.00    +0.000 HD
ENDBRANCH  27  33
BRANCH  28  35
ATOM     35  O   UNL     1     134.623 149.840 145.697  0.00  0.00    +0.000 OA
ATOM     36  H   UNL     1     134.880 149.072 146.234  0.00  0.00    +0.000 HD
ENDBRANCH  28  35
BRANCH  29  37
ATOM     37  C   UNL     1     131.470 147.046 147.366  0.00  0.00    +0.000 C 
BRANCH  37  38
ATOM     38  O   UNL     1     130.762 146.793 148.565  0.00  0.00    +0.000 OA
ATOM     39  H   UNL     1     129.819 146.734 148.335  0.00  0.00    +0.000 HD
ENDBRANCH  37  38
ENDBRANCH  29  37
ENDBRANCH  24  30
ENDBRANCH   3  24
TORSDOF 11
ENDMDL
MODEL 10
REMARK VINA RESULT:    -8.645      1.877      6.054
REMARK INTER + INTRA:         -13.422
REMARK INTER:                 -12.291
REMARK INTRA:                  -1.130
REMARK UNBOUND:                -0.734
REMARK  Name = 74978140
REMARK  12 active torsions:
REMARK  status: ('A' for Active; 'I' for Inactive)
REMARK    1  A    between atoms: O_2  and  C_16
REMARK    2  A    between atoms: O_2  and  C_18
REMARK    3  A    between atoms: O_3  and  C_12
REMARK    4  A    between atoms: O_4  and  C_13
REMARK    5  A    between atoms: O_5  and  C_14
REMARK    6  A    between atoms: O_6  and  C_17
REMARK    7  A    between atoms: O_9  and  C_24
REMARK    8  A    between atoms: O_10  and  C_29
REMARK    9  A    between atoms: O_11  and  C_32
REMARK   10  A    between atoms: O_11  and  C_33
REMARK   11  A    between atoms: C_15  and  C_17
REMARK   12  A    between atoms: C_19  and  C_23
REMARK                            x       y       z     vdW  Elec       q    Type
REMARK                         _______ _______ _______ _____ _____    ______ ____
ROOT
ATOM      1  O   UNL     1     107.312 145.379 162.451  0.00  0.00    +0.000 OA
ATOM      2  O   UNL     1     103.991 144.807 160.160  0.00  0.00    +0.000 OA
ATOM      3  C   UNL     1     105.241 144.188 162.073  0.00  0.00    +0.000 A 
ATOM      4  C   UNL     1     106.362 144.424 162.779  0.00  0.00    +0.000 A 
ATOM      5  C   UNL     1     104.991 144.978 160.844  0.00  0.00    +0.000 A 
ATOM      6  C   UNL     1     106.009 145.981 160.492  0.00  0.00    +0.000 A 
ATOM      7  C   UNL     1     107.121 146.129 161.319  0.00  0.00    +0.000 A 
ATOM      8  C   UNL     1     105.866 146.774 159.352  0.00  0.00    +0.000 A 
ATOM      9  C   UNL     1     108.100 147.074 161.008  0.00  0.00    +0.000 A 
ATOM     10  C   UNL     1     106.847 147.718 159.044  0.00  0.00    +0.000 A 
ATOM     11  C   UNL     1     107.961 147.867 159.870  0.00  0.00    +0.000 A 
ENDROOT
BRANCH   4  12
ATOM     12  C   UNL     1     106.687 143.692 164.016  0.00  0.00    +0.000 A 
ATOM     13  C   UNL     1     106.831 144.384 165.218  0.00  0.00    +0.000 A 
ATOM     14  C   UNL     1     106.851 142.307 163.984  0.00  0.00    +0.000 A 
ATOM     15  C   UNL     1     107.137 143.690 166.390  0.00  0.00    +0.000 A 
ATOM     16  C   UNL     1     107.158 141.615 165.155  0.00  0.00    +0.000 A 
ATOM     17  C   UNL     1     107.300 142.306 166.358  0.00  0.00    +0.000 A 
BRANCH  17  18
ATOM     18  O   UNL     1     107.598 141.629 167.500  0.00  0.00    +0.000 OA
ATOM     19  C   UNL     1     108.409 142.304 168.462  0.00  0.00    +0.000 C 
ENDBRANCH  17  18
ENDBRANCH   4  12
BRANCH   8  20
ATOM     20  O   UNL     1     104.799 146.670 158.513  0.00  0.00    +0.000 OA
ATOM     21  H   UNL     1     104.427 145.775 158.544  0.00  0.00    +0.000 HD
ENDBRANCH   8  20
BRANCH  11  22
ATOM     22  O   UNL     1     108.915 148.789 159.565  0.00  0.00    +0.000 OA
ATOM     23  H   UNL     1     109.052 149.369 160.333  0.00  0.00    +0.000 HD
ENDBRANCH  11  22
BRANCH   3  24
ATOM     24  O   UNL     1     104.300 143.253 162.446  0.00  0.00    +0.000 OA
BRANCH  24  30
ATOM     25  O   UNL     1     102.219 144.213 162.951  0.00  0.00    +0.000 OA
ATOM     26  C   UNL     1     102.277 143.097 165.595  0.00  0.00    +0.000 C 
ATOM     27  C   UNL     1     101.007 143.727 165.017  0.00  0.00    +0.000 C 
ATOM     28  C   UNL     1     103.198 142.607 164.478  0.00  0.00    +0.000 C 
ATOM     29  C   UNL     1     101.365 144.775 163.953  0.00  0.00    +0.000 C 
ATOM     30  C   UNL     1     103.458 143.740 163.486  0.00  0.00    +0.000 C 
BRANCH  26  31
ATOM     31  O   UNL     1     101.916 142.011 166.443  0.00  0.00    +0.000 OA
ATOM     32  H   UNL     1     102.409 141.229 166.143  0.00  0.00    +0.000 HD
ENDBRANCH  26  31
BRANCH  27  33
ATOM     33  O   UNL     1     100.272 144.356 166.063  0.00  0.00    +0.000 OA
ATOM     34  H   UNL     1      99.768 143.669 166.532  0.00  0.00    +0.000 HD
ENDBRANCH  27  33
BRANCH  28  35
ATOM     35  O   UNL     1     102.569 141.532 163.775  0.00  0.00    +0.000 OA
ATOM     36  H   UNL     1     101.679 141.403 164.143  0.00  0.00    +0.000 HD
ENDBRANCH  28  35
BRANCH  29  37
ATOM     37  C   UNL     1     100.121 145.309 163.251  0.00  0.00    +0.000 C 
BRANCH  37  38
ATOM     38  O   UNL     1      99.570 146.348 164.039  0.00  0.00    +0.000 OA
ATOM     39  H   UNL     1      99.061 146.922 163.441  0.00  0.00    +0.000 HD
ENDBRANCH  37  38
ENDBRANCH  29  37
ENDBRANCH  24  30
ENDBRANCH   3  24
TORSDOF 11
ENDMDL
