MODEL 1
REMARK VINA RESULT:      -9.5      0.000      0.000
REMARK  11 active torsions:
REMARK  status: ('A' for Active; 'I' for Inactive)
REMARK    1  A    between atoms: C_13  and  O_12 
REMARK    2  A    between atoms: C_15  and  O_33 
REMARK    3  A    between atoms: C_19  and  C_20 
REMARK    4  A    between atoms: C_23  and  O_27 
REMARK    5  A    between atoms: C_24  and  O_25 
REMARK    6  A    between atoms: O_12  and  C_2 
REMARK    7  A    between atoms: C_3  and  O_10 
REMARK    8  A    between atoms: C_4  and  O_8 
REMARK    9  A    between atoms: C_5  and  O_6 
REMARK   10  A    between atoms: C_36  and  C_37 
REMARK   11  A    between atoms: C_37  and  O_38 
ROOT
ATOM      1  C   LIG     1       9.301  47.430  28.123  0.00  0.00     0.131 A 
ATOM      2  C   LIG     1       9.532  48.055  29.349  0.00  0.00     0.092 A 
ATOM      3  C   LIG     1      10.423  49.126  29.433  0.00  0.00     0.135 A 
ATOM      4  C   LIG     1      11.080  49.567  28.282  0.00  0.00     0.105 A 
ATOM      5  C   LIG     1      12.025  50.693  28.340  0.00  0.00     0.197 A 
ATOM      6  C   LIG     1      12.661  51.076  27.063  0.00  0.00     0.098 A 
ATOM      7  C   LIG     1      12.352  50.400  25.945  0.00  0.00     0.139 A 
ATOM      8  O   LIG     1      11.467  49.335  25.895  0.00  0.00    -0.454 OA
ATOM      9  O   LIG     1      12.276  51.283  29.381  0.00  0.00    -0.287 OA
ATOM     10  C   LIG     1      10.849  48.944  27.057  0.00  0.00     0.146 A 
ATOM     11  C   LIG     1       9.960  47.873  26.975  0.00  0.00     0.093 A 
ENDROOT
BRANCH   1  12
ATOM     12  O   LIG     1       8.430  46.383  28.047  0.00  0.00    -0.461 OA
BRANCH  12  13
ATOM     13  C   LIG     1       8.322  45.557  29.205  0.00  0.00     0.339 C 
ATOM     14  C   LIG     1       6.864  45.583  29.665  0.00  0.00     0.214 C 
ATOM     15  C   LIG     1       6.626  44.603  30.815  0.00  0.00     0.180 C 
ATOM     16  C   LIG     1       7.213  43.227  30.501  0.00  0.00     0.177 C 
ATOM     17  C   LIG     1       8.659  43.351  30.016  0.00  0.00     0.179 C 
ATOM     18  O   LIG     1       8.722  44.226  28.888  0.00  0.00    -0.331 OA
BRANCH  14  19
ATOM     19  O   LIG     1       6.554  46.907  30.100  0.00  0.00    -0.383 OA
ATOM     20  H   LIG     1       5.753  47.198  29.631  0.00  0.00     0.210 HD
ENDBRANCH  14  19
BRANCH  15  21
ATOM     21  O   LIG     1       5.222  44.448  31.025  0.00  0.00    -0.386 OA
ATOM     22  H   LIG     1       5.104  43.983  31.872  0.00  0.00     0.210 HD
ENDBRANCH  15  21
BRANCH  16  23
ATOM     23  O   LIG     1       7.177  42.419  31.675  0.00  0.00    -0.386 OA
ATOM     24  H   LIG     1       7.047  41.496  31.399  0.00  0.00     0.210 HD
ENDBRANCH  16  23
BRANCH  17  25
ATOM     25  C   LIG     1       9.228  42.003  29.585  0.00  0.00     0.190 C 
BRANCH  25  26
ATOM     26  O   LIG     1       8.153  41.160  29.212  0.00  0.00    -0.392 OA
ATOM     27  H   LIG     1       8.527  40.299  28.958  0.00  0.00     0.210 HD
ENDBRANCH  25  26
ENDBRANCH  17  25
ENDBRANCH  12  13
ENDBRANCH   1  12
BRANCH   3  28
ATOM     28  O   LIG     1      10.614  49.702  30.653  0.00  0.00    -0.506 OA
ATOM     29  H   LIG     1      10.716  50.661  30.564  0.00  0.00     0.292 HD
ENDBRANCH   3  28
BRANCH   7  30
ATOM     30  C   LIG     1      12.964  50.733  24.642  0.00  0.00     0.021 A 
ATOM     31  C   LIG     1      13.606  49.743  23.895  0.00  0.00     0.015 A 
ATOM     32  C   LIG     1      14.184  50.058  22.666  0.00  0.00     0.050 A 
ATOM     33  C   LIG     1      14.121  51.364  22.179  0.00  0.00     0.158 A 
ATOM     34  C   LIG     1      13.481  52.355  22.923  0.00  0.00     0.159 A 
ATOM     35  C   LIG     1      12.903  52.040  24.153  0.00  0.00     0.060 A 
BRANCH  33  36
ATOM     36  O   LIG     1      14.690  51.659  20.977  0.00  0.00    -0.503 OA
ATOM     37  H   LIG     1      15.631  51.867  21.115  0.00  0.00     0.292 HD
ENDBRANCH  33  36
BRANCH  34  38
ATOM     38  O   LIG     1      13.413  53.633  22.457  0.00  0.00    -0.503 OA
ATOM     39  H   LIG     1      12.835  54.145  23.048  0.00  0.00     0.292 HD
ENDBRANCH  34  38
ENDBRANCH   7  30
TORSDOF 11
ENDMDL
MODEL 2
REMARK VINA RESULT:      -9.5      1.957      9.881
REMARK  11 active torsions:
REMARK  status: ('A' for Active; 'I' for Inactive)
REMARK    1  A    between atoms: C_13  and  O_12 
REMARK    2  A    between atoms: C_15  and  O_33 
REMARK    3  A    between atoms: C_19  and  C_20 
REMARK    4  A    between atoms: C_23  and  O_27 
REMARK    5  A    between atoms: C_24  and  O_25 
REMARK    6  A    between atoms: O_12  and  C_2 
REMARK    7  A    between atoms: C_3  and  O_10 
REMARK    8  A    between atoms: C_4  and  O_8 
REMARK    9  A    between atoms: C_5  and  O_6 
REMARK   10  A    between atoms: C_36  and  C_37 
REMARK   11  A    between atoms: C_37  and  O_38 
ROOT
ATOM      1  C   LIG     1      12.520  50.626  24.948  0.00  0.00     0.131 A 
ATOM      2  C   LIG     1      12.964  51.568  25.875  0.00  0.00     0.092 A 
ATOM      3  C   LIG     1      12.594  51.460  27.217  0.00  0.00     0.135 A 
ATOM      4  C   LIG     1      11.777  50.402  27.623  0.00  0.00     0.105 A 
ATOM      5  C   LIG     1      11.369  50.263  29.029  0.00  0.00     0.197 A 
ATOM      6  C   LIG     1      10.506  49.106  29.346  0.00  0.00     0.098 A 
ATOM      7  C   LIG     1      10.150  48.263  28.365  0.00  0.00     0.139 A 
ATOM      8  O   LIG     1      10.529  48.401  27.039  0.00  0.00    -0.454 OA
ATOM      9  O   LIG     1      11.719  51.055  29.893  0.00  0.00    -0.287 OA
ATOM     10  C   LIG     1      11.333  49.459  26.696  0.00  0.00     0.146 A 
ATOM     11  C   LIG     1      11.704  49.570  25.357  0.00  0.00     0.093 A 
ENDROOT
BRANCH   1  12
ATOM     12  O   LIG     1      12.884  50.736  23.638  0.00  0.00    -0.461 OA
BRANCH  12  13
ATOM     13  C   LIG     1      14.181  50.253  23.293  0.00  0.00     0.339 C 
ATOM     14  C   LIG     1      14.193  49.970  21.790  0.00  0.00     0.214 C 
ATOM     15  C   LIG     1      15.594  49.590  21.307  0.00  0.00     0.180 C 
ATOM     16  C   LIG     1      16.643  50.576  21.820  0.00  0.00     0.177 C 
ATOM     17  C   LIG     1      16.492  50.796  23.327  0.00  0.00     0.179 C 
ATOM     18  O   LIG     1      15.164  51.230  23.625  0.00  0.00    -0.331 OA
BRANCH  14  19
ATOM     19  O   LIG     1      13.294  48.893  21.530  0.00  0.00    -0.383 OA
ATOM     20  H   LIG     1      13.166  48.833  20.567  0.00  0.00     0.210 HD
ENDBRANCH  14  19
BRANCH  15  21
ATOM     21  O   LIG     1      15.626  49.611  19.879  0.00  0.00    -0.386 OA
ATOM     22  H   LIG     1      16.395  49.085  19.598  0.00  0.00     0.210 HD
ENDBRANCH  15  21
BRANCH  16  23
ATOM     23  O   LIG     1      17.945  50.064  21.546  0.00  0.00    -0.386 OA
ATOM     24  H   LIG     1      17.860  49.114  21.356  0.00  0.00     0.210 HD
ENDBRANCH  16  23
BRANCH  17  25
ATOM     25  C   LIG     1      17.452  51.864  23.840  0.00  0.00     0.190 C 
BRANCH  25  26
ATOM     26  O   LIG     1      18.011  52.540  22.728  0.00  0.00    -0.392 OA
ATOM     27  H   LIG     1      18.658  51.943  22.315  0.00  0.00     0.210 HD
ENDBRANCH  25  26
ENDBRANCH  17  25
ENDBRANCH  12  13
ENDBRANCH   1  12
BRANCH   3  28
ATOM     28  O   LIG     1      13.052  52.406  28.083  0.00  0.00    -0.506 OA
ATOM     29  H   LIG     1      12.752  53.287  27.815  0.00  0.00     0.292 HD
ENDBRANCH   3  28
BRANCH   7  30
ATOM     30  C   LIG     1       9.282  47.095  28.622  0.00  0.00     0.021 A 
ATOM     31  C   LIG     1       7.999  47.276  29.141  0.00  0.00     0.015 A 
ATOM     32  C   LIG     1       7.180  46.173  29.384  0.00  0.00     0.050 A 
ATOM     33  C   LIG     1       7.643  44.886  29.108  0.00  0.00     0.158 A 
ATOM     34  C   LIG     1       8.925  44.702  28.591  0.00  0.00     0.159 A 
ATOM     35  C   LIG     1       9.744  45.805  28.347  0.00  0.00     0.060 A 
BRANCH  33  36
ATOM     36  O   LIG     1       6.834  43.817  29.351  0.00  0.00    -0.503 OA
ATOM     37  H   LIG     1       6.885  43.589  30.296  0.00  0.00     0.292 HD
ENDBRANCH  33  36
BRANCH  34  38
ATOM     38  O   LIG     1       9.386  43.450  28.316  0.00  0.00    -0.503 OA
ATOM     39  H   LIG     1      10.355  43.456  28.397  0.00  0.00     0.292 HD
ENDBRANCH  34  38
ENDBRANCH   7  30
TORSDOF 11
ENDMDL
MODEL 3
REMARK VINA RESULT:      -9.3      3.917     10.215
REMARK  11 active torsions:
REMARK  status: ('A' for Active; 'I' for Inactive)
REMARK    1  A    between atoms: C_13  and  O_12 
REMARK    2  A    between atoms: C_15  and  O_33 
REMARK    3  A    between atoms: C_19  and  C_20 
REMARK    4  A    between atoms: C_23  and  O_27 
REMARK    5  A    between atoms: C_24  and  O_25 
REMARK    6  A    between atoms: O_12  and  C_2 
REMARK    7  A    between atoms: C_3  and  O_10 
REMARK    8  A    between atoms: C_4  and  O_8 
REMARK    9  A    between atoms: C_5  and  O_6 
REMARK   10  A    between atoms: C_36  and  C_37 
REMARK   11  A    between atoms: C_37  and  O_38 
ROOT
ATOM      1  C   LIG     1      14.400  50.069  23.796  0.00  0.00     0.131 A 
ATOM      2  C   LIG     1      13.470  49.439  22.969  0.00  0.00     0.092 A 
ATOM      3  C   LIG     1      12.254  48.997  23.491  0.00  0.00     0.135 A 
ATOM      4  C   LIG     1      11.975  49.190  24.846  0.00  0.00     0.105 A 
ATOM      5  C   LIG     1      10.702  48.734  25.426  0.00  0.00     0.197 A 
ATOM      6  C   LIG     1      10.512  48.992  26.868  0.00  0.00     0.098 A 
ATOM      7  C   LIG     1      11.481  49.614  27.558  0.00  0.00     0.139 A 
ATOM      8  O   LIG     1      12.683  50.036  27.011  0.00  0.00    -0.454 OA
ATOM      9  O   LIG     1       9.845  48.172  24.759  0.00  0.00    -0.287 OA
ATOM     10  C   LIG     1      12.904  49.820  25.674  0.00  0.00     0.146 A 
ATOM     11  C   LIG     1      14.119  50.261  25.150  0.00  0.00     0.093 A 
ENDROOT
BRANCH   1  12
ATOM     12  O   LIG     1      15.588  50.499  23.281  0.00  0.00    -0.461 OA
BRANCH  12  13
ATOM     13  C   LIG     1      16.561  49.495  22.997  0.00  0.00     0.339 C 
ATOM     14  C   LIG     1      17.199  49.828  21.648  0.00  0.00     0.214 C 
ATOM     15  C   LIG     1      18.361  48.884  21.334  0.00  0.00     0.180 C 
ATOM     16  C   LIG     1      19.313  48.764  22.523  0.00  0.00     0.177 C 
ATOM     17  C   LIG     1      18.541  48.469  23.811  0.00  0.00     0.179 C 
ATOM     18  O   LIG     1      17.548  49.474  24.025  0.00  0.00    -0.331 OA
BRANCH  14  19
ATOM     19  O   LIG     1      16.200  49.702  20.636  0.00  0.00    -0.383 OA
ATOM     20  H   LIG     1      16.217  50.509  20.094  0.00  0.00     0.210 HD
ENDBRANCH  14  19
BRANCH  15  21
ATOM     21  O   LIG     1      19.101  49.394  20.223  0.00  0.00    -0.386 OA
ATOM     22  H   LIG     1      19.852  49.898  20.581  0.00  0.00     0.210 HD
ENDBRANCH  15  21
BRANCH  16  23
ATOM     23  O   LIG     1      20.243  47.712  22.279  0.00  0.00    -0.386 OA
ATOM     24  H   LIG     1      19.860  46.887  22.624  0.00  0.00     0.210 HD
ENDBRANCH  16  23
BRANCH  17  25
ATOM     25  C   LIG     1      19.458  48.462  25.030  0.00  0.00     0.190 C 
BRANCH  25  26
ATOM     26  O   LIG     1      20.045  47.179  25.144  0.00  0.00    -0.392 OA
ATOM     27  H   LIG     1      19.604  46.716  25.878  0.00  0.00     0.210 HD
ENDBRANCH  25  26
ENDBRANCH  17  25
ENDBRANCH  12  13
ENDBRANCH   1  12
BRANCH   3  28
ATOM     28  O   LIG     1      11.380  48.388  22.643  0.00  0.00    -0.506 OA
ATOM     29  H   LIG     1      11.815  47.664  22.168  0.00  0.00     0.292 HD
ENDBRANCH   3  28
BRANCH   7  30
ATOM     30  C   LIG     1      11.350  49.890  29.004  0.00  0.00     0.021 A 
ATOM     31  C   LIG     1      12.039  50.961  29.578  0.00  0.00     0.015 A 
ATOM     32  C   LIG     1      11.916  51.220  30.943  0.00  0.00     0.050 A 
ATOM     33  C   LIG     1      11.104  50.410  31.737  0.00  0.00     0.158 A 
ATOM     34  C   LIG     1      10.416  49.340  31.166  0.00  0.00     0.159 A 
ATOM     35  C   LIG     1      10.539  49.080  29.801  0.00  0.00     0.060 A 
BRANCH  33  36
ATOM     36  O   LIG     1      10.994  50.674  33.069  0.00  0.00    -0.503 OA
ATOM     37  H   LIG     1      10.396  50.021  33.473  0.00  0.00     0.292 HD
ENDBRANCH  33  36
BRANCH  34  38
ATOM     38  O   LIG     1       9.619  48.543  31.932  0.00  0.00    -0.503 OA
ATOM     39  H   LIG     1      10.123  47.747  32.172  0.00  0.00     0.292 HD
ENDBRANCH  34  38
ENDBRANCH   7  30
TORSDOF 11
ENDMDL
MODEL 4
REMARK VINA RESULT:      -9.0      1.484      9.996
REMARK  11 active torsions:
REMARK  status: ('A' for Active; 'I' for Inactive)
REMARK    1  A    between atoms: C_13  and  O_12 
REMARK    2  A    between atoms: C_15  and  O_33 
REMARK    3  A    between atoms: C_19  and  C_20 
REMARK    4  A    between atoms: C_23  and  O_27 
REMARK    5  A    between atoms: C_24  and  O_25 
REMARK    6  A    between atoms: O_12  and  C_2 
REMARK    7  A    between atoms: C_3  and  O_10 
REMARK    8  A    between atoms: C_4  and  O_8 
REMARK    9  A    between atoms: C_5  and  O_6 
REMARK   10  A    between atoms: C_36  and  C_37 
REMARK   11  A    between atoms: C_37  and  O_38 
ROOT
ATOM      1  C   LIG     1      11.836  49.469  25.497  0.00  0.00     0.131 A 
ATOM      2  C   LIG     1      12.230  50.445  26.412  0.00  0.00     0.092 A 
ATOM      3  C   LIG     1      11.807  50.373  27.740  0.00  0.00     0.135 A 
ATOM      4  C   LIG     1      10.988  49.318  28.146  0.00  0.00     0.105 A 
ATOM      5  C   LIG     1      10.525  49.216  29.539  0.00  0.00     0.197 A 
ATOM      6  C   LIG     1       9.664  48.058  29.857  0.00  0.00     0.098 A 
ATOM      7  C   LIG     1       9.358  47.180  28.889  0.00  0.00     0.139 A 
ATOM      8  O   LIG     1       9.789  47.283  27.576  0.00  0.00    -0.454 OA
ATOM      9  O   LIG     1      10.830  50.039  30.390  0.00  0.00    -0.287 OA
ATOM     10  C   LIG     1      10.593  48.341  27.233  0.00  0.00     0.146 A 
ATOM     11  C   LIG     1      11.016  48.415  25.906  0.00  0.00     0.093 A 
ENDROOT
BRANCH   1  12
ATOM     12  O   LIG     1      12.251  49.544  24.200  0.00  0.00    -0.461 OA
BRANCH  12  13
ATOM     13  C   LIG     1      13.411  50.336  23.946  0.00  0.00     0.339 C 
ATOM     14  C   LIG     1      14.536  49.395  23.514  0.00  0.00     0.214 C 
ATOM     15  C   LIG     1      15.776  50.176  23.077  0.00  0.00     0.180 C 
ATOM     16  C   LIG     1      15.411  51.291  22.097  0.00  0.00     0.177 C 
ATOM     17  C   LIG     1      14.249  52.129  22.635  0.00  0.00     0.179 C 
ATOM     18  O   LIG     1      13.131  51.285  22.920  0.00  0.00    -0.331 OA
BRANCH  14  19
ATOM     19  O   LIG     1      14.870  48.558  24.621  0.00  0.00    -0.383 OA
ATOM     20  H   LIG     1      15.830  48.402  24.602  0.00  0.00     0.210 HD
ENDBRANCH  14  19
BRANCH  15  21
ATOM     21  O   LIG     1      16.688  49.292  22.422  0.00  0.00    -0.386 OA
ATOM     22  H   LIG     1      17.386  49.839  22.023  0.00  0.00     0.210 HD
ENDBRANCH  15  21
BRANCH  16  23
ATOM     23  O   LIG     1      16.544  52.132  21.895  0.00  0.00    -0.386 OA
ATOM     24  H   LIG     1      16.425  52.599  21.051  0.00  0.00     0.210 HD
ENDBRANCH  16  23
BRANCH  17  25
ATOM     25  C   LIG     1      13.790  53.174  21.623  0.00  0.00     0.190 C 
BRANCH  25  26
ATOM     26  O   LIG     1      14.598  53.066  20.466  0.00  0.00    -0.392 OA
ATOM     27  H   LIG     1      15.513  53.271  20.725  0.00  0.00     0.210 HD
ENDBRANCH  25  26
ENDBRANCH  17  25
ENDBRANCH  12  13
ENDBRANCH   1  12
BRANCH   3  28
ATOM     28  O   LIG     1      12.219  51.351  28.594  0.00  0.00    -0.506 OA
ATOM     29  H   LIG     1      13.112  51.164  28.921  0.00  0.00     0.292 HD
ENDBRANCH   3  28
BRANCH   7  30
ATOM     30  C   LIG     1       8.494  46.009  29.147  0.00  0.00     0.021 A 
ATOM     31  C   LIG     1       7.156  46.190  29.501  0.00  0.00     0.015 A 
ATOM     32  C   LIG     1       6.341  45.085  29.746  0.00  0.00     0.050 A 
ATOM     33  C   LIG     1       6.863  43.795  29.636  0.00  0.00     0.158 A 
ATOM     34  C   LIG     1       8.200  43.612  29.283  0.00  0.00     0.159 A 
ATOM     35  C   LIG     1       9.015  44.718  29.039  0.00  0.00     0.060 A 
BRANCH  33  36
ATOM     36  O   LIG     1       6.058  42.724  29.879  0.00  0.00    -0.503 OA
ATOM     37  H   LIG     1       5.155  43.040  30.058  0.00  0.00     0.292 HD
ENDBRANCH  33  36
BRANCH  34  38
ATOM     38  O   LIG     1       8.720  42.357  29.172  0.00  0.00    -0.503 OA
ATOM     39  H   LIG     1       9.167  42.136  30.006  0.00  0.00     0.292 HD
ENDBRANCH  34  38
ENDBRANCH   7  30
TORSDOF 11
ENDMDL
MODEL 5
REMARK VINA RESULT:      -8.9      3.650      6.277
REMARK  11 active torsions:
REMARK  status: ('A' for Active; 'I' for Inactive)
REMARK    1  A    between atoms: C_13  and  O_12 
REMARK    2  A    between atoms: C_15  and  O_33 
REMARK    3  A    between atoms: C_19  and  C_20 
REMARK    4  A    between atoms: C_23  and  O_27 
REMARK    5  A    between atoms: C_24  and  O_25 
REMARK    6  A    between atoms: O_12  and  C_2 
REMARK    7  A    between atoms: C_3  and  O_10 
REMARK    8  A    between atoms: C_4  and  O_8 
REMARK    9  A    between atoms: C_5  and  O_6 
REMARK   10  A    between atoms: C_36  and  C_37 
REMARK   11  A    between atoms: C_37  and  O_38 
ROOT
ATOM      1  C   LIG     1      11.835  50.743  29.869  0.00  0.00     0.131 A 
ATOM      2  C   LIG     1      10.893  49.715  29.896  0.00  0.00     0.092 A 
ATOM      3  C   LIG     1      10.479  49.112  28.708  0.00  0.00     0.135 A 
ATOM      4  C   LIG     1      11.014  49.545  27.492  0.00  0.00     0.105 A 
ATOM      5  C   LIG     1      10.597  48.931  26.223  0.00  0.00     0.197 A 
ATOM      6  C   LIG     1      11.228  49.466  25.000  0.00  0.00     0.098 A 
ATOM      7  C   LIG     1      12.128  50.456  25.104  0.00  0.00     0.139 A 
ATOM      8  O   LIG     1      12.515  51.039  26.301  0.00  0.00    -0.454 OA
ATOM      9  O   LIG     1       9.773  48.028  26.174  0.00  0.00    -0.287 OA
ATOM     10  C   LIG     1      11.956  50.573  27.465  0.00  0.00     0.146 A 
ATOM     11  C   LIG     1      12.368  51.174  28.654  0.00  0.00     0.093 A 
ENDROOT
BRANCH   1  12
ATOM     12  O   LIG     1      12.236  51.329  31.034  0.00  0.00    -0.461 OA
BRANCH  12  13
ATOM     13  C   LIG     1      11.582  50.895  32.225  0.00  0.00     0.339 C 
ATOM     14  C   LIG     1      12.648  50.344  33.172  0.00  0.00     0.214 C 
ATOM     15  C   LIG     1      12.052  49.993  34.537  0.00  0.00     0.180 C 
ATOM     16  C   LIG     1      11.193  51.137  35.076  0.00  0.00     0.177 C 
ATOM     17  C   LIG     1      10.199  51.616  34.015  0.00  0.00     0.179 C 
ATOM     18  O   LIG     1      10.898  51.992  32.827  0.00  0.00    -0.331 OA
BRANCH  14  19
ATOM     19  O   LIG     1      13.206  49.169  32.584  0.00  0.00    -0.383 OA
ATOM     20  H   LIG     1      14.011  49.427  32.102  0.00  0.00     0.210 HD
ENDBRANCH  14  19
BRANCH  15  21
ATOM     21  O   LIG     1      13.108  49.754  35.469  0.00  0.00    -0.386 OA
ATOM     22  H   LIG     1      12.744  49.204  36.184  0.00  0.00     0.210 HD
ENDBRANCH  15  21
BRANCH  16  23
ATOM     23  O   LIG     1      10.477  50.688  36.224  0.00  0.00    -0.386 OA
ATOM     24  H   LIG     1      11.004  49.991  36.652  0.00  0.00     0.210 HD
ENDBRANCH  16  23
BRANCH  17  25
ATOM     25  C   LIG     1       9.412  52.834  34.490  0.00  0.00     0.190 C 
BRANCH  25  26
ATOM     26  O   LIG     1      10.214  53.562  35.401  0.00  0.00    -0.392 OA
ATOM     27  H   LIG     1      10.640  52.922  35.997  0.00  0.00     0.210 HD
ENDBRANCH  25  26
ENDBRANCH  17  25
ENDBRANCH  12  13
ENDBRANCH   1  12
BRANCH   3  28
ATOM     28  O   LIG     1       9.557  48.113  28.787  0.00  0.00    -0.506 OA
ATOM     29  H   LIG     1       9.050  48.182  29.610  0.00  0.00     0.292 HD
ENDBRANCH   3  28
BRANCH   7  30
ATOM     30  C   LIG     1      12.786  51.037  23.915  0.00  0.00     0.021 A 
ATOM     31  C   LIG     1      12.812  52.421  23.734  0.00  0.00     0.015 A 
ATOM     32  C   LIG     1      13.431  52.969  22.610  0.00  0.00     0.050 A 
ATOM     33  C   LIG     1      14.027  52.133  21.665  0.00  0.00     0.158 A 
ATOM     34  C   LIG     1      14.002  50.750  21.843  0.00  0.00     0.159 A 
ATOM     35  C   LIG     1      13.382  50.202  22.967  0.00  0.00     0.060 A 
BRANCH  33  36
ATOM     36  O   LIG     1      14.628  52.680  20.572  0.00  0.00    -0.503 OA
ATOM     37  H   LIG     1      14.675  52.011  19.868  0.00  0.00     0.292 HD
ENDBRANCH  33  36
BRANCH  34  38
ATOM     38  O   LIG     1      14.582  49.925  20.927  0.00  0.00    -0.503 OA
ATOM     39  H   LIG     1      14.243  49.025  21.068  0.00  0.00     0.292 HD
ENDBRANCH  34  38
ENDBRANCH   7  30
TORSDOF 11
ENDMDL
MODEL 6
REMARK VINA RESULT:      -8.8      4.491     11.156
REMARK  11 active torsions:
REMARK  status: ('A' for Active; 'I' for Inactive)
REMARK    1  A    between atoms: C_13  and  O_12 
REMARK    2  A    between atoms: C_15  and  O_33 
REMARK    3  A    between atoms: C_19  and  C_20 
REMARK    4  A    between atoms: C_23  and  O_27 
REMARK    5  A    between atoms: C_24  and  O_25 
REMARK    6  A    between atoms: O_12  and  C_2 
REMARK    7  A    between atoms: C_3  and  O_10 
REMARK    8  A    between atoms: C_4  and  O_8 
REMARK    9  A    between atoms: C_5  and  O_6 
REMARK   10  A    between atoms: C_36  and  C_37 
REMARK   11  A    between atoms: C_37  and  O_38 
ROOT
ATOM      1  C   LIG     1      16.588  49.929  22.481  0.00  0.00     0.131 A 
ATOM      2  C   LIG     1      15.803  49.367  21.474  0.00  0.00     0.092 A 
ATOM      3  C   LIG     1      14.468  49.046  21.722  0.00  0.00     0.135 A 
ATOM      4  C   LIG     1      13.923  49.291  22.984  0.00  0.00     0.105 A 
ATOM      5  C   LIG     1      12.520  48.962  23.276  0.00  0.00     0.197 A 
ATOM      6  C   LIG     1      12.050  49.265  24.643  0.00  0.00     0.098 A 
ATOM      7  C   LIG     1      12.900  49.813  25.525  0.00  0.00     0.139 A 
ATOM      8  O   LIG     1      14.225  50.115  25.250  0.00  0.00    -0.454 OA
ATOM      9  O   LIG     1      11.778  48.464  22.441  0.00  0.00    -0.287 OA
ATOM     10  C   LIG     1      14.707  49.853  23.992  0.00  0.00     0.146 A 
ATOM     11  C   LIG     1      16.041  50.173  23.742  0.00  0.00     0.093 A 
ENDROOT
BRANCH   1  12
ATOM     12  O   LIG     1      17.893  50.241  22.234  0.00  0.00    -0.461 OA
BRANCH  12  13
ATOM     13  C   LIG     1      18.830  49.167  22.305  0.00  0.00     0.339 C 
ATOM     14  C   LIG     1      19.712  49.230  21.058  0.00  0.00     0.214 C 
ATOM     15  C   LIG     1      20.844  48.204  21.125  0.00  0.00     0.180 C 
ATOM     16  C   LIG     1      21.567  48.265  22.471  0.00  0.00     0.177 C 
ATOM     17  C   LIG     1      20.566  48.233  23.628  0.00  0.00     0.179 C 
ATOM     18  O   LIG     1      19.621  49.296  23.484  0.00  0.00    -0.331 OA
BRANCH  14  19
ATOM     19  O   LIG     1      18.896  48.960  19.918  0.00  0.00    -0.383 OA
ATOM     20  H   LIG     1      18.099  49.514  19.980  0.00  0.00     0.210 HD
ENDBRANCH  14  19
BRANCH  15  21
ATOM     21  O   LIG     1      21.797  48.479  20.097  0.00  0.00    -0.386 OA
ATOM     22  H   LIG     1      22.282  47.654  19.922  0.00  0.00     0.210 HD
ENDBRANCH  15  21
BRANCH  16  23
ATOM     23  O   LIG     1      22.451  47.153  22.582  0.00  0.00    -0.386 OA
ATOM     24  H   LIG     1      22.242  46.685  23.408  0.00  0.00     0.210 HD
ENDBRANCH  16  23
BRANCH  17  25
ATOM     25  C   LIG     1      21.256  48.412  24.976  0.00  0.00     0.190 C 
BRANCH  25  26
ATOM     26  O   LIG     1      21.822  47.172  25.360  0.00  0.00    -0.392 OA
ATOM     27  H   LIG     1      21.156  46.693  25.883  0.00  0.00     0.210 HD
ENDBRANCH  25  26
ENDBRANCH  17  25
ENDBRANCH  12  13
ENDBRANCH   1  12
BRANCH   3  28
ATOM     28  O   LIG     1      13.745  48.499  20.705  0.00  0.00    -0.506 OA
ATOM     29  H   LIG     1      12.962  49.038  20.516  0.00  0.00     0.292 HD
ENDBRANCH   3  28
BRANCH   7  30
ATOM     30  C   LIG     1      12.488  50.130  26.908  0.00  0.00     0.021 A 
ATOM     31  C   LIG     1      13.071  51.203  27.585  0.00  0.00     0.015 A 
ATOM     32  C   LIG     1      12.682  51.502  28.891  0.00  0.00     0.050 A 
ATOM     33  C   LIG     1      11.709  50.727  29.523  0.00  0.00     0.158 A 
ATOM     34  C   LIG     1      11.126  49.654  28.850  0.00  0.00     0.159 A 
ATOM     35  C   LIG     1      11.515  49.356  27.544  0.00  0.00     0.060 A 
BRANCH  33  36
ATOM     36  O   LIG     1      11.340  51.028  30.799  0.00  0.00    -0.503 OA
ATOM     37  H   LIG     1      11.412  50.227  31.348  0.00  0.00     0.292 HD
ENDBRANCH  33  36
BRANCH  34  38
ATOM     38  O   LIG     1      10.174  48.892  29.458  0.00  0.00    -0.503 OA
ATOM     39  H   LIG     1      10.076  49.199  30.375  0.00  0.00     0.292 HD
ENDBRANCH  34  38
ENDBRANCH   7  30
TORSDOF 11
ENDMDL
MODEL 7
REMARK VINA RESULT:      -8.8      3.623      9.953
REMARK  11 active torsions:
REMARK  status: ('A' for Active; 'I' for Inactive)
REMARK    1  A    between atoms: C_13  and  O_12 
REMARK    2  A    between atoms: C_15  and  O_33 
REMARK    3  A    between atoms: C_19  and  C_20 
REMARK    4  A    between atoms: C_23  and  O_27 
REMARK    5  A    between atoms: C_24  and  O_25 
REMARK    6  A    between atoms: O_12  and  C_2 
REMARK    7  A    between atoms: C_3  and  O_10 
REMARK    8  A    between atoms: C_4  and  O_8 
REMARK    9  A    between atoms: C_5  and  O_6 
REMARK   10  A    between atoms: C_36  and  C_37 
REMARK   11  A    between atoms: C_37  and  O_38 
ROOT
ATOM      1  C   LIG     1      12.318  50.626  24.798  0.00  0.00     0.131 A 
ATOM      2  C   LIG     1      11.305  49.746  24.419  0.00  0.00     0.092 A 
ATOM      3  C   LIG     1      10.542  49.094  25.389  0.00  0.00     0.135 A 
ATOM      4  C   LIG     1      10.800  49.331  26.741  0.00  0.00     0.105 A 
ATOM      5  C   LIG     1      10.015  48.658  27.787  0.00  0.00     0.197 A 
ATOM      6  C   LIG     1      10.372  48.984  29.183  0.00  0.00     0.098 A 
ATOM      7  C   LIG     1      11.366  49.855  29.422  0.00  0.00     0.139 A 
ATOM      8  O   LIG     1      12.110  50.481  28.434  0.00  0.00    -0.454 OA
ATOM      9  O   LIG     1       9.115  47.872  27.525  0.00  0.00    -0.287 OA
ATOM     10  C   LIG     1      11.812  50.212  27.122  0.00  0.00     0.146 A 
ATOM     11  C   LIG     1      12.574  50.860  26.150  0.00  0.00     0.093 A 
ENDROOT
BRANCH   1  12
ATOM     12  O   LIG     1      13.061  51.260  23.845  0.00  0.00    -0.461 OA
BRANCH  12  13
ATOM     13  C   LIG     1      14.301  50.648  23.492  0.00  0.00     0.339 C 
ATOM     14  C   LIG     1      14.255  50.324  21.998  0.00  0.00     0.214 C 
ATOM     15  C   LIG     1      15.604  49.801  21.501  0.00  0.00     0.180 C 
ATOM     16  C   LIG     1      16.750  50.699  21.965  0.00  0.00     0.177 C 
ATOM     17  C   LIG     1      16.652  50.974  23.468  0.00  0.00     0.179 C 
ATOM     18  O   LIG     1      15.376  51.539  23.777  0.00  0.00    -0.331 OA
BRANCH  14  19
ATOM     19  O   LIG     1      13.254  49.329  21.786  0.00  0.00    -0.383 OA
ATOM     20  H   LIG     1      12.384  49.748  21.899  0.00  0.00     0.210 HD
ENDBRANCH  14  19
BRANCH  15  21
ATOM     21  O   LIG     1      15.608  49.779  20.073  0.00  0.00    -0.386 OA
ATOM     22  H   LIG     1      14.698  49.597  19.783  0.00  0.00     0.210 HD
ENDBRANCH  15  21
BRANCH  16  23
ATOM     23  O   LIG     1      17.993  50.061  21.683  0.00  0.00    -0.386 OA
ATOM     24  H   LIG     1      18.705  50.697  21.866  0.00  0.00     0.210 HD
ENDBRANCH  16  23
BRANCH  17  25
ATOM     25  C   LIG     1      17.717  51.962  23.931  0.00  0.00     0.190 C 
BRANCH  25  26
ATOM     26  O   LIG     1      18.196  52.672  22.803  0.00  0.00    -0.392 OA
ATOM     27  H   LIG     1      17.528  52.593  22.100  0.00  0.00     0.210 HD
ENDBRANCH  25  26
ENDBRANCH  17  25
ENDBRANCH  12  13
ENDBRANCH   1  12
BRANCH   3  28
ATOM     28  O   LIG     1       9.566  48.244  24.968  0.00  0.00    -0.506 OA
ATOM     29  H   LIG     1       9.817  47.824  24.131  0.00  0.00     0.292 HD
ENDBRANCH   3  28
BRANCH   7  30
ATOM     30  C   LIG     1      11.772  50.211  30.796  0.00  0.00     0.021 A 
ATOM     31  C   LIG     1      13.088  50.599  31.060  0.00  0.00     0.015 A 
ATOM     32  C   LIG     1      13.472  50.935  32.358  0.00  0.00     0.050 A 
ATOM     33  C   LIG     1      12.541  50.884  33.396  0.00  0.00     0.158 A 
ATOM     34  C   LIG     1      11.227  50.496  33.136  0.00  0.00     0.159 A 
ATOM     35  C   LIG     1      10.843  50.161  31.837  0.00  0.00     0.060 A 
BRANCH  33  36
ATOM     36  O   LIG     1      12.929  51.213  34.660  0.00  0.00    -0.503 OA
ATOM     37  H   LIG     1      13.873  51.001  34.767  0.00  0.00     0.292 HD
ENDBRANCH  33  36
BRANCH  34  38
ATOM     38  O   LIG     1      10.310  50.445  34.142  0.00  0.00    -0.503 OA
ATOM     39  H   LIG     1      10.044  51.354  34.361  0.00  0.00     0.292 HD
ENDBRANCH  34  38
ENDBRANCH   7  30
TORSDOF 11
ENDMDL
MODEL 8
REMARK VINA RESULT:      -8.6      6.691     11.271
REMARK  11 active torsions:
REMARK  status: ('A' for Active; 'I' for Inactive)
REMARK    1  A    between atoms: C_13  and  O_12 
REMARK    2  A    between atoms: C_15  and  O_33 
REMARK    3  A    between atoms: C_19  and  C_20 
REMARK    4  A    between atoms: C_23  and  O_27 
REMARK    5  A    between atoms: C_24  and  O_25 
REMARK    6  A    between atoms: O_12  and  C_2 
REMARK    7  A    between atoms: C_3  and  O_10 
REMARK    8  A    between atoms: C_4  and  O_8 
REMARK    9  A    between atoms: C_5  and  O_6 
REMARK   10  A    between atoms: C_36  and  C_37 
REMARK   11  A    between atoms: C_37  and  O_38 
ROOT
ATOM      1  C   LIG     1      17.598  49.086  21.629  0.00  0.00     0.131 A 
ATOM      2  C   LIG     1      18.622  49.073  20.683  0.00  0.00     0.092 A 
ATOM      3  C   LIG     1      19.918  48.716  21.057  0.00  0.00     0.135 A 
ATOM      4  C   LIG     1      20.181  48.371  22.385  0.00  0.00     0.105 A 
ATOM      5  C   LIG     1      21.537  47.992  22.811  0.00  0.00     0.197 A 
ATOM      6  C   LIG     1      21.700  47.645  24.237  0.00  0.00     0.098 A 
ATOM      7  C   LIG     1      20.633  47.689  25.051  0.00  0.00     0.139 A 
ATOM      8  O   LIG     1      19.358  48.055  24.649  0.00  0.00    -0.454 OA
ATOM      9  O   LIG     1      22.481  47.963  22.034  0.00  0.00    -0.287 OA
ATOM     10  C   LIG     1      19.157  48.383  23.332  0.00  0.00     0.146 A 
ATOM     11  C   LIG     1      17.863  48.742  22.955  0.00  0.00     0.093 A 
ENDROOT
BRANCH   1  12
ATOM     12  O   LIG     1      16.333  49.437  21.257  0.00  0.00    -0.461 OA
BRANCH  12  13
ATOM     13  C   LIG     1      15.527  50.068  22.252  0.00  0.00     0.339 C 
ATOM     14  C   LIG     1      15.199  51.479  21.765  0.00  0.00     0.214 C 
ATOM     15  C   LIG     1      14.213  52.176  22.703  0.00  0.00     0.180 C 
ATOM     16  C   LIG     1      13.020  51.275  23.022  0.00  0.00     0.177 C 
ATOM     17  C   LIG     1      13.490  49.885  23.458  0.00  0.00     0.179 C 
ATOM     18  O   LIG     1      14.332  49.318  22.452  0.00  0.00    -0.331 OA
BRANCH  14  19
ATOM     19  O   LIG     1      16.413  52.229  21.713  0.00  0.00    -0.383 OA
ATOM     20  H   LIG     1      17.130  51.666  22.053  0.00  0.00     0.210 HD
ENDBRANCH  14  19
BRANCH  15  21
ATOM     21  O   LIG     1      13.718  53.362  22.078  0.00  0.00    -0.386 OA
ATOM     22  H   LIG     1      13.126  53.084  21.358  0.00  0.00     0.210 HD
ENDBRANCH  15  21
BRANCH  16  23
ATOM     23  O   LIG     1      12.251  51.862  24.068  0.00  0.00    -0.386 OA
ATOM     24  H   LIG     1      12.843  52.019  24.823  0.00  0.00     0.210 HD
ENDBRANCH  16  23
BRANCH  17  25
ATOM     25  C   LIG     1      12.317  48.933  23.667  0.00  0.00     0.190 C 
BRANCH  25  26
ATOM     26  O   LIG     1      11.918  48.426  22.407  0.00  0.00    -0.392 OA
ATOM     27  H   LIG     1      11.129  48.921  22.125  0.00  0.00     0.210 HD
ENDBRANCH  25  26
ENDBRANCH  17  25
ENDBRANCH  12  13
ENDBRANCH   1  12
BRANCH   3  28
ATOM     28  O   LIG     1      20.884  48.719  20.096  0.00  0.00    -0.506 OA
ATOM     29  H   LIG     1      21.165  47.815  19.893  0.00  0.00     0.292 HD
ENDBRANCH   3  28
BRANCH   7  30
ATOM     30  C   LIG     1      20.738  47.362  26.488  0.00  0.00     0.021 A 
ATOM     31  C   LIG     1      21.964  46.968  27.030  0.00  0.00     0.015 A 
ATOM     32  C   LIG     1      22.062  46.658  28.386  0.00  0.00     0.050 A 
ATOM     33  C   LIG     1      20.936  46.742  29.204  0.00  0.00     0.158 A 
ATOM     34  C   LIG     1      19.710  47.134  28.666  0.00  0.00     0.159 A 
ATOM     35  C   LIG     1      19.612  47.444  27.309  0.00  0.00     0.060 A 
BRANCH  33  36
ATOM     36  O   LIG     1      21.045  46.435  30.527  0.00  0.00    -0.503 OA
ATOM     37  H   LIG     1      21.441  47.190  30.996  0.00  0.00     0.292 HD
ENDBRANCH  33  36
BRANCH  34  38
ATOM     38  O   LIG     1      18.604  47.220  29.457  0.00  0.00    -0.503 OA
ATOM     39  H   LIG     1      18.169  46.351  29.470  0.00  0.00     0.292 HD
ENDBRANCH  34  38
ENDBRANCH   7  30
TORSDOF 11
ENDMDL
