MODEL 1
REMARK VINA RESULT:    -8.518      0.000      0.000
REMARK INTER + INTRA:         -13.324
REMARK INTER:                 -12.261
REMARK INTRA:                  -1.063
REMARK UNBOUND:                -0.822
REMARK  Name = 74978140
REMARK  12 active torsions:
REMARK  status: ('A' for Active; 'I' for Inactive)
REMARK    1  A    between atoms: O_2  and  C_16
REMARK    2  A    between atoms: O_2  and  C_18
REMARK    3  A    between atoms: O_3  and  C_12
REMARK    4  A    between atoms: O_4  and  C_13
REMARK    5  A    between atoms: O_5  and  C_14
REMARK    6  A    between atoms: O_6  and  C_17
REMARK    7  A    between atoms: O_9  and  C_24
REMARK    8  A    between atoms: O_10  and  C_29
REMARK    9  A    between atoms: O_11  and  C_32
REMARK   10  A    between atoms: O_11  and  C_33
REMARK   11  A    between atoms: C_15  and  C_17
REMARK   12  A    between atoms: C_19  and  C_23
REMARK                            x       y       z     vdW  Elec       q    Type
REMARK                         _______ _______ _______ _____ _____    ______ ____
ROOT
ATOM      1  O   UNL     1      93.457  13.405  38.152  0.00  0.00    +0.000 OA
ATOM      2  O   UNL     1      90.131  12.972  40.466  0.00  0.00    +0.000 OA
ATOM      3  C   UNL     1      92.490  13.135  40.352  0.00  0.00    +0.000 A 
ATOM      4  C   UNL     1      93.545  13.275  39.529  0.00  0.00    +0.000 A 
ATOM      5  C   UNL     1      91.128  13.098  39.768  0.00  0.00    +0.000 A 
ATOM      6  C   UNL     1      91.040  13.224  38.305  0.00  0.00    +0.000 A 
ATOM      7  C   UNL     1      92.215  13.372  37.570  0.00  0.00    +0.000 A 
ATOM      8  C   UNL     1      89.803  13.197  37.659  0.00  0.00    +0.000 A 
ATOM      9  C   UNL     1      92.158  13.494  36.182  0.00  0.00    +0.000 A 
ATOM     10  C   UNL     1      89.749  13.320  36.269  0.00  0.00    +0.000 A 
ATOM     11  C   UNL     1      90.925  13.468  35.533  0.00  0.00    +0.000 A 
ENDROOT
BRANCH   4  12
ATOM     12  C   UNL     1      94.933  13.330  40.023  0.00  0.00    +0.000 A 
ATOM     13  C   UNL     1      95.696  12.164  40.090  0.00  0.00    +0.000 A 
ATOM     14  C   UNL     1      95.483  14.547  40.422  0.00  0.00    +0.000 A 
ATOM     15  C   UNL     1      97.010  12.217  40.555  0.00  0.00    +0.000 A 
ATOM     16  C   UNL     1      96.796  14.600  40.888  0.00  0.00    +0.000 A 
ATOM     17  C   UNL     1      97.560  13.435  40.955  0.00  0.00    +0.000 A 
BRANCH  17  18
ATOM     18  O   UNL     1      98.842  13.487  41.409  0.00  0.00    +0.000 OA
ATOM     19  C   UNL     1      99.453  14.775  41.478  0.00  0.00    +0.000 C 
ENDBRANCH  17  18
ENDBRANCH   4  12
BRANCH   8  20
ATOM     20  O   UNL     1      88.626  13.056  38.330  0.00  0.00    +0.000 OA
ATOM     21  H   UNL     1      88.055  12.411  37.884  0.00  0.00    +0.000 HD
ENDBRANCH   8  20
BRANCH  11  22
ATOM     22  O   UNL     1      90.867  13.587  34.178  0.00  0.00    +0.000 OA
ATOM     23  H   UNL     1      89.975  13.881  33.924  0.00  0.00    +0.000 HD
ENDBRANCH  11  22
BRANCH   3  24
ATOM     24  O   UNL     1      92.612  13.041  41.721  0.00  0.00    +0.000 OA
BRANCH  24  30
ATOM     25  O   UNL     1      91.218  13.627  43.517  0.00  0.00    +0.000 OA
ATOM     26  C   UNL     1      92.298  16.286  43.568  0.00  0.00    +0.000 C 
ATOM     27  C   UNL     1      91.412  15.757  44.698  0.00  0.00    +0.000 C 
ATOM     28  C   UNL     1      92.986  15.136  42.832  0.00  0.00    +0.000 C 
ATOM     29  C   UNL     1      90.476  14.658  44.176  0.00  0.00    +0.000 C 
ATOM     30  C   UNL     1      91.945  14.111  42.384  0.00  0.00    +0.000 C 
BRANCH  26  31
ATOM     31  O   UNL     1      93.272  17.171  44.112  0.00  0.00    +0.000 OA
ATOM     32  H   UNL     1      94.075  16.652  44.285  0.00  0.00    +0.000 HD
ENDBRANCH  26  31
BRANCH  27  33
ATOM     33  O   UNL     1      90.629  16.825  45.226  0.00  0.00    +0.000 OA
ATOM     34  H   UNL     1      91.087  17.660  45.027  0.00  0.00    +0.000 HD
ENDBRANCH  27  33
BRANCH  28  35
ATOM     35  O   UNL     1      93.905  14.485  43.714  0.00  0.00    +0.000 OA
ATOM     36  H   UNL     1      93.419  13.813  44.222  0.00  0.00    +0.000 HD
ENDBRANCH  28  35
BRANCH  29  37
ATOM     37  C   UNL     1      89.691  14.005  45.310  0.00  0.00    +0.000 C 
BRANCH  37  38
ATOM     38  O   UNL     1      88.463  14.694  45.461  0.00  0.00    +0.000 OA
ATOM     39  H   UNL     1      88.440  15.043  46.369  0.00  0.00    +0.000 HD
ENDBRANCH  37  38
ENDBRANCH  29  37
ENDBRANCH  24  30
ENDBRANCH   3  24
TORSDOF 11
ENDMDL
MODEL 2
REMARK VINA RESULT:    -8.384      1.997      2.767
REMARK INTER + INTRA:         -13.127
REMARK INTER:                 -11.969
REMARK INTRA:                  -1.158
REMARK UNBOUND:                -0.822
REMARK  Name = 74978140
REMARK  12 active torsions:
REMARK  status: ('A' for Active; 'I' for Inactive)
REMARK    1  A    between atoms: O_2  and  C_16
REMARK    2  A    between atoms: O_2  and  C_18
REMARK    3  A    between atoms: O_3  and  C_12
REMARK    4  A    between atoms: O_4  and  C_13
REMARK    5  A    between atoms: O_5  and  C_14
REMARK    6  A    between atoms: O_6  and  C_17
REMARK    7  A    between atoms: O_9  and  C_24
REMARK    8  A    between atoms: O_10  and  C_29
REMARK    9  A    between atoms: O_11  and  C_32
REMARK   10  A    between atoms: O_11  and  C_33
REMARK   11  A    between atoms: C_15  and  C_17
REMARK   12  A    between atoms: C_19  and  C_23
REMARK                            x       y       z     vdW  Elec       q    Type
REMARK                         _______ _______ _______ _____ _____    ______ ____
ROOT
ATOM      1  O   UNL     1      92.740  13.783  38.823  0.00  0.00    +0.000 OA
ATOM      2  O   UNL     1      88.935  12.398  39.272  0.00  0.00    +0.000 OA
ATOM      3  C   UNL     1      91.027  12.878  40.270  0.00  0.00    +0.000 A 
ATOM      4  C   UNL     1      92.271  13.340  40.049  0.00  0.00    +0.000 A 
ATOM      5  C   UNL     1      90.078  12.810  39.133  0.00  0.00    +0.000 A 
ATOM      6  C   UNL     1      90.585  13.268  37.830  0.00  0.00    +0.000 A 
ATOM      7  C   UNL     1      91.896  13.733  37.743  0.00  0.00    +0.000 A 
ATOM      8  C   UNL     1      89.769  13.241  36.697  0.00  0.00    +0.000 A 
ATOM      9  C   UNL     1      92.399  14.174  36.519  0.00  0.00    +0.000 A 
ATOM     10  C   UNL     1      90.276  13.683  35.474  0.00  0.00    +0.000 A 
ATOM     11  C   UNL     1      91.588  14.148  35.386  0.00  0.00    +0.000 A 
ENDROOT
BRANCH   4  12
ATOM     12  C   UNL     1      93.277  13.450  41.122  0.00  0.00    +0.000 A 
ATOM     13  C   UNL     1      93.385  14.629  41.858  0.00  0.00    +0.000 A 
ATOM     14  C   UNL     1      94.119  12.374  41.401  0.00  0.00    +0.000 A 
ATOM     15  C   UNL     1      94.336  14.732  42.875  0.00  0.00    +0.000 A 
ATOM     16  C   UNL     1      95.070  12.477  42.416  0.00  0.00    +0.000 A 
ATOM     17  C   UNL     1      95.178  13.656  43.153  0.00  0.00    +0.000 A 
BRANCH  17  18
ATOM     18  O   UNL     1      96.105  13.755  44.144  0.00  0.00    +0.000 OA
ATOM     19  C   UNL     1      97.296  12.982  43.998  0.00  0.00    +0.000 C 
ENDBRANCH  17  18
ENDBRANCH   4  12
BRANCH   8  20
ATOM     20  O   UNL     1      88.482  12.798  36.728  0.00  0.00    +0.000 OA
ATOM     21  H   UNL     1      88.290  12.366  37.575  0.00  0.00    +0.000 HD
ENDBRANCH   8  20
BRANCH  11  22
ATOM     22  O   UNL     1      92.078  14.578  34.190  0.00  0.00    +0.000 OA
ATOM     23  H   UNL     1      91.841  13.932  33.502  0.00  0.00    +0.000 HD
ENDBRANCH  11  22
BRANCH   3  24
ATOM     24  O   UNL     1      90.583  12.477  41.511  0.00  0.00    +0.000 OA
BRANCH  24  30
ATOM     25  O   UNL     1      88.470  12.750  42.497  0.00  0.00    +0.000 OA
ATOM     26  C   UNL     1      89.354  15.100  43.888  0.00  0.00    +0.000 C 
ATOM     27  C   UNL     1      88.024  14.420  44.224  0.00  0.00    +0.000 C 
ATOM     28  C   UNL     1      90.328  14.107  43.256  0.00  0.00    +0.000 C 
ATOM     29  C   UNL     1      87.488  13.659  43.003  0.00  0.00    +0.000 C 
ATOM     30  C   UNL     1      89.663  13.411  42.069  0.00  0.00    +0.000 C 
BRANCH  26  31
ATOM     31  O   UNL     1      89.914  15.646  45.078  0.00  0.00    +0.000 OA
ATOM     32  H   UNL     1      89.720  15.029  45.803  0.00  0.00    +0.000 HD
ENDBRANCH  26  31
BRANCH  27  33
ATOM     33  O   UNL     1      87.073  15.407  44.614  0.00  0.00    +0.000 OA
ATOM     34  H   UNL     1      87.009  16.063  43.900  0.00  0.00    +0.000 HD
ENDBRANCH  27  33
BRANCH  28  35
ATOM     35  O   UNL     1      90.685  13.108  44.217  0.00  0.00    +0.000 OA
ATOM     36  H   UNL     1      90.094  13.195  44.983  0.00  0.00    +0.000 HD
ENDBRANCH  28  35
BRANCH  29  37
ATOM     37  C   UNL     1      86.245  12.845  43.352  0.00  0.00    +0.000 C 
BRANCH  37  38
ATOM     38  O   UNL     1      85.119  13.702  43.306  0.00  0.00    +0.000 OA
ATOM     39  H   UNL     1      85.400  14.565  43.656  0.00  0.00    +0.000 HD
ENDBRANCH  37  38
ENDBRANCH  29  37
ENDBRANCH  24  30
ENDBRANCH   3  24
TORSDOF 11
ENDMDL
MODEL 3
REMARK VINA RESULT:    -8.200      5.752      9.405
REMARK INTER + INTRA:         -12.857
REMARK INTER:                 -11.980
REMARK INTRA:                  -0.877
REMARK UNBOUND:                -0.822
REMARK  Name = 74978140
REMARK  12 active torsions:
REMARK  status: ('A' for Active; 'I' for Inactive)
REMARK    1  A    between atoms: O_2  and  C_16
REMARK    2  A    between atoms: O_2  and  C_18
REMARK    3  A    between atoms: O_3  and  C_12
REMARK    4  A    between atoms: O_4  and  C_13
REMARK    5  A    between atoms: O_5  and  C_14
REMARK    6  A    between atoms: O_6  and  C_17
REMARK    7  A    between atoms: O_9  and  C_24
REMARK    8  A    between atoms: O_10  and  C_29
REMARK    9  A    between atoms: O_11  and  C_32
REMARK   10  A    between atoms: O_11  and  C_33
REMARK   11  A    between atoms: C_15  and  C_17
REMARK   12  A    between atoms: C_19  and  C_23
REMARK                            x       y       z     vdW  Elec       q    Type
REMARK                         _______ _______ _______ _____ _____    ______ ____
ROOT
ATOM      1  O   UNL     1      88.082   9.747  31.667  0.00  0.00    +0.000 OA
ATOM      2  O   UNL     1      86.829  13.440  32.849  0.00  0.00    +0.000 OA
ATOM      3  C   UNL     1      87.788  11.359  33.446  0.00  0.00    +0.000 A 
ATOM      4  C   UNL     1      88.175  10.154  32.988  0.00  0.00    +0.000 A 
ATOM      5  C   UNL     1      87.200  12.330  32.491  0.00  0.00    +0.000 A 
ATOM      6  C   UNL     1      87.091  11.888  31.093  0.00  0.00    +0.000 A 
ATOM      7  C   UNL     1      87.540  10.613  30.752  0.00  0.00    +0.000 A 
ATOM      8  C   UNL     1      86.548  12.728  30.119  0.00  0.00    +0.000 A 
ATOM      9  C   UNL     1      87.447  10.171  29.433  0.00  0.00    +0.000 A 
ATOM     10  C   UNL     1      86.457  12.283  28.799  0.00  0.00    +0.000 A 
ATOM     11  C   UNL     1      86.906  11.008  28.457  0.00  0.00    +0.000 A 
ENDROOT
BRANCH   4  12
ATOM     12  C   UNL     1      88.776   9.131  33.863  0.00  0.00    +0.000 A 
ATOM     13  C   UNL     1      87.984   8.453  34.789  0.00  0.00    +0.000 A 
ATOM     14  C   UNL     1      90.137   8.841  33.764  0.00  0.00    +0.000 A 
ATOM     15  C   UNL     1      88.553   7.484  35.616  0.00  0.00    +0.000 A 
ATOM     16  C   UNL     1      90.705   7.873  34.591  0.00  0.00    +0.000 A 
ATOM     17  C   UNL     1      89.914   7.194  35.517  0.00  0.00    +0.000 A 
BRANCH  17  18
ATOM     18  O   UNL     1      90.469   6.248  36.322  0.00  0.00    +0.000 OA
ATOM     19  C   UNL     1      91.877   6.330  36.542  0.00  0.00    +0.000 C 
ENDBRANCH  17  18
ENDBRANCH   4  12
BRANCH   8  20
ATOM     20  O   UNL     1      86.097  13.983  30.398  0.00  0.00    +0.000 OA
ATOM     21  H   UNL     1      85.712  14.016  31.287  0.00  0.00    +0.000 HD
ENDBRANCH   8  20
BRANCH  11  22
ATOM     22  O   UNL     1      86.815  10.578  27.168  0.00  0.00    +0.000 OA
ATOM     23  H   UNL     1      87.169   9.674  27.111  0.00  0.00    +0.000 HD
ENDBRANCH  11  22
BRANCH   3  24
ATOM     24  O   UNL     1      87.927  11.745  34.761  0.00  0.00    +0.000 OA
BRANCH  24  30
ATOM     25  O   UNL     1      89.703  13.277  34.834  0.00  0.00    +0.000 OA
ATOM     26  C   UNL     1      90.919  11.857  37.012  0.00  0.00    +0.000 C 
ATOM     27  C   UNL     1      91.400  13.249  36.592  0.00  0.00    +0.000 C 
ATOM     28  C   UNL     1      89.463  11.638  36.602  0.00  0.00    +0.000 C 
ATOM     29  C   UNL     1      91.090  13.498  35.109  0.00  0.00    +0.000 C 
ATOM     30  C   UNL     1      89.294  11.936  35.113  0.00  0.00    +0.000 C 
BRANCH  26  31
ATOM     31  O   UNL     1      91.056  11.721  38.424  0.00  0.00    +0.000 OA
ATOM     32  H   UNL     1      91.990  11.531  38.610  0.00  0.00    +0.000 HD
ENDBRANCH  26  31
BRANCH  27  33
ATOM     33  O   UNL     1      92.807  13.346  36.799  0.00  0.00    +0.000 OA
ATOM     34  H   UNL     1      93.092  12.562  37.298  0.00  0.00    +0.000 HD
ENDBRANCH  27  33
BRANCH  28  35
ATOM     35  O   UNL     1      88.619  12.531  37.336  0.00  0.00    +0.000 OA
ATOM     36  H   UNL     1      89.160  13.271  37.656  0.00  0.00    +0.000 HD
ENDBRANCH  28  35
BRANCH  29  37
ATOM     37  C   UNL     1      91.417  14.931  34.701  0.00  0.00    +0.000 C 
BRANCH  37  38
ATOM     38  O   UNL     1      92.387  14.895  33.671  0.00  0.00    +0.000 OA
ATOM     39  H   UNL     1      92.616  13.962  33.524  0.00  0.00    +0.000 HD
ENDBRANCH  37  38
ENDBRANCH  29  37
ENDBRANCH  24  30
ENDBRANCH   3  24
TORSDOF 11
ENDMDL
MODEL 4
REMARK VINA RESULT:    -8.196      2.408      6.336
REMARK INTER + INTRA:         -12.851
REMARK INTER:                 -11.799
REMARK INTRA:                  -1.052
REMARK UNBOUND:                -0.822
REMARK  Name = 74978140
REMARK  12 active torsions:
REMARK  status: ('A' for Active; 'I' for Inactive)
REMARK    1  A    between atoms: O_2  and  C_16
REMARK    2  A    between atoms: O_2  and  C_18
REMARK    3  A    between atoms: O_3  and  C_12
REMARK    4  A    between atoms: O_4  and  C_13
REMARK    5  A    between atoms: O_5  and  C_14
REMARK    6  A    between atoms: O_6  and  C_17
REMARK    7  A    between atoms: O_9  and  C_24
REMARK    8  A    between atoms: O_10  and  C_29
REMARK    9  A    between atoms: O_11  and  C_32
REMARK   10  A    between atoms: O_11  and  C_33
REMARK   11  A    between atoms: C_15  and  C_17
REMARK   12  A    between atoms: C_19  and  C_23
REMARK                            x       y       z     vdW  Elec       q    Type
REMARK                         _______ _______ _______ _____ _____    ______ ____
ROOT
ATOM      1  O   UNL     1      88.423  13.224  41.639  0.00  0.00    +0.000 OA
ATOM      2  O   UNL     1      89.427  15.340  44.973  0.00  0.00    +0.000 OA
ATOM      3  C   UNL     1      89.997  14.664  42.777  0.00  0.00    +0.000 A 
ATOM      4  C   UNL     1      89.607  13.940  41.712  0.00  0.00    +0.000 A 
ATOM      5  C   UNL     1      89.124  14.700  43.975  0.00  0.00    +0.000 A 
ATOM      6  C   UNL     1      87.874  13.928  43.897  0.00  0.00    +0.000 A 
ATOM      7  C   UNL     1      87.588  13.227  42.727  0.00  0.00    +0.000 A 
ATOM      8  C   UNL     1      86.986  13.896  44.974  0.00  0.00    +0.000 A 
ATOM      9  C   UNL     1      86.409  12.488  42.628  0.00  0.00    +0.000 A 
ATOM     10  C   UNL     1      85.807  13.156  44.872  0.00  0.00    +0.000 A 
ATOM     11  C   UNL     1      85.520  12.454  43.701  0.00  0.00    +0.000 A 
ENDROOT
BRANCH   4  12
ATOM     12  C   UNL     1      90.407  13.854  40.477  0.00  0.00    +0.000 A 
ATOM     13  C   UNL     1      91.001  12.646  40.114  0.00  0.00    +0.000 A 
ATOM     14  C   UNL     1      90.570  14.981  39.672  0.00  0.00    +0.000 A 
ATOM     15  C   UNL     1      91.757  12.564  38.944  0.00  0.00    +0.000 A 
ATOM     16  C   UNL     1      91.326  14.899  38.503  0.00  0.00    +0.000 A 
ATOM     17  C   UNL     1      91.920  13.691  38.139  0.00  0.00    +0.000 A 
BRANCH  17  18
ATOM     18  O   UNL     1      92.657  13.612  36.997  0.00  0.00    +0.000 OA
ATOM     19  C   UNL     1      92.068  14.137  35.808  0.00  0.00    +0.000 C 
ENDBRANCH  17  18
ENDBRANCH   4  12
BRANCH   8  20
ATOM     20  O   UNL     1      87.218  14.564  46.138  0.00  0.00    +0.000 OA
ATOM     21  H   UNL     1      88.117  14.926  46.150  0.00  0.00    +0.000 HD
ENDBRANCH   8  20
BRANCH  11  22
ATOM     22  O   UNL     1      84.369  11.733  43.607  0.00  0.00    +0.000 OA
ATOM     23  H   UNL     1      83.956  11.681  44.486  0.00  0.00    +0.000 HD
ENDBRANCH  11  22
BRANCH   3  24
ATOM     24  O   UNL     1      91.166  15.392  42.804  0.00  0.00    +0.000 OA
BRANCH  24  30
ATOM     25  O   UNL     1      93.190  14.798  41.774  0.00  0.00    +0.000 OA
ATOM     26  C   UNL     1      94.286  13.938  44.284  0.00  0.00    +0.000 C 
ATOM     27  C   UNL     1      95.162  14.105  43.040  0.00  0.00    +0.000 C 
ATOM     28  C   UNL     1      93.038  14.816  44.192  0.00  0.00    +0.000 C 
ATOM     29  C   UNL     1      94.324  13.925  41.766  0.00  0.00    +0.000 C 
ATOM     30  C   UNL     1      92.312  14.549  42.875  0.00  0.00    +0.000 C 
BRANCH  26  31
ATOM     31  O   UNL     1      95.043  14.284  45.440  0.00  0.00    +0.000 OA
ATOM     32  H   UNL     1      94.804  15.193  45.685  0.00  0.00    +0.000 HD
ENDBRANCH  26  31
BRANCH  27  33
ATOM     33  O   UNL     1      96.200  13.129  43.058  0.00  0.00    +0.000 OA
ATOM     34  H   UNL     1      96.022  12.486  42.351  0.00  0.00    +0.000 HD
ENDBRANCH  27  33
BRANCH  28  35
ATOM     35  O   UNL     1      93.419  16.195  44.221  0.00  0.00    +0.000 OA
ATOM     36  H   UNL     1      94.272  16.288  43.764  0.00  0.00    +0.000 HD
ENDBRANCH  28  35
BRANCH  29  37
ATOM     37  C   UNL     1      95.135  14.237  40.512  0.00  0.00    +0.000 C 
BRANCH  37  38
ATOM     38  O   UNL     1      96.103  15.219  40.836  0.00  0.00    +0.000 OA
ATOM     39  H   UNL     1      96.243  15.757  40.038  0.00  0.00    +0.000 HD
ENDBRANCH  37  38
ENDBRANCH  29  37
ENDBRANCH  24  30
ENDBRANCH   3  24
TORSDOF 11
ENDMDL
MODEL 5
REMARK VINA RESULT:    -8.085      1.989      6.432
REMARK INTER + INTRA:         -12.688
REMARK INTER:                 -11.675
REMARK INTRA:                  -1.013
REMARK UNBOUND:                -0.822
REMARK  Name = 74978140
REMARK  12 active torsions:
REMARK  status: ('A' for Active; 'I' for Inactive)
REMARK    1  A    between atoms: O_2  and  C_16
REMARK    2  A    between atoms: O_2  and  C_18
REMARK    3  A    between atoms: O_3  and  C_12
REMARK    4  A    between atoms: O_4  and  C_13
REMARK    5  A    between atoms: O_5  and  C_14
REMARK    6  A    between atoms: O_6  and  C_17
REMARK    7  A    between atoms: O_9  and  C_24
REMARK    8  A    between atoms: O_10  and  C_29
REMARK    9  A    between atoms: O_11  and  C_32
REMARK   10  A    between atoms: O_11  and  C_33
REMARK   11  A    between atoms: C_15  and  C_17
REMARK   12  A    between atoms: C_19  and  C_23
REMARK                            x       y       z     vdW  Elec       q    Type
REMARK                         _______ _______ _______ _____ _____    ______ ____
ROOT
ATOM      1  O   UNL     1      93.534  13.458  38.932  0.00  0.00    +0.000 OA
ATOM      2  O   UNL     1      92.293  15.064  42.465  0.00  0.00    +0.000 OA
ATOM      3  C   UNL     1      91.756  14.437  40.247  0.00  0.00    +0.000 A 
ATOM      4  C   UNL     1      92.234  13.904  39.107  0.00  0.00    +0.000 A 
ATOM      5  C   UNL     1      92.670  14.585  41.404  0.00  0.00    +0.000 A 
ATOM      6  C   UNL     1      94.053  14.123  41.209  0.00  0.00    +0.000 A 
ATOM      7  C   UNL     1      94.414  13.581  39.976  0.00  0.00    +0.000 A 
ATOM      8  C   UNL     1      94.991  14.223  42.238  0.00  0.00    +0.000 A 
ATOM      9  C   UNL     1      95.719  13.135  39.766  0.00  0.00    +0.000 A 
ATOM     10  C   UNL     1      96.296  13.775  42.025  0.00  0.00    +0.000 A 
ATOM     11  C   UNL     1      96.659  13.233  40.792  0.00  0.00    +0.000 A 
ENDROOT
BRANCH   4  12
ATOM     12  C   UNL     1      91.394  13.711  37.911  0.00  0.00    +0.000 A 
ATOM     13  C   UNL     1      91.434  14.644  36.874  0.00  0.00    +0.000 A 
ATOM     14  C   UNL     1      90.562  12.596  37.814  0.00  0.00    +0.000 A 
ATOM     15  C   UNL     1      90.641  14.460  35.741  0.00  0.00    +0.000 A 
ATOM     16  C   UNL     1      89.769  12.414  36.682  0.00  0.00    +0.000 A 
ATOM     17  C   UNL     1      89.808  13.345  35.645  0.00  0.00    +0.000 A 
BRANCH  17  18
ATOM     18  O   UNL     1      89.035  13.166  34.540  0.00  0.00    +0.000 OA
ATOM     19  C   UNL     1      88.241  11.981  34.490  0.00  0.00    +0.000 C 
ENDBRANCH  17  18
ENDBRANCH   4  12
BRANCH   8  20
ATOM     20  O   UNL     1      94.690  14.742  43.460  0.00  0.00    +0.000 OA
ATOM     21  H   UNL     1      94.209  14.094  43.997  0.00  0.00    +0.000 HD
ENDBRANCH   8  20
BRANCH  11  22
ATOM     22  O   UNL     1      97.933  12.798  40.589  0.00  0.00    +0.000 OA
ATOM     23  H   UNL     1      98.547  13.395  41.050  0.00  0.00    +0.000 HD
ENDBRANCH  11  22
BRANCH   3  24
ATOM     24  O   UNL     1      90.447  14.838  40.398  0.00  0.00    +0.000 OA
BRANCH  24  30
ATOM     25  O   UNL     1      89.043  14.828  42.279  0.00  0.00    +0.000 OA
ATOM     26  C   UNL     1      87.988  12.258  41.554  0.00  0.00    +0.000 C 
ATOM     27  C   UNL     1      87.341  13.113  42.647  0.00  0.00    +0.000 C 
ATOM     28  C   UNL     1      88.768  13.132  40.571  0.00  0.00    +0.000 C 
ATOM     29  C   UNL     1      88.380  14.049  43.281  0.00  0.00    +0.000 C 
ATOM     30  C   UNL     1      89.749  14.021  41.333  0.00  0.00    +0.000 C 
BRANCH  26  31
ATOM     31  O   UNL     1      86.974  11.532  40.866  0.00  0.00    +0.000 OA
ATOM     32  H   UNL     1      86.147  12.035  40.948  0.00  0.00    +0.000 HD
ENDBRANCH  26  31
BRANCH  27  33
ATOM     33  O   UNL     1      86.802  12.262  43.655  0.00  0.00    +0.000 OA
ATOM     34  H   UNL     1      86.002  12.684  44.009  0.00  0.00    +0.000 HD
ENDBRANCH  27  33
BRANCH  28  35
ATOM     35  O   UNL     1      87.860  13.976  39.856  0.00  0.00    +0.000 OA
ATOM     36  H   UNL     1      87.022  13.499  39.741  0.00  0.00    +0.000 HD
ENDBRANCH  28  35
BRANCH  29  37
ATOM     37  C   UNL     1      87.734  15.020  44.264  0.00  0.00    +0.000 C 
BRANCH  37  38
ATOM     38  O   UNL     1      87.852  14.483  45.569  0.00  0.00    +0.000 OA
ATOM     39  H   UNL     1      88.762  14.152  45.662  0.00  0.00    +0.000 HD
ENDBRANCH  37  38
ENDBRANCH  29  37
ENDBRANCH  24  30
ENDBRANCH   3  24
TORSDOF 11
ENDMDL
MODEL 6
REMARK VINA RESULT:    -8.048     11.874     14.877
REMARK INTER + INTRA:         -12.634
REMARK INTER:                 -11.481
REMARK INTRA:                  -1.153
REMARK UNBOUND:                -0.822
REMARK  Name = 74978140
REMARK  12 active torsions:
REMARK  status: ('A' for Active; 'I' for Inactive)
REMARK    1  A    between atoms: O_2  and  C_16
REMARK    2  A    between atoms: O_2  and  C_18
REMARK    3  A    between atoms: O_3  and  C_12
REMARK    4  A    between atoms: O_4  and  C_13
REMARK    5  A    between atoms: O_5  and  C_14
REMARK    6  A    between atoms: O_6  and  C_17
REMARK    7  A    between atoms: O_9  and  C_24
REMARK    8  A    between atoms: O_10  and  C_29
REMARK    9  A    between atoms: O_11  and  C_32
REMARK   10  A    between atoms: O_11  and  C_33
REMARK   11  A    between atoms: C_15  and  C_17
REMARK   12  A    between atoms: C_19  and  C_23
REMARK                            x       y       z     vdW  Elec       q    Type
REMARK                         _______ _______ _______ _____ _____    ______ ____
ROOT
ATOM      1  O   UNL     1      84.692  13.027  27.884  0.00  0.00    +0.000 OA
ATOM      2  O   UNL     1      86.099  11.496  31.388  0.00  0.00    +0.000 OA
ATOM      3  C   UNL     1      84.614  12.985  30.301  0.00  0.00    +0.000 A 
ATOM      4  C   UNL     1      84.201  13.451  29.108  0.00  0.00    +0.000 A 
ATOM      5  C   UNL     1      85.682  11.957  30.334  0.00  0.00    +0.000 A 
ATOM      6  C   UNL     1      86.209  11.518  29.033  0.00  0.00    +0.000 A 
ATOM      7  C   UNL     1      85.684  12.080  27.870  0.00  0.00    +0.000 A 
ATOM      8  C   UNL     1      87.218  10.556  28.959  0.00  0.00    +0.000 A 
ATOM      9  C   UNL     1      86.167  11.680  26.624  0.00  0.00    +0.000 A 
ATOM     10  C   UNL     1      87.699  10.159  27.710  0.00  0.00    +0.000 A 
ATOM     11  C   UNL     1      87.174  10.720  26.546  0.00  0.00    +0.000 A 
ENDROOT
BRANCH   4  12
ATOM     12  C   UNL     1      83.140  14.467  28.980  0.00  0.00    +0.000 A 
ATOM     13  C   UNL     1      81.803  14.075  28.921  0.00  0.00    +0.000 A 
ATOM     14  C   UNL     1      83.474  15.820  28.919  0.00  0.00    +0.000 A 
ATOM     15  C   UNL     1      80.799  15.037  28.801  0.00  0.00    +0.000 A 
ATOM     16  C   UNL     1      82.471  16.781  28.799  0.00  0.00    +0.000 A 
ATOM     17  C   UNL     1      81.133  16.389  28.740  0.00  0.00    +0.000 A 
BRANCH  17  18
ATOM     18  O   UNL     1      80.154  17.328  28.624  0.00  0.00    +0.000 OA
ATOM     19  C   UNL     1      80.428  18.450  27.785  0.00  0.00    +0.000 C 
ENDBRANCH  17  18
ENDBRANCH   4  12
BRANCH   8  20
ATOM     20  O   UNL     1      87.765   9.976  30.063  0.00  0.00    +0.000 OA
ATOM     21  H   UNL     1      87.096   9.466  30.546  0.00  0.00    +0.000 HD
ENDBRANCH   8  20
BRANCH  11  22
ATOM     22  O   UNL     1      87.647  10.329  25.330  0.00  0.00    +0.000 OA
ATOM     23  H   UNL     1      87.231   9.485  25.085  0.00  0.00    +0.000 HD
ENDBRANCH  11  22
BRANCH   3  24
ATOM     24  O   UNL     1      84.080  13.405  31.499  0.00  0.00    +0.000 OA
BRANCH  24  30
ATOM     25  O   UNL     1      83.688  11.980  33.322  0.00  0.00    +0.000 OA
ATOM     26  C   UNL     1      80.859  12.036  32.838  0.00  0.00    +0.000 C 
ATOM     27  C   UNL     1      81.442  11.452  34.128  0.00  0.00    +0.000 C 
ATOM     28  C   UNL     1      81.817  13.055  32.220  0.00  0.00    +0.000 C 
ATOM     29  C   UNL     1      82.873  10.949  33.890  0.00  0.00    +0.000 C 
ATOM     30  C   UNL     1      83.202  12.431  32.055  0.00  0.00    +0.000 C 
BRANCH  26  31
ATOM     31  O   UNL     1      79.608  12.653  33.126  0.00  0.00    +0.000 OA
ATOM     32  H   UNL     1      79.193  12.883  32.279  0.00  0.00    +0.000 HD
ENDBRANCH  26  31
BRANCH  27  33
ATOM     33  O   UNL     1      80.631  10.365  34.564  0.00  0.00    +0.000 OA
ATOM     34  H   UNL     1      80.838   9.594  34.010  0.00  0.00    +0.000 HD
ENDBRANCH  27  33
BRANCH  28  35
ATOM     35  O   UNL     1      81.937  14.187  33.088  0.00  0.00    +0.000 OA
ATOM     36  H   UNL     1      81.576  14.964  32.629  0.00  0.00    +0.000 HD
ENDBRANCH  28  35
BRANCH  29  37
ATOM     37  C   UNL     1      83.534  10.504  35.191  0.00  0.00    +0.000 C 
BRANCH  37  38
ATOM     38  O   UNL     1      82.957  11.232  36.260  0.00  0.00    +0.000 OA
ATOM     39  H   UNL     1      83.682  11.691  36.719  0.00  0.00    +0.000 HD
ENDBRANCH  37  38
ENDBRANCH  29  37
ENDBRANCH  24  30
ENDBRANCH   3  24
TORSDOF 11
ENDMDL
MODEL 7
REMARK VINA RESULT:    -7.987     16.307     19.699
REMARK INTER + INTRA:         -12.545
REMARK INTER:                 -11.323
REMARK INTRA:                  -1.222
REMARK UNBOUND:                -0.822
REMARK  Name = 74978140
REMARK  12 active torsions:
REMARK  status: ('A' for Active; 'I' for Inactive)
REMARK    1  A    between atoms: O_2  and  C_16
REMARK    2  A    between atoms: O_2  and  C_18
REMARK    3  A    between atoms: O_3  and  C_12
REMARK    4  A    between atoms: O_4  and  C_13
REMARK    5  A    between atoms: O_5  and  C_14
REMARK    6  A    between atoms: O_6  and  C_17
REMARK    7  A    between atoms: O_9  and  C_24
REMARK    8  A    between atoms: O_10  and  C_29
REMARK    9  A    between atoms: O_11  and  C_32
REMARK   10  A    between atoms: O_11  and  C_33
REMARK   11  A    between atoms: C_15  and  C_17
REMARK   12  A    between atoms: C_19  and  C_23
REMARK                            x       y       z     vdW  Elec       q    Type
REMARK                         _______ _______ _______ _____ _____    ______ ____
ROOT
ATOM      1  O   UNL     1      81.791  27.696  38.074  0.00  0.00    +0.000 OA
ATOM      2  O   UNL     1      82.378  23.924  36.650  0.00  0.00    +0.000 OA
ATOM      3  C   UNL     1      80.946  25.800  36.832  0.00  0.00    +0.000 A 
ATOM      4  C   UNL     1      80.817  27.041  37.338  0.00  0.00    +0.000 A 
ATOM      5  C   UNL     1      82.203  25.055  37.083  0.00  0.00    +0.000 A 
ATOM      6  C   UNL     1      83.229  25.749  37.876  0.00  0.00    +0.000 A 
ATOM      7  C   UNL     1      82.967  27.040  38.333  0.00  0.00    +0.000 A 
ATOM      8  C   UNL     1      84.446  25.130  38.169  0.00  0.00    +0.000 A 
ATOM      9  C   UNL     1      83.924  27.720  39.086  0.00  0.00    +0.000 A 
ATOM     10  C   UNL     1      85.401  25.813  38.923  0.00  0.00    +0.000 A 
ATOM     11  C   UNL     1      85.141  27.105  39.380  0.00  0.00    +0.000 A 
ENDROOT
BRANCH   4  12
ATOM     12  C   UNL     1      79.607  27.857  37.132  0.00  0.00    +0.000 A 
ATOM     13  C   UNL     1      79.621  28.905  36.212  0.00  0.00    +0.000 A 
ATOM     14  C   UNL     1      78.448  27.581  37.857  0.00  0.00    +0.000 A 
ATOM     15  C   UNL     1      78.475  29.676  36.016  0.00  0.00    +0.000 A 
ATOM     16  C   UNL     1      77.303  28.352  37.661  0.00  0.00    +0.000 A 
ATOM     17  C   UNL     1      77.316  29.400  36.740  0.00  0.00    +0.000 A 
BRANCH  17  18
ATOM     18  O   UNL     1      76.198  30.152  36.550  0.00  0.00    +0.000 OA
ATOM     19  C   UNL     1      74.948  29.552  36.889  0.00  0.00    +0.000 C 
ENDBRANCH  17  18
ENDBRANCH   4  12
BRANCH   8  20
ATOM     20  O   UNL     1      84.751  23.872  37.746  0.00  0.00    +0.000 OA
ATOM     21  H   UNL     1      84.788  23.837  36.778  0.00  0.00    +0.000 HD
ENDBRANCH   8  20
BRANCH  11  22
ATOM     22  O   UNL     1      86.076  27.766  40.116  0.00  0.00    +0.000 OA
ATOM     23  H   UNL     1      85.824  28.704  40.178  0.00  0.00    +0.000 HD
ENDBRANCH  11  22
BRANCH   3  24
ATOM     24  O   UNL     1      79.970  25.191  36.075  0.00  0.00    +0.000 OA
BRANCH  24  30
ATOM     25  O   UNL     1      80.397  24.369  33.919  0.00  0.00    +0.000 OA
ATOM     26  C   UNL     1      78.853  26.482  32.740  0.00  0.00    +0.000 C 
ATOM     27  C   UNL     1      79.317  25.274  31.922  0.00  0.00    +0.000 C 
ATOM     28  C   UNL     1      78.763  26.131  34.225  0.00  0.00    +0.000 C 
ATOM     29  C   UNL     1      80.590  24.671  32.533  0.00  0.00    +0.000 C 
ATOM     30  C   UNL     1      80.086  25.528  34.696  0.00  0.00    +0.000 C 
BRANCH  26  31
ATOM     31  O   UNL     1      77.582  26.910  32.261  0.00  0.00    +0.000 OA
ATOM     32  H   UNL     1      77.042  26.116  32.112  0.00  0.00    +0.000 HD
ENDBRANCH  26  31
BRANCH  27  33
ATOM     33  O   UNL     1      79.590  25.684  30.585  0.00  0.00    +0.000 OA
ATOM     34  H   UNL     1      80.451  25.316  30.326  0.00  0.00    +0.000 HD
ENDBRANCH  27  33
BRANCH  28  35
ATOM     35  O   UNL     1      77.732  25.161  34.427  0.00  0.00    +0.000 OA
ATOM     36  H   UNL     1      77.816  24.806  35.328  0.00  0.00    +0.000 HD
ENDBRANCH  28  35
BRANCH  29  37
ATOM     37  C   UNL     1      80.989  23.376  31.832  0.00  0.00    +0.000 C 
BRANCH  37  38
ATOM     38  O   UNL     1      81.859  23.693  30.761  0.00  0.00    +0.000 OA
ATOM     39  H   UNL     1      81.629  23.107  30.020  0.00  0.00    +0.000 HD
ENDBRANCH  37  38
ENDBRANCH  29  37
ENDBRANCH  24  30
ENDBRANCH   3  24
TORSDOF 11
ENDMDL
MODEL 8
REMARK VINA RESULT:    -7.971      1.733      7.144
REMARK INTER + INTRA:         -12.521
REMARK INTER:                 -11.453
REMARK INTRA:                  -1.068
REMARK UNBOUND:                -0.822
REMARK  Name = 74978140
REMARK  12 active torsions:
REMARK  status: ('A' for Active; 'I' for Inactive)
REMARK    1  A    between atoms: O_2  and  C_16
REMARK    2  A    between atoms: O_2  and  C_18
REMARK    3  A    between atoms: O_3  and  C_12
REMARK    4  A    between atoms: O_4  and  C_13
REMARK    5  A    between atoms: O_5  and  C_14
REMARK    6  A    between atoms: O_6  and  C_17
REMARK    7  A    between atoms: O_9  and  C_24
REMARK    8  A    between atoms: O_10  and  C_29
REMARK    9  A    between atoms: O_11  and  C_32
REMARK   10  A    between atoms: O_11  and  C_33
REMARK   11  A    between atoms: C_15  and  C_17
REMARK   12  A    between atoms: C_19  and  C_23
REMARK                            x       y       z     vdW  Elec       q    Type
REMARK                         _______ _______ _______ _____ _____    ______ ____
ROOT
ATOM      1  O   UNL     1      90.297  14.423  40.627  0.00  0.00    +0.000 OA
ATOM      2  O   UNL     1      93.809  15.057  42.592  0.00  0.00    +0.000 OA
ATOM      3  C   UNL     1      92.713  14.505  40.568  0.00  0.00    +0.000 A 
ATOM      4  C   UNL     1      91.518  14.304  39.984  0.00  0.00    +0.000 A 
ATOM      5  C   UNL     1      92.753  14.863  42.006  0.00  0.00    +0.000 A 
ATOM      6  C   UNL     1      91.455  14.976  42.689  0.00  0.00    +0.000 A 
ATOM      7  C   UNL     1      90.289  14.749  41.959  0.00  0.00    +0.000 A 
ATOM      8  C   UNL     1      91.386  15.306  44.044  0.00  0.00    +0.000 A 
ATOM      9  C   UNL     1      89.045  14.850  42.583  0.00  0.00    +0.000 A 
ATOM     10  C   UNL     1      90.140  15.407  44.665  0.00  0.00    +0.000 A 
ATOM     11  C   UNL     1      88.973  15.180  43.936  0.00  0.00    +0.000 A 
ENDROOT
BRANCH   4  12
ATOM     12  C   UNL     1      91.383  13.952  38.558  0.00  0.00    +0.000 A 
ATOM     13  C   UNL     1      90.917  12.690  38.192  0.00  0.00    +0.000 A 
ATOM     14  C   UNL     1      91.721  14.883  37.576  0.00  0.00    +0.000 A 
ATOM     15  C   UNL     1      90.788  12.358  36.843  0.00  0.00    +0.000 A 
ATOM     16  C   UNL     1      91.593  14.551  36.227  0.00  0.00    +0.000 A 
ATOM     17  C   UNL     1      91.126  13.289  35.861  0.00  0.00    +0.000 A 
BRANCH  17  18
ATOM     18  O   UNL     1      91.001  12.967  34.544  0.00  0.00    +0.000 OA
ATOM     19  C   UNL     1      90.183  11.841  34.228  0.00  0.00    +0.000 C 
ENDBRANCH  17  18
ENDBRANCH   4  12
BRANCH   8  20
ATOM     20  O   UNL     1      92.494  15.539  44.801  0.00  0.00    +0.000 OA
ATOM     21  H   UNL     1      92.519  16.464  45.092  0.00  0.00    +0.000 HD
ENDBRANCH   8  20
BRANCH  11  22
ATOM     22  O   UNL     1      87.760  15.279  44.548  0.00  0.00    +0.000 OA
ATOM     23  H   UNL     1      87.863  15.782  45.373  0.00  0.00    +0.000 HD
ENDBRANCH  11  22
BRANCH   3  24
ATOM     24  O   UNL     1      93.908  14.411  39.889  0.00  0.00    +0.000 OA
BRANCH  24  30
ATOM     25  O   UNL     1      94.557  12.353  38.967  0.00  0.00    +0.000 OA
ATOM     26  C   UNL     1      96.730  12.133  40.830  0.00  0.00    +0.000 C 
ATOM     27  C   UNL     1      96.611  11.202  39.620  0.00  0.00    +0.000 C 
ATOM     28  C   UNL     1      95.998  13.451  40.576  0.00  0.00    +0.000 C 
ATOM     29  C   UNL     1      95.144  11.067  39.190  0.00  0.00    +0.000 C 
ATOM     30  C   UNL     1      94.561  13.170  40.140  0.00  0.00    +0.000 C 
BRANCH  26  31
ATOM     31  O   UNL     1      98.107  12.382  41.096  0.00  0.00    +0.000 OA
ATOM     32  H   UNL     1      98.274  12.141  42.023  0.00  0.00    +0.000 HD
ENDBRANCH  26  31
BRANCH  27  33
ATOM     33  O   UNL     1      97.119   9.915  39.963  0.00  0.00    +0.000 OA
ATOM     34  H   UNL     1      97.576   9.990  40.817  0.00  0.00    +0.000 HD
ENDBRANCH  27  33
BRANCH  28  35
ATOM     35  O   UNL     1      96.653  14.167  39.523  0.00  0.00    +0.000 OA
ATOM     36  H   UNL     1      96.021  14.287  38.795  0.00  0.00    +0.000 HD
ENDBRANCH  28  35
BRANCH  29  37
ATOM     37  C   UNL     1      95.011  10.270  37.896  0.00  0.00    +0.000 C 
BRANCH  37  38
ATOM     38  O   UNL     1      93.781  10.612  37.282  0.00  0.00    +0.000 OA
ATOM     39  H   UNL     1      93.334   9.779  37.052  0.00  0.00    +0.000 HD
ENDBRANCH  37  38
ENDBRANCH  29  37
ENDBRANCH  24  30
ENDBRANCH   3  24
TORSDOF 11
ENDMDL
MODEL 9
REMARK VINA RESULT:    -7.806      1.773      6.054
REMARK INTER + INTRA:         -12.279
REMARK INTER:                 -11.829
REMARK INTRA:                  -0.450
REMARK UNBOUND:                -0.822
REMARK  Name = 74978140
REMARK  12 active torsions:
REMARK  status: ('A' for Active; 'I' for Inactive)
REMARK    1  A    between atoms: O_2  and  C_16
REMARK    2  A    between atoms: O_2  and  C_18
REMARK    3  A    between atoms: O_3  and  C_12
REMARK    4  A    between atoms: O_4  and  C_13
REMARK    5  A    between atoms: O_5  and  C_14
REMARK    6  A    between atoms: O_6  and  C_17
REMARK    7  A    between atoms: O_9  and  C_24
REMARK    8  A    between atoms: O_10  and  C_29
REMARK    9  A    between atoms: O_11  and  C_32
REMARK   10  A    between atoms: O_11  and  C_33
REMARK   11  A    between atoms: C_15  and  C_17
REMARK   12  A    between atoms: C_19  and  C_23
REMARK                            x       y       z     vdW  Elec       q    Type
REMARK                         _______ _______ _______ _____ _____    ______ ____
ROOT
ATOM      1  O   UNL     1      94.170  12.334  38.849  0.00  0.00    +0.000 OA
ATOM      2  O   UNL     1      94.184  14.352  42.388  0.00  0.00    +0.000 OA
ATOM      3  C   UNL     1      93.140  13.973  40.298  0.00  0.00    +0.000 A 
ATOM      4  C   UNL     1      93.199  13.276  39.149  0.00  0.00    +0.000 A 
ATOM      5  C   UNL     1      94.185  13.747  41.325  0.00  0.00    +0.000 A 
ATOM      6  C   UNL     1      95.221  12.756  40.997  0.00  0.00    +0.000 A 
ATOM      7  C   UNL     1      95.159  12.098  39.769  0.00  0.00    +0.000 A 
ATOM      8  C   UNL     1      96.251  12.474  41.896  0.00  0.00    +0.000 A 
ATOM      9  C   UNL     1      96.129  11.153  39.435  0.00  0.00    +0.000 A 
ATOM     10  C   UNL     1      97.220  11.528  41.559  0.00  0.00    +0.000 A 
ATOM     11  C   UNL     1      97.159  10.869  40.331  0.00  0.00    +0.000 A 
ENDROOT
BRANCH   4  12
ATOM     12  C   UNL     1      92.199  13.430  38.077  0.00  0.00    +0.000 A 
ATOM     13  C   UNL     1      92.522  14.133  36.917  0.00  0.00    +0.000 A 
ATOM     14  C   UNL     1      90.929  12.873  38.224  0.00  0.00    +0.000 A 
ATOM     15  C   UNL     1      91.576  14.277  35.902  0.00  0.00    +0.000 A 
ATOM     16  C   UNL     1      89.983  13.017  37.210  0.00  0.00    +0.000 A 
ATOM     17  C   UNL     1      90.306  13.719  36.048  0.00  0.00    +0.000 A 
BRANCH  17  18
ATOM     18  O   UNL     1      89.382  13.859  35.059  0.00  0.00    +0.000 OA
ATOM     19  C   UNL     1      88.752  12.668  34.587  0.00  0.00    +0.000 C 
ENDBRANCH  17  18
ENDBRANCH   4  12
BRANCH   8  20
ATOM     20  O   UNL     1      96.357  13.087  43.108  0.00  0.00    +0.000 OA
ATOM     21  H   UNL     1      96.172  14.036  43.027  0.00  0.00    +0.000 HD
ENDBRANCH   8  20
BRANCH  11  22
ATOM     22  O   UNL     1      98.107   9.947  40.007  0.00  0.00    +0.000 OA
ATOM     23  H   UNL     1      97.759   9.058  40.191  0.00  0.00    +0.000 HD
ENDBRANCH  11  22
BRANCH   3  24
ATOM     24  O   UNL     1      92.140  14.878  40.578  0.00  0.00    +0.000 OA
BRANCH  24  30
ATOM     25  O   UNL     1      91.466  15.966  42.546  0.00  0.00    +0.000 OA
ATOM     26  C   UNL     1      89.683  13.812  43.198  0.00  0.00    +0.000 C 
ATOM     27  C   UNL     1      89.640  15.147  43.948  0.00  0.00    +0.000 C 
ATOM     28  C   UNL     1      90.273  13.993  41.799  0.00  0.00    +0.000 C 
ATOM     29  C   UNL     1      91.011  15.835  43.897  0.00  0.00    +0.000 C 
ATOM     30  C   UNL     1      91.623  14.703  41.894  0.00  0.00    +0.000 C 
BRANCH  26  31
ATOM     31  O   UNL     1      88.364  13.283  43.109  0.00  0.00    +0.000 OA
ATOM     32  H   UNL     1      88.202  13.057  42.177  0.00  0.00    +0.000 HD
ENDBRANCH  26  31
BRANCH  27  33
ATOM     33  O   UNL     1      89.285  14.913  45.308  0.00  0.00    +0.000 OA
ATOM     34  H   UNL     1      89.988  15.280  45.870  0.00  0.00    +0.000 HD
ENDBRANCH  27  33
BRANCH  28  35
ATOM     35  O   UNL     1      89.395  14.804  41.011  0.00  0.00    +0.000 OA
ATOM     36  H   UNL     1      89.936  15.379  40.444  0.00  0.00    +0.000 HD
ENDBRANCH  28  35
BRANCH  29  37
ATOM     37  C   UNL     1      90.958  17.235  44.501  0.00  0.00    +0.000 C 
BRANCH  37  38
ATOM     38  O   UNL     1      90.549  18.144  43.496  0.00  0.00    +0.000 OA
ATOM     39  H   UNL     1      90.333  18.983  43.938  0.00  0.00    +0.000 HD
ENDBRANCH  37  38
ENDBRANCH  29  37
ENDBRANCH  24  30
ENDBRANCH   3  24
TORSDOF 11
ENDMDL
MODEL 10
REMARK VINA RESULT:    -7.719     10.220     13.933
REMARK INTER + INTRA:         -12.152
REMARK INTER:                 -11.330
REMARK INTRA:                  -0.822
REMARK UNBOUND:                -0.822
REMARK  Name = 74978140
REMARK  12 active torsions:
REMARK  status: ('A' for Active; 'I' for Inactive)
REMARK    1  A    between atoms: O_2  and  C_16
REMARK    2  A    between atoms: O_2  and  C_18
REMARK    3  A    between atoms: O_3  and  C_12
REMARK    4  A    between atoms: O_4  and  C_13
REMARK    5  A    between atoms: O_5  and  C_14
REMARK    6  A    between atoms: O_6  and  C_17
REMARK    7  A    between atoms: O_9  and  C_24
REMARK    8  A    between atoms: O_10  and  C_29
REMARK    9  A    between atoms: O_11  and  C_32
REMARK   10  A    between atoms: O_11  and  C_33
REMARK   11  A    between atoms: C_15  and  C_17
REMARK   12  A    between atoms: C_19  and  C_23
REMARK                            x       y       z     vdW  Elec       q    Type
REMARK                         _______ _______ _______ _____ _____    ______ ____
ROOT
ATOM      1  O   UNL     1      84.369  14.151  29.366  0.00  0.00    +0.000 OA
ATOM      2  O   UNL     1      80.673  12.640  30.173  0.00  0.00    +0.000 OA
ATOM      3  C   UNL     1      83.021  12.396  30.342  0.00  0.00    +0.000 A 
ATOM      4  C   UNL     1      84.209  12.949  30.037  0.00  0.00    +0.000 A 
ATOM      5  C   UNL     1      81.781  13.094  29.925  0.00  0.00    +0.000 A 
ATOM      6  C   UNL     1      81.956  14.363  29.201  0.00  0.00    +0.000 A 
ATOM      7  C   UNL     1      83.248  14.827  28.959  0.00  0.00    +0.000 A 
ATOM      8  C   UNL     1      80.850  15.094  28.764  0.00  0.00    +0.000 A 
ATOM      9  C   UNL     1      83.440  16.027  28.275  0.00  0.00    +0.000 A 
ATOM     10  C   UNL     1      81.045  16.295  28.080  0.00  0.00    +0.000 A 
ATOM     11  C   UNL     1      82.337  16.760  27.837  0.00  0.00    +0.000 A 
ENDROOT
BRANCH   4  12
ATOM     12  C   UNL     1      85.492  12.330  30.419  0.00  0.00    +0.000 A 
ATOM     13  C   UNL     1      86.165  11.508  29.516  0.00  0.00    +0.000 A 
ATOM     14  C   UNL     1      86.032  12.567  31.682  0.00  0.00    +0.000 A 
ATOM     15  C   UNL     1      87.379  10.923  29.876  0.00  0.00    +0.000 A 
ATOM     16  C   UNL     1      87.245  11.983  32.043  0.00  0.00    +0.000 A 
ATOM     17  C   UNL     1      87.920  11.161  31.140  0.00  0.00    +0.000 A 
BRANCH  17  18
ATOM     18  O   UNL     1      89.104  10.591  31.493  0.00  0.00    +0.000 OA
ATOM     19  C   UNL     1      89.525  10.754  32.847  0.00  0.00    +0.000 C 
ENDBRANCH  17  18
ENDBRANCH   4  12
BRANCH   8  20
ATOM     20  O   UNL     1      79.568  14.686  28.977  0.00  0.00    +0.000 OA
ATOM     21  H   UNL     1      79.088  15.336  29.512  0.00  0.00    +0.000 HD
ENDBRANCH   8  20
BRANCH  11  22
ATOM     22  O   UNL     1      82.523  17.932  27.169  0.00  0.00    +0.000 OA
ATOM     23  H   UNL     1      83.458  18.190  27.237  0.00  0.00    +0.000 HD
ENDBRANCH  11  22
BRANCH   3  24
ATOM     24  O   UNL     1      82.898  11.216  31.041  0.00  0.00    +0.000 OA
BRANCH  24  30
ATOM     25  O   UNL     1      81.213  10.273  32.375  0.00  0.00    +0.000 OA
ATOM     26  C   UNL     1      82.210  11.629  34.701  0.00  0.00    +0.000 C 
ATOM     27  C   UNL     1      81.160  10.520  34.806  0.00  0.00    +0.000 C 
ATOM     28  C   UNL     1      83.036  11.477  33.423  0.00  0.00    +0.000 C 
ATOM     29  C   UNL     1      80.348  10.425  33.506  0.00  0.00    +0.000 C 
ATOM     30  C   UNL     1      82.106  11.378  32.214  0.00  0.00    +0.000 C 
BRANCH  26  31
ATOM     31  O   UNL     1      83.060  11.578  35.842  0.00  0.00    +0.000 OA
ATOM     32  H   UNL     1      82.706  12.200  36.499  0.00  0.00    +0.000 HD
ENDBRANCH  26  31
BRANCH  27  33
ATOM     33  O   UNL     1      80.277  10.805  35.888  0.00  0.00    +0.000 OA
ATOM     34  H   UNL     1      80.814  11.092  36.646  0.00  0.00    +0.000 HD
ENDBRANCH  27  33
BRANCH  28  35
ATOM     35  O   UNL     1      83.809  10.275  33.493  0.00  0.00    +0.000 OA
ATOM     36  H   UNL     1      83.908  10.027  34.428  0.00  0.00    +0.000 HD
ENDBRANCH  28  35
BRANCH  29  37
ATOM     37  C   UNL     1      79.400   9.230  33.523  0.00  0.00    +0.000 C 
BRANCH  37  38
ATOM     38  O   UNL     1      79.659   8.434  32.381  0.00  0.00    +0.000 OA
ATOM     39  H   UNL     1      79.594   9.016  31.605  0.00  0.00    +0.000 HD
ENDBRANCH  37  38
ENDBRANCH  29  37
ENDBRANCH  24  30
ENDBRANCH   3  24
TORSDOF 11
ENDMDL
