MODEL 1
REMARK VINA RESULT:     -10.9      0.000      0.000
REMARK  13 active torsions:
REMARK  status: ('A' for Active; 'I' for Inactive)
REMARK    1  A    between atoms: C_4  and  O_5 
REMARK    2  A    between atoms: C_17  and  O_18 
REMARK    3  A    between atoms: C_30  and  O_31 
REMARK    4  A    between atoms: C_43  and  C_44 
REMARK    5  A    between atoms: O_5  and  C_6 
REMARK    6  A    between atoms: C_6  and  C_8 
REMARK    7  A    between atoms: O_18  and  C_19 
REMARK    8  A    between atoms: C_19  and  C_21 
REMARK    9  A    between atoms: O_31  and  C_32 
REMARK   10  A    between atoms: C_32  and  C_34 
REMARK   11  A    between atoms: C_44  and  O_45 
REMARK   12  A    between atoms: O_45  and  C_46 
REMARK   13  A    between atoms: C_46  and  C_48 
ROOT
ATOM      1  O   LIG     1     153.728 152.742 149.172  0.00  0.00    -0.320 OA
ATOM      2  C   LIG     1     153.420 153.282 150.473  0.00  0.00     0.313 C 
ATOM      3  O   LIG     1     154.601 153.931 150.927  0.00  0.00    -0.186 OA
ATOM      4  C   LIG     1     152.227 154.279 150.405  0.00  0.00     0.271 C 
ATOM      5  C   LIG     1     151.007 153.570 149.743  0.00  0.00     0.256 C 
ATOM      6  C   LIG     1     151.399 152.923 148.382  0.00  0.00     0.243 C 
ATOM      7  C   LIG     1     152.650 152.003 148.556  0.00  0.00     0.205 C 
ENDROOT
BRANCH   7   8
ATOM      8  C   LIG     1     153.164 151.444 147.203  0.00  0.00     0.242 C 
BRANCH   8   9
ATOM      9  O   LIG     1     153.390 152.484 146.235  0.00  0.00    -0.443 OA
BRANCH   9  10
ATOM     10  C   LIG     1     153.748 152.303 144.921  0.00  0.00     0.341 C 
ATOM     11  O   LIG     1     154.509 153.144 144.382  0.00  0.00    -0.245 OA
BRANCH  10  12
ATOM     12  C   LIG     1     153.282 151.175 144.184  0.00  0.00     0.082 A 
ATOM     13  C   LIG     1     151.996 151.181 143.592  0.00  0.00     0.052 A 
ATOM     14  C   LIG     1     151.512 150.062 142.886  0.00  0.00     0.238 A 
ATOM     15  O   LIG     1     150.259 150.117 142.365  0.00  0.00    -0.283 OA
ATOM     16  C   LIG     1     152.320 148.916 142.736  0.00  0.00     0.273 A 
ATOM     17  O   LIG     1     151.848 147.847 142.041  0.00  0.00    -0.280 OA
ATOM     18  C   LIG     1     153.608 148.893 143.310  0.00  0.00     0.238 A 
ATOM     19  O   LIG     1     154.390 147.792 143.172  0.00  0.00    -0.283 OA
ATOM     20  C   LIG     1     154.077 150.011 144.029  0.00  0.00     0.052 A 
ENDBRANCH  10  12
ENDBRANCH   9  10
ENDBRANCH   8   9
ENDBRANCH   7   8
BRANCH   6  21
ATOM     21  O   LIG     1     150.289 152.144 147.896  0.00  0.00    -0.443 OA
BRANCH  21  22
ATOM     22  C   LIG     1     149.746 152.071 146.642  0.00  0.00     0.341 C 
ATOM     23  O   LIG     1     149.629 153.179 146.071  0.00  0.00    -0.245 OA
BRANCH  22  24
ATOM     24  C   LIG     1     149.264 150.901 145.998  0.00  0.00     0.082 A 
ATOM     25  C   LIG     1     149.853 149.639 146.236  0.00  0.00     0.052 A 
ATOM     26  C   LIG     1     149.349 148.468 145.636  0.00  0.00     0.238 A 
ATOM     27  C   LIG     1     148.222 148.547 144.798  0.00  0.00     0.273 A 
ATOM     28  O   LIG     1     149.937 147.263 145.866  0.00  0.00    -0.283 OA
ATOM     29  C   LIG     1     147.626 149.797 144.536  0.00  0.00     0.238 A 
ATOM     30  O   LIG     1     147.711 147.419 144.250  0.00  0.00    -0.280 OA
ATOM     31  O   LIG     1     146.554 149.878 143.708  0.00  0.00    -0.283 OA
ATOM     32  C   LIG     1     148.146 150.964 145.131  0.00  0.00     0.052 A 
ENDBRANCH  22  24
ENDBRANCH  21  22
ENDBRANCH   6  21
BRANCH   5  33
ATOM     33  O   LIG     1     149.929 154.489 149.491  0.00  0.00    -0.441 OA
BRANCH  33  34
ATOM     34  C   LIG     1     148.761 154.596 150.187  0.00  0.00     0.342 C 
ATOM     35  O   LIG     1     148.589 153.728 151.074  0.00  0.00    -0.245 OA
BRANCH  34  36
ATOM     36  C   LIG     1     147.848 155.676 150.042  0.00  0.00     0.082 A 
ATOM     37  C   LIG     1     148.251 156.988 150.533  0.00  0.00     0.052 A 
ATOM     38  C   LIG     1     147.388 158.081 150.312  0.00  0.00     0.238 A 
ATOM     39  O   LIG     1     147.763 159.310 150.748  0.00  0.00    -0.283 OA
ATOM     40  C   LIG     1     146.150 157.940 149.644  0.00  0.00     0.273 A 
ATOM     41  O   LIG     1     145.368 159.034 149.448  0.00  0.00    -0.280 OA
ATOM     42  C   LIG     1     145.758 156.613 149.199  0.00  0.00     0.238 A 
ATOM     43  C   LIG     1     146.586 155.409 149.376  0.00  0.00     0.052 A 
ATOM     44  O   LIG     1     144.505 156.595 148.579  0.00  0.00    -0.283 OA
ENDBRANCH  34  36
ENDBRANCH  33  34
ENDBRANCH   5  33
BRANCH   4  45
ATOM     45  O   LIG     1     151.842 154.751 151.710  0.00  0.00    -0.440 OA
BRANCH  45  46
ATOM     46  C   LIG     1     152.408 155.769 152.426  0.00  0.00     0.342 C 
ATOM     47  O   LIG     1     152.549 155.539 153.648  0.00  0.00    -0.245 OA
BRANCH  46  48
ATOM     48  C   LIG     1     152.724 157.048 151.885  0.00  0.00     0.082 A 
ATOM     49  C   LIG     1     154.060 157.505 151.809  0.00  0.00     0.052 A 
ATOM     50  C   LIG     1     154.379 158.757 151.246  0.00  0.00     0.238 A 
ATOM     51  O   LIG     1     155.674 159.159 151.185  0.00  0.00    -0.283 OA
ATOM     52  C   LIG     1     153.353 159.584 150.742  0.00  0.00     0.273 A 
ATOM     53  O   LIG     1     153.634 160.781 150.162  0.00  0.00    -0.280 OA
ATOM     54  C   LIG     1     152.013 159.159 150.829  0.00  0.00     0.238 A 
ATOM     55  O   LIG     1     151.000 159.944 150.379  0.00  0.00    -0.283 OA
ATOM     56  C   LIG     1     151.707 157.902 151.386  0.00  0.00     0.052 A 
ENDBRANCH  46  48
ENDBRANCH  45  46
ENDBRANCH   4  45
TORSDOF 13
ENDMDL
MODEL 2
REMARK VINA RESULT:     -10.9      1.137      2.328
REMARK  13 active torsions:
REMARK  status: ('A' for Active; 'I' for Inactive)
REMARK    1  A    between atoms: C_4  and  O_5 
REMARK    2  A    between atoms: C_17  and  O_18 
REMARK    3  A    between atoms: C_30  and  O_31 
REMARK    4  A    between atoms: C_43  and  C_44 
REMARK    5  A    between atoms: O_5  and  C_6 
REMARK    6  A    between atoms: C_6  and  C_8 
REMARK    7  A    between atoms: O_18  and  C_19 
REMARK    8  A    between atoms: C_19  and  C_21 
REMARK    9  A    between atoms: O_31  and  C_32 
REMARK   10  A    between atoms: C_32  and  C_34 
REMARK   11  A    between atoms: C_44  and  O_45 
REMARK   12  A    between atoms: O_45  and  C_46 
REMARK   13  A    between atoms: C_46  and  C_48 
ROOT
ATOM      1  O   LIG     1     153.487 152.830 148.688  0.00  0.00    -0.320 OA
ATOM      2  C   LIG     1     153.262 153.271 150.041  0.00  0.00     0.313 C 
ATOM      3  O   LIG     1     154.485 153.843 150.485  0.00  0.00    -0.186 OA
ATOM      4  C   LIG     1     152.103 154.307 150.115  0.00  0.00     0.271 C 
ATOM      5  C   LIG     1     150.828 153.694 149.462  0.00  0.00     0.256 C 
ATOM      6  C   LIG     1     151.130 153.148 148.034  0.00  0.00     0.243 C 
ATOM      7  C   LIG     1     152.355 152.178 148.070  0.00  0.00     0.205 C 
ENDROOT
BRANCH   7   8
ATOM      8  C   LIG     1     152.782 151.716 146.652  0.00  0.00     0.242 C 
BRANCH   8   9
ATOM      9  O   LIG     1     152.985 150.293 146.581  0.00  0.00    -0.443 OA
BRANCH   9  10
ATOM     10  C   LIG     1     153.087 149.546 145.433  0.00  0.00     0.341 C 
ATOM     11  O   LIG     1     154.149 149.609 144.765  0.00  0.00    -0.245 OA
BRANCH  10  12
ATOM     12  C   LIG     1     152.019 148.702 145.011  0.00  0.00     0.082 A 
ATOM     13  C   LIG     1     150.881 148.510 145.833  0.00  0.00     0.052 A 
ATOM     14  C   LIG     1     149.833 147.655 145.441  0.00  0.00     0.238 A 
ATOM     15  O   LIG     1     148.782 147.490 146.285  0.00  0.00    -0.283 OA
ATOM     16  C   LIG     1     149.889 146.989 144.199  0.00  0.00     0.273 A 
ATOM     17  O   LIG     1     148.865 146.177 143.825  0.00  0.00    -0.280 OA
ATOM     18  C   LIG     1     151.008 147.172 143.362  0.00  0.00     0.238 A 
ATOM     19  O   LIG     1     151.071 146.532 142.166  0.00  0.00    -0.283 OA
ATOM     20  C   LIG     1     152.061 148.017 143.770  0.00  0.00     0.052 A 
ENDBRANCH  10  12
ENDBRANCH   9  10
ENDBRANCH   8   9
ENDBRANCH   7   8
BRANCH   6  21
ATOM     21  O   LIG     1     149.971 152.447 147.545  0.00  0.00    -0.443 OA
BRANCH  21  22
ATOM     22  C   LIG     1     149.204 152.678 146.436  0.00  0.00     0.341 C 
ATOM     23  O   LIG     1     148.578 153.762 146.465  0.00  0.00    -0.245 OA
BRANCH  22  24
ATOM     24  C   LIG     1     149.020 151.795 145.338  0.00  0.00     0.082 A 
ATOM     25  C   LIG     1     147.878 150.969 145.247  0.00  0.00     0.052 A 
ATOM     26  C   LIG     1     147.667 150.126 144.138  0.00  0.00     0.238 A 
ATOM     27  C   LIG     1     148.600 150.120 143.085  0.00  0.00     0.273 A 
ATOM     28  O   LIG     1     146.569 149.327 144.073  0.00  0.00    -0.283 OA
ATOM     29  C   LIG     1     149.753 150.926 143.160  0.00  0.00     0.238 A 
ATOM     30  O   LIG     1     148.382 149.340 141.999  0.00  0.00    -0.280 OA
ATOM     31  O   LIG     1     150.665 150.902 142.156  0.00  0.00    -0.283 OA
ATOM     32  C   LIG     1     149.960 151.756 144.281  0.00  0.00     0.052 A 
ENDBRANCH  22  24
ENDBRANCH  21  22
ENDBRANCH   6  21
BRANCH   5  33
ATOM     33  O   LIG     1     149.772 154.664 149.340  0.00  0.00    -0.441 OA
BRANCH  33  34
ATOM     34  C   LIG     1     148.617 154.716 150.063  0.00  0.00     0.342 C 
ATOM     35  O   LIG     1     148.493 153.823 150.932  0.00  0.00    -0.245 OA
BRANCH  34  36
ATOM     36  C   LIG     1     147.665 155.767 149.963  0.00  0.00     0.082 A 
ATOM     37  C   LIG     1     148.063 157.098 150.405  0.00  0.00     0.052 A 
ATOM     38  C   LIG     1     147.156 158.163 150.226  0.00  0.00     0.238 A 
ATOM     39  O   LIG     1     147.525 159.409 150.616  0.00  0.00    -0.283 OA
ATOM     40  C   LIG     1     145.881 157.977 149.645  0.00  0.00     0.273 A 
ATOM     41  O   LIG     1     145.057 159.045 149.485  0.00  0.00    -0.280 OA
ATOM     42  C   LIG     1     145.499 156.632 149.248  0.00  0.00     0.238 A 
ATOM     43  C   LIG     1     146.370 155.454 149.387  0.00  0.00     0.052 A 
ATOM     44  O   LIG     1     144.208 156.568 148.714  0.00  0.00    -0.283 OA
ENDBRANCH  34  36
ENDBRANCH  33  34
ENDBRANCH   5  33
BRANCH   4  45
ATOM     45  O   LIG     1     151.798 154.682 151.472  0.00  0.00    -0.440 OA
BRANCH  45  46
ATOM     46  C   LIG     1     152.349 155.705 152.194  0.00  0.00     0.342 C 
ATOM     47  O   LIG     1     152.516 155.460 153.411  0.00  0.00    -0.245 OA
BRANCH  46  48
ATOM     48  C   LIG     1     152.621 157.000 151.668  0.00  0.00     0.082 A 
ATOM     49  C   LIG     1     151.577 157.861 151.258  0.00  0.00     0.052 A 
ATOM     50  C   LIG     1     151.840 159.156 150.767  0.00  0.00     0.238 A 
ATOM     51  O   LIG     1     150.812 159.956 150.389  0.00  0.00    -0.283 OA
ATOM     52  C   LIG     1     153.171 159.617 150.677  0.00  0.00     0.273 A 
ATOM     53  O   LIG     1     153.453 160.873 150.240  0.00  0.00    -0.280 OA
ATOM     54  C   LIG     1     154.228 158.767 151.058  0.00  0.00     0.238 A 
ATOM     55  O   LIG     1     155.521 159.171 150.956  0.00  0.00    -0.283 OA
ATOM     56  C   LIG     1     153.951 157.478 151.556  0.00  0.00     0.052 A 
ENDBRANCH  46  48
ENDBRANCH  45  46
ENDBRANCH   4  45
TORSDOF 13
ENDMDL
MODEL 3
REMARK VINA RESULT:     -10.8      0.204      1.594
REMARK  13 active torsions:
REMARK  status: ('A' for Active; 'I' for Inactive)
REMARK    1  A    between atoms: C_4  and  O_5 
REMARK    2  A    between atoms: C_17  and  O_18 
REMARK    3  A    between atoms: C_30  and  O_31 
REMARK    4  A    between atoms: C_43  and  C_44 
REMARK    5  A    between atoms: O_5  and  C_6 
REMARK    6  A    between atoms: C_6  and  C_8 
REMARK    7  A    between atoms: O_18  and  C_19 
REMARK    8  A    between atoms: C_19  and  C_21 
REMARK    9  A    between atoms: O_31  and  C_32 
REMARK   10  A    between atoms: C_32  and  C_34 
REMARK   11  A    between atoms: C_44  and  O_45 
REMARK   12  A    between atoms: O_45  and  C_46 
REMARK   13  A    between atoms: C_46  and  C_48 
ROOT
ATOM      1  O   LIG     1     153.634 152.674 149.135  0.00  0.00    -0.320 OA
ATOM      2  C   LIG     1     153.303 153.266 150.407  0.00  0.00     0.313 C 
ATOM      3  O   LIG     1     154.483 153.911 150.869  0.00  0.00    -0.186 OA
ATOM      4  C   LIG     1     152.130 154.280 150.272  0.00  0.00     0.271 C 
ATOM      5  C   LIG     1     150.915 153.569 149.604  0.00  0.00     0.256 C 
ATOM      6  C   LIG     1     151.330 152.865 148.277  0.00  0.00     0.243 C 
ATOM      7  C   LIG     1     152.560 151.931 148.517  0.00  0.00     0.205 C 
ENDROOT
BRANCH   7   8
ATOM      8  C   LIG     1     153.098 151.314 147.200  0.00  0.00     0.242 C 
BRANCH   8   9
ATOM      9  O   LIG     1     153.173 152.282 146.137  0.00  0.00    -0.443 OA
BRANCH   9  10
ATOM     10  C   LIG     1     153.643 152.053 144.866  0.00  0.00     0.341 C 
ATOM     11  O   LIG     1     154.472 152.859 144.376  0.00  0.00    -0.245 OA
BRANCH  10  12
ATOM     12  C   LIG     1     153.215 150.916 144.121  0.00  0.00     0.082 A 
ATOM     13  C   LIG     1     151.936 150.890 143.513  0.00  0.00     0.052 A 
ATOM     14  C   LIG     1     151.490 149.761 142.799  0.00  0.00     0.238 A 
ATOM     15  O   LIG     1     150.242 149.786 142.262  0.00  0.00    -0.283 OA
ATOM     16  C   LIG     1     152.329 148.636 142.656  0.00  0.00     0.273 A 
ATOM     17  O   LIG     1     151.894 147.558 141.952  0.00  0.00    -0.280 OA
ATOM     18  C   LIG     1     153.610 148.645 143.246  0.00  0.00     0.238 A 
ATOM     19  O   LIG     1     154.421 147.565 143.115  0.00  0.00    -0.283 OA
ATOM     20  C   LIG     1     154.041 149.773 143.973  0.00  0.00     0.052 A 
ENDBRANCH  10  12
ENDBRANCH   9  10
ENDBRANCH   8   9
ENDBRANCH   7   8
BRANCH   6  21
ATOM     21  O   LIG     1     150.220 152.088 147.790  0.00  0.00    -0.443 OA
BRANCH  21  22
ATOM     22  C   LIG     1     149.709 151.977 146.526  0.00  0.00     0.341 C 
ATOM     23  O   LIG     1     149.705 153.050 145.881  0.00  0.00    -0.245 OA
BRANCH  22  24
ATOM     24  C   LIG     1     149.147 150.810 145.942  0.00  0.00     0.082 A 
ATOM     25  C   LIG     1     148.071 150.893 145.031  0.00  0.00     0.052 A 
ATOM     26  C   LIG     1     147.541 149.743 144.413  0.00  0.00     0.238 A 
ATOM     27  C   LIG     1     148.106 148.485 144.689  0.00  0.00     0.273 A 
ATOM     28  O   LIG     1     146.496 149.840 143.549  0.00  0.00    -0.283 OA
ATOM     29  C   LIG     1     149.172 148.376 145.606  0.00  0.00     0.238 A 
ATOM     30  O   LIG     1     147.625 147.382 144.069  0.00  0.00    -0.280 OA
ATOM     31  O   LIG     1     149.701 147.160 145.891  0.00  0.00    -0.283 OA
ATOM     32  C   LIG     1     149.685 149.532 146.227  0.00  0.00     0.052 A 
ENDBRANCH  22  24
ENDBRANCH  21  22
ENDBRANCH   6  21
BRANCH   5  33
ATOM     33  O   LIG     1     149.860 154.496 149.290  0.00  0.00    -0.441 OA
BRANCH  33  34
ATOM     34  C   LIG     1     148.718 154.712 150.003  0.00  0.00     0.342 C 
ATOM     35  O   LIG     1     148.498 153.886 150.917  0.00  0.00    -0.245 OA
BRANCH  34  36
ATOM     36  C   LIG     1     147.887 155.855 149.841  0.00  0.00     0.082 A 
ATOM     37  C   LIG     1     146.589 155.674 149.203  0.00  0.00     0.052 A 
ATOM     38  C   LIG     1     145.723 156.784 149.120  0.00  0.00     0.238 A 
ATOM     39  O   LIG     1     144.505 156.622 148.545  0.00  0.00    -0.283 OA
ATOM     40  C   LIG     1     146.078 158.056 149.624  0.00  0.00     0.273 A 
ATOM     41  O   LIG     1     145.195 159.084 149.528  0.00  0.00    -0.280 OA
ATOM     42  C   LIG     1     147.394 158.214 150.222  0.00  0.00     0.238 A 
ATOM     43  C   LIG     1     148.370 157.121 150.361  0.00  0.00     0.052 A 
ATOM     44  O   LIG     1     147.641 159.519 150.658  0.00  0.00    -0.283 OA
ENDBRANCH  34  36
ENDBRANCH  33  34
ENDBRANCH   5  33
BRANCH   4  45
ATOM     45  O   LIG     1     151.720 154.806 151.548  0.00  0.00    -0.440 OA
BRANCH  45  46
ATOM     46  C   LIG     1     152.336 155.782 152.281  0.00  0.00     0.342 C 
ATOM     47  O   LIG     1     152.513 155.502 153.489  0.00  0.00    -0.245 OA
BRANCH  46  48
ATOM     48  C   LIG     1     152.665 157.073 151.778  0.00  0.00     0.082 A 
ATOM     49  C   LIG     1     154.006 157.520 151.722  0.00  0.00     0.052 A 
ATOM     50  C   LIG     1     154.338 158.785 151.196  0.00  0.00     0.238 A 
ATOM     51  O   LIG     1     155.637 159.177 151.152  0.00  0.00    -0.283 OA
ATOM     52  C   LIG     1     153.322 159.635 150.711  0.00  0.00     0.273 A 
ATOM     53  O   LIG     1     153.616 160.845 150.167  0.00  0.00    -0.280 OA
ATOM     54  C   LIG     1     151.977 159.219 150.780  0.00  0.00     0.238 A 
ATOM     55  O   LIG     1     150.974 160.026 150.347  0.00  0.00    -0.283 OA
ATOM     56  C   LIG     1     151.658 157.949 151.299  0.00  0.00     0.052 A 
ENDBRANCH  46  48
ENDBRANCH  45  46
ENDBRANCH   4  45
TORSDOF 13
ENDMDL
MODEL 4
REMARK VINA RESULT:     -10.8      0.164      1.591
REMARK  13 active torsions:
REMARK  status: ('A' for Active; 'I' for Inactive)
REMARK    1  A    between atoms: C_4  and  O_5 
REMARK    2  A    between atoms: C_17  and  O_18 
REMARK    3  A    between atoms: C_30  and  O_31 
REMARK    4  A    between atoms: C_43  and  C_44 
REMARK    5  A    between atoms: O_5  and  C_6 
REMARK    6  A    between atoms: C_6  and  C_8 
REMARK    7  A    between atoms: O_18  and  C_19 
REMARK    8  A    between atoms: C_19  and  C_21 
REMARK    9  A    between atoms: O_31  and  C_32 
REMARK   10  A    between atoms: C_32  and  C_34 
REMARK   11  A    between atoms: C_44  and  O_45 
REMARK   12  A    between atoms: O_45  and  C_46 
REMARK   13  A    between atoms: C_46  and  C_48 
ROOT
ATOM      1  O   LIG     1     153.623 152.682 149.160  0.00  0.00    -0.320 OA
ATOM      2  C   LIG     1     153.292 153.276 150.431  0.00  0.00     0.313 C 
ATOM      3  O   LIG     1     154.475 153.915 150.894  0.00  0.00    -0.186 OA
ATOM      4  C   LIG     1     152.125 154.295 150.293  0.00  0.00     0.271 C 
ATOM      5  C   LIG     1     150.907 153.590 149.623  0.00  0.00     0.256 C 
ATOM      6  C   LIG     1     151.322 152.884 148.298  0.00  0.00     0.243 C 
ATOM      7  C   LIG     1     152.546 151.944 148.540  0.00  0.00     0.205 C 
ENDROOT
BRANCH   7   8
ATOM      8  C   LIG     1     153.083 151.324 147.223  0.00  0.00     0.242 C 
BRANCH   8   9
ATOM      9  O   LIG     1     153.672 152.312 146.358  0.00  0.00    -0.443 OA
BRANCH   9  10
ATOM     10  C   LIG     1     153.864 152.189 145.003  0.00  0.00     0.341 C 
ATOM     11  O   LIG     1     154.542 153.063 144.409  0.00  0.00    -0.245 OA
BRANCH  10  12
ATOM     12  C   LIG     1     153.321 151.085 144.283  0.00  0.00     0.082 A 
ATOM     13  C   LIG     1     154.042 149.871 144.171  0.00  0.00     0.052 A 
ATOM     14  C   LIG     1     153.530 148.783 143.438  0.00  0.00     0.238 A 
ATOM     15  O   LIG     1     154.281 147.655 143.344  0.00  0.00    -0.283 OA
ATOM     16  C   LIG     1     152.267 148.878 142.818  0.00  0.00     0.273 A 
ATOM     17  O   LIG     1     151.776 147.816 142.125  0.00  0.00    -0.280 OA
ATOM     18  C   LIG     1     151.528 150.074 142.925  0.00  0.00     0.238 A 
ATOM     19  O   LIG     1     150.313 150.174 142.328  0.00  0.00    -0.283 OA
ATOM     20  C   LIG     1     152.056 151.165 143.646  0.00  0.00     0.052 A 
ENDBRANCH  10  12
ENDBRANCH   9  10
ENDBRANCH   8   9
ENDBRANCH   7   8
BRANCH   6  21
ATOM     21  O   LIG     1     150.208 152.113 147.809  0.00  0.00    -0.443 OA
BRANCH  21  22
ATOM     22  C   LIG     1     149.681 152.026 146.549  0.00  0.00     0.341 C 
ATOM     23  O   LIG     1     149.569 153.128 145.966  0.00  0.00    -0.245 OA
BRANCH  22  24
ATOM     24  C   LIG     1     149.211 150.848 145.910  0.00  0.00     0.082 A 
ATOM     25  C   LIG     1     149.785 149.587 146.184  0.00  0.00     0.052 A 
ATOM     26  C   LIG     1     149.292 148.409 145.590  0.00  0.00     0.238 A 
ATOM     27  C   LIG     1     148.189 148.481 144.719  0.00  0.00     0.273 A 
ATOM     28  O   LIG     1     149.866 147.206 145.854  0.00  0.00    -0.283 OA
ATOM     29  C   LIG     1     147.608 149.730 144.420  0.00  0.00     0.238 A 
ATOM     30  O   LIG     1     147.688 147.347 144.175  0.00  0.00    -0.280 OA
ATOM     31  O   LIG     1     146.560 149.803 143.562  0.00  0.00    -0.283 OA
ATOM     32  C   LIG     1     148.118 150.903 145.012  0.00  0.00     0.052 A 
ENDBRANCH  22  24
ENDBRANCH  21  22
ENDBRANCH   6  21
BRANCH   5  33
ATOM     33  O   LIG     1     149.858 154.522 149.308  0.00  0.00    -0.441 OA
BRANCH  33  34
ATOM     34  C   LIG     1     148.699 154.718 149.999  0.00  0.00     0.342 C 
ATOM     35  O   LIG     1     148.462 153.873 150.891  0.00  0.00    -0.245 OA
BRANCH  34  36
ATOM     36  C   LIG     1     147.865 155.859 149.840  0.00  0.00     0.082 A 
ATOM     37  C   LIG     1     146.553 155.671 149.235  0.00  0.00     0.052 A 
ATOM     38  C   LIG     1     145.685 156.781 149.156  0.00  0.00     0.238 A 
ATOM     39  O   LIG     1     144.454 156.612 148.611  0.00  0.00    -0.283 OA
ATOM     40  C   LIG     1     146.053 158.059 149.634  0.00  0.00     0.273 A 
ATOM     41  O   LIG     1     145.168 159.086 149.544  0.00  0.00    -0.280 OA
ATOM     42  C   LIG     1     147.382 158.224 150.200  0.00  0.00     0.238 A 
ATOM     43  C   LIG     1     148.360 157.132 150.332  0.00  0.00     0.052 A 
ATOM     44  O   LIG     1     147.640 159.535 150.611  0.00  0.00    -0.283 OA
ENDBRANCH  34  36
ENDBRANCH  33  34
ENDBRANCH   5  33
BRANCH   4  45
ATOM     45  O   LIG     1     151.715 154.823 151.569  0.00  0.00    -0.440 OA
BRANCH  45  46
ATOM     46  C   LIG     1     152.329 155.804 152.298  0.00  0.00     0.342 C 
ATOM     47  O   LIG     1     152.504 155.530 153.507  0.00  0.00    -0.245 OA
BRANCH  46  48
ATOM     48  C   LIG     1     152.658 157.093 151.789  0.00  0.00     0.082 A 
ATOM     49  C   LIG     1     154.000 157.531 151.710  0.00  0.00     0.052 A 
ATOM     50  C   LIG     1     154.332 158.794 151.177  0.00  0.00     0.238 A 
ATOM     51  O   LIG     1     155.632 159.177 151.112  0.00  0.00    -0.283 OA
ATOM     52  C   LIG     1     153.313 159.649 150.709  0.00  0.00     0.273 A 
ATOM     53  O   LIG     1     153.605 160.858 150.158  0.00  0.00    -0.280 OA
ATOM     54  C   LIG     1     151.967 159.242 150.799  0.00  0.00     0.238 A 
ATOM     55  O   LIG     1     150.961 160.054 150.383  0.00  0.00    -0.283 OA
ATOM     56  C   LIG     1     151.649 157.974 151.325  0.00  0.00     0.052 A 
ENDBRANCH  46  48
ENDBRANCH  45  46
ENDBRANCH   4  45
TORSDOF 13
ENDMDL
MODEL 5
REMARK VINA RESULT:     -10.8      3.721      9.593
REMARK  13 active torsions:
REMARK  status: ('A' for Active; 'I' for Inactive)
REMARK    1  A    between atoms: C_4  and  O_5 
REMARK    2  A    between atoms: C_17  and  O_18 
REMARK    3  A    between atoms: C_30  and  O_31 
REMARK    4  A    between atoms: C_43  and  C_44 
REMARK    5  A    between atoms: O_5  and  C_6 
REMARK    6  A    between atoms: C_6  and  C_8 
REMARK    7  A    between atoms: O_18  and  C_19 
REMARK    8  A    between atoms: C_19  and  C_21 
REMARK    9  A    between atoms: O_31  and  C_32 
REMARK   10  A    between atoms: C_32  and  C_34 
REMARK   11  A    between atoms: C_44  and  O_45 
REMARK   12  A    between atoms: O_45  and  C_46 
REMARK   13  A    between atoms: C_46  and  C_48 
ROOT
ATOM      1  O   LIG     1     149.331 162.096 148.102  0.00  0.00    -0.320 OA
ATOM      2  C   LIG     1     148.385 161.109 147.646  0.00  0.00     0.313 C 
ATOM      3  O   LIG     1     148.065 161.451 146.303  0.00  0.00    -0.186 OA
ATOM      4  C   LIG     1     148.979 159.673 147.729  0.00  0.00     0.271 C 
ATOM      5  C   LIG     1     149.471 159.408 149.184  0.00  0.00     0.256 C 
ATOM      6  C   LIG     1     150.421 160.541 149.675  0.00  0.00     0.243 C 
ATOM      7  C   LIG     1     149.751 161.939 149.476  0.00  0.00     0.205 C 
ENDROOT
BRANCH   7   8
ATOM      8  C   LIG     1     150.711 163.108 149.821  0.00  0.00     0.242 C 
BRANCH   8   9
ATOM      9  O   LIG     1     151.771 163.244 148.858  0.00  0.00    -0.443 OA
BRANCH   9  10
ATOM     10  C   LIG     1     152.996 162.623 148.909  0.00  0.00     0.341 C 
ATOM     11  O   LIG     1     153.696 162.756 149.943  0.00  0.00    -0.245 OA
BRANCH  10  12
ATOM     12  C   LIG     1     153.460 161.828 147.821  0.00  0.00     0.082 A 
ATOM     13  C   LIG     1     152.639 161.603 146.689  0.00  0.00     0.052 A 
ATOM     14  C   LIG     1     153.074 160.796 145.620  0.00  0.00     0.238 A 
ATOM     15  O   LIG     1     152.231 160.594 144.575  0.00  0.00    -0.283 OA
ATOM     16  C   LIG     1     154.359 160.213 145.650  0.00  0.00     0.273 A 
ATOM     17  O   LIG     1     154.774 159.447 144.606  0.00  0.00    -0.280 OA
ATOM     18  C   LIG     1     155.195 160.431 146.764  0.00  0.00     0.238 A 
ATOM     19  O   LIG     1     156.431 159.871 146.801  0.00  0.00    -0.283 OA
ATOM     20  C   LIG     1     154.744 161.227 147.837  0.00  0.00     0.052 A 
ENDBRANCH  10  12
ENDBRANCH   9  10
ENDBRANCH   8   9
ENDBRANCH   7   8
BRANCH   6  21
ATOM     21  O   LIG     1     150.711 160.338 151.071  0.00  0.00    -0.443 OA
BRANCH  21  22
ATOM     22  C   LIG     1     151.909 160.145 151.704  0.00  0.00     0.341 C 
ATOM     23  O   LIG     1     152.278 161.115 152.404  0.00  0.00    -0.245 OA
BRANCH  22  24
ATOM     24  C   LIG     1     152.757 159.013 151.578  0.00  0.00     0.082 A 
ATOM     25  C   LIG     1     153.816 158.990 150.644  0.00  0.00     0.052 A 
ATOM     26  C   LIG     1     154.689 157.889 150.548  0.00  0.00     0.238 A 
ATOM     27  C   LIG     1     154.521 156.794 151.414  0.00  0.00     0.273 A 
ATOM     28  O   LIG     1     155.695 157.879 149.633  0.00  0.00    -0.283 OA
ATOM     29  C   LIG     1     153.462 156.788 152.346  0.00  0.00     0.238 A 
ATOM     30  O   LIG     1     155.380 155.750 151.351  0.00  0.00    -0.280 OA
ATOM     31  O   LIG     1     153.285 155.721 153.164  0.00  0.00    -0.283 OA
ATOM     32  C   LIG     1     152.587 157.890 152.424  0.00  0.00     0.052 A 
ENDBRANCH  22  24
ENDBRANCH  21  22
ENDBRANCH   6  21
BRANCH   5  33
ATOM     33  O   LIG     1     150.190 158.166 149.286  0.00  0.00    -0.441 OA
BRANCH  33  34
ATOM     34  C   LIG     1     149.802 157.046 149.960  0.00  0.00     0.342 C 
ATOM     35  O   LIG     1     148.687 157.124 150.524  0.00  0.00    -0.245 OA
BRANCH  34  36
ATOM     36  C   LIG     1     150.516 155.817 149.933  0.00  0.00     0.082 A 
ATOM     37  C   LIG     1     151.808 155.789 149.258  0.00  0.00     0.052 A 
ATOM     38  C   LIG     1     152.563 154.598 149.304  0.00  0.00     0.238 A 
ATOM     39  O   LIG     1     153.775 154.567 148.695  0.00  0.00    -0.283 OA
ATOM     40  C   LIG     1     152.102 153.439 149.971  0.00  0.00     0.273 A 
ATOM     41  O   LIG     1     152.881 152.327 149.994  0.00  0.00    -0.280 OA
ATOM     42  C   LIG     1     150.794 153.487 150.603  0.00  0.00     0.238 A 
ATOM     43  C   LIG     1     149.930 154.679 150.616  0.00  0.00     0.052 A 
ATOM     44  O   LIG     1     150.436 152.277 151.205  0.00  0.00    -0.283 OA
ENDBRANCH  34  36
ENDBRANCH  33  34
ENDBRANCH   5  33
BRANCH   4  45
ATOM     45  O   LIG     1     148.013 158.667 147.372  0.00  0.00    -0.440 OA
BRANCH  45  46
ATOM     46  C   LIG     1     148.134 157.705 146.407  0.00  0.00     0.342 C 
ATOM     47  O   LIG     1     147.859 158.087 145.246  0.00  0.00    -0.245 OA
BRANCH  46  48
ATOM     48  C   LIG     1     148.435 156.338 146.671  0.00  0.00     0.082 A 
ATOM     49  C   LIG     1     147.498 155.489 147.304  0.00  0.00     0.052 A 
ATOM     50  C   LIG     1     147.780 154.128 147.539  0.00  0.00     0.238 A 
ATOM     51  O   LIG     1     146.853 153.342 148.143  0.00  0.00    -0.283 OA
ATOM     52  C   LIG     1     149.020 153.587 147.140  0.00  0.00     0.273 A 
ATOM     53  O   LIG     1     149.307 152.271 147.322  0.00  0.00    -0.280 OA
ATOM     54  C   LIG     1     149.977 154.421 146.529  0.00  0.00     0.238 A 
ATOM     55  O   LIG     1     151.192 153.938 146.159  0.00  0.00    -0.283 OA
ATOM     56  C   LIG     1     149.680 155.778 146.291  0.00  0.00     0.052 A 
ENDBRANCH  46  48
ENDBRANCH  45  46
ENDBRANCH   4  45
TORSDOF 13
ENDMDL
MODEL 6
REMARK VINA RESULT:     -10.8      4.272      8.051
REMARK  13 active torsions:
REMARK  status: ('A' for Active; 'I' for Inactive)
REMARK    1  A    between atoms: C_4  and  O_5 
REMARK    2  A    between atoms: C_17  and  O_18 
REMARK    3  A    between atoms: C_30  and  O_31 
REMARK    4  A    between atoms: C_43  and  C_44 
REMARK    5  A    between atoms: O_5  and  C_6 
REMARK    6  A    between atoms: C_6  and  C_8 
REMARK    7  A    between atoms: O_18  and  C_19 
REMARK    8  A    between atoms: C_19  and  C_21 
REMARK    9  A    between atoms: O_31  and  C_32 
REMARK   10  A    between atoms: C_32  and  C_34 
REMARK   11  A    between atoms: C_44  and  O_45 
REMARK   12  A    between atoms: O_45  and  C_46 
REMARK   13  A    between atoms: C_46  and  C_48 
ROOT
ATOM      1  O   LIG     1     149.138 153.726 150.614  0.00  0.00    -0.320 OA
ATOM      2  C   LIG     1     150.531 153.750 150.984  0.00  0.00     0.313 C 
ATOM      3  O   LIG     1     151.075 152.499 150.582  0.00  0.00    -0.186 OA
ATOM      4  C   LIG     1     151.279 154.930 150.299  0.00  0.00     0.271 C 
ATOM      5  C   LIG     1     150.545 156.263 150.632  0.00  0.00     0.256 C 
ATOM      6  C   LIG     1     149.025 156.170 150.302  0.00  0.00     0.243 C 
ATOM      7  C   LIG     1     148.396 154.910 150.981  0.00  0.00     0.205 C 
ENDROOT
BRANCH   7   8
ATOM      8  C   LIG     1     146.916 154.697 150.570  0.00  0.00     0.242 C 
BRANCH   8   9
ATOM      9  O   LIG     1     146.791 153.887 149.387  0.00  0.00    -0.443 OA
BRANCH   9  10
ATOM     10  C   LIG     1     146.534 154.344 148.117  0.00  0.00     0.341 C 
ATOM     11  O   LIG     1     145.426 154.070 147.592  0.00  0.00    -0.245 OA
BRANCH  10  12
ATOM     12  C   LIG     1     147.493 155.127 147.412  0.00  0.00     0.082 A 
ATOM     13  C   LIG     1     148.823 154.668 147.250  0.00  0.00     0.052 A 
ATOM     14  C   LIG     1     149.788 155.445 146.582  0.00  0.00     0.238 A 
ATOM     15  O   LIG     1     151.054 154.963 146.483  0.00  0.00    -0.283 OA
ATOM     16  C   LIG     1     149.434 156.697 146.035  0.00  0.00     0.273 A 
ATOM     17  O   LIG     1     150.370 157.433 145.379  0.00  0.00    -0.280 OA
ATOM     18  C   LIG     1     148.113 157.169 146.177  0.00  0.00     0.238 A 
ATOM     19  O   LIG     1     147.767 158.374 145.656  0.00  0.00    -0.283 OA
ATOM     20  C   LIG     1     147.158 156.391 146.863  0.00  0.00     0.052 A 
ENDBRANCH  10  12
ENDBRANCH   9  10
ENDBRANCH   8   9
ENDBRANCH   7   8
BRANCH   6  21
ATOM     21  O   LIG     1     148.367 157.358 150.781  0.00  0.00    -0.443 OA
BRANCH  21  22
ATOM     22  C   LIG     1     147.774 158.377 150.087  0.00  0.00     0.341 C 
ATOM     23  O   LIG     1     146.654 158.085 149.610  0.00  0.00    -0.245 OA
BRANCH  22  24
ATOM     24  C   LIG     1     148.334 159.655 149.822  0.00  0.00     0.082 A 
ATOM     25  C   LIG     1     148.840 160.464 150.863  0.00  0.00     0.052 A 
ATOM     26  C   LIG     1     149.439 161.711 150.600  0.00  0.00     0.238 A 
ATOM     27  C   LIG     1     149.558 162.157 149.272  0.00  0.00     0.273 A 
ATOM     28  O   LIG     1     149.908 162.483 151.617  0.00  0.00    -0.283 OA
ATOM     29  C   LIG     1     149.048 161.373 148.217  0.00  0.00     0.238 A 
ATOM     30  O   LIG     1     150.167 163.338 149.012  0.00  0.00    -0.280 OA
ATOM     31  O   LIG     1     149.141 161.814 146.938  0.00  0.00    -0.283 OA
ATOM     32  C   LIG     1     148.440 160.133 148.493  0.00  0.00     0.052 A 
ENDBRANCH  22  24
ENDBRANCH  21  22
ENDBRANCH   6  21
BRANCH   5  33
ATOM     33  O   LIG     1     151.083 157.369 149.886  0.00  0.00    -0.441 OA
BRANCH  33  34
ATOM     34  C   LIG     1     151.618 158.518 150.391  0.00  0.00     0.342 C 
ATOM     35  O   LIG     1     151.677 158.572 151.641  0.00  0.00    -0.245 OA
BRANCH  34  36
ATOM     36  C   LIG     1     152.201 159.539 149.592  0.00  0.00     0.082 A 
ATOM     37  C   LIG     1     152.116 159.409 148.143  0.00  0.00     0.052 A 
ATOM     38  C   LIG     1     152.613 160.462 147.345  0.00  0.00     0.238 A 
ATOM     39  O   LIG     1     152.521 160.359 145.996  0.00  0.00    -0.283 OA
ATOM     40  C   LIG     1     153.193 161.623 147.906  0.00  0.00     0.273 A 
ATOM     41  O   LIG     1     153.640 162.609 147.086  0.00  0.00    -0.280 OA
ATOM     42  C   LIG     1     153.296 161.706 149.353  0.00  0.00     0.238 A 
ATOM     43  C   LIG     1     152.807 160.668 150.274  0.00  0.00     0.052 A 
ATOM     44  O   LIG     1     153.911 162.884 149.788  0.00  0.00    -0.283 OA
ENDBRANCH  34  36
ENDBRANCH  33  34
ENDBRANCH   5  33
BRANCH   4  45
ATOM     45  O   LIG     1     152.648 155.029 150.736  0.00  0.00    -0.440 OA
BRANCH  45  46
ATOM     46  C   LIG     1     153.743 155.333 149.975  0.00  0.00     0.342 C 
ATOM     47  O   LIG     1     154.136 154.411 149.224  0.00  0.00    -0.245 OA
BRANCH  46  48
ATOM     48  C   LIG     1     154.476 156.550 150.078  0.00  0.00     0.082 A 
ATOM     49  C   LIG     1     154.951 157.223 148.928  0.00  0.00     0.052 A 
ATOM     50  C   LIG     1     155.650 158.443 149.025  0.00  0.00     0.238 A 
ATOM     51  O   LIG     1     156.084 159.062 147.898  0.00  0.00    -0.283 OA
ATOM     52  C   LIG     1     155.889 159.018 150.290  0.00  0.00     0.273 A 
ATOM     53  O   LIG     1     156.530 160.211 150.413  0.00  0.00    -0.280 OA
ATOM     54  C   LIG     1     155.446 158.353 151.451  0.00  0.00     0.238 A 
ATOM     55  O   LIG     1     155.685 158.867 152.685  0.00  0.00    -0.283 OA
ATOM     56  C   LIG     1     154.740 157.139 151.341  0.00  0.00     0.052 A 
ENDBRANCH  46  48
ENDBRANCH  45  46
ENDBRANCH   4  45
TORSDOF 13
ENDMDL
MODEL 7
REMARK VINA RESULT:     -10.7      0.629      2.365
REMARK  13 active torsions:
REMARK  status: ('A' for Active; 'I' for Inactive)
REMARK    1  A    between atoms: C_4  and  O_5 
REMARK    2  A    between atoms: C_17  and  O_18 
REMARK    3  A    between atoms: C_30  and  O_31 
REMARK    4  A    between atoms: C_43  and  C_44 
REMARK    5  A    between atoms: O_5  and  C_6 
REMARK    6  A    between atoms: C_6  and  C_8 
REMARK    7  A    between atoms: O_18  and  C_19 
REMARK    8  A    between atoms: C_19  and  C_21 
REMARK    9  A    between atoms: O_31  and  C_32 
REMARK   10  A    between atoms: C_32  and  C_34 
REMARK   11  A    between atoms: C_44  and  O_45 
REMARK   12  A    between atoms: O_45  and  C_46 
REMARK   13  A    between atoms: C_46  and  C_48 
ROOT
ATOM      1  O   LIG     1     153.733 152.692 149.274  0.00  0.00    -0.320 OA
ATOM      2  C   LIG     1     153.461 153.265 150.568  0.00  0.00     0.313 C 
ATOM      3  O   LIG     1     154.691 153.808 151.033  0.00  0.00    -0.186 OA
ATOM      4  C   LIG     1     152.364 154.364 150.483  0.00  0.00     0.271 C 
ATOM      5  C   LIG     1     151.092 153.765 149.811  0.00  0.00     0.256 C 
ATOM      6  C   LIG     1     151.439 153.077 148.456  0.00  0.00     0.243 C 
ATOM      7  C   LIG     1     152.601 152.049 148.649  0.00  0.00     0.205 C 
ENDROOT
BRANCH   7   8
ATOM      8  C   LIG     1     153.076 151.439 147.304  0.00  0.00     0.242 C 
BRANCH   8   9
ATOM      9  O   LIG     1     153.301 152.444 146.300  0.00  0.00    -0.443 OA
BRANCH   9  10
ATOM     10  C   LIG     1     153.700 152.218 145.004  0.00  0.00     0.341 C 
ATOM     11  O   LIG     1     154.511 153.018 144.476  0.00  0.00    -0.245 OA
BRANCH  10  12
ATOM     12  C   LIG     1     153.220 151.091 144.276  0.00  0.00     0.082 A 
ATOM     13  C   LIG     1     153.993 149.908 144.183  0.00  0.00     0.052 A 
ATOM     14  C   LIG     1     153.543 148.798 143.442  0.00  0.00     0.238 A 
ATOM     15  O   LIG     1     154.342 147.702 143.367  0.00  0.00    -0.283 OA
ATOM     16  C   LIG     1     152.291 148.840 142.794  0.00  0.00     0.273 A 
ATOM     17  O   LIG     1     151.860 147.757 142.093  0.00  0.00    -0.280 OA
ATOM     18  C   LIG     1     151.501 150.005 142.881  0.00  0.00     0.238 A 
ATOM     19  O   LIG     1     150.296 150.053 142.257  0.00  0.00    -0.283 OA
ATOM     20  C   LIG     1     151.967 151.117 143.611  0.00  0.00     0.052 A 
ENDBRANCH  10  12
ENDBRANCH   9  10
ENDBRANCH   8   9
ENDBRANCH   7   8
BRANCH   6  21
ATOM     21  O   LIG     1     150.269 152.399 147.962  0.00  0.00    -0.443 OA
BRANCH  21  22
ATOM     22  C   LIG     1     149.798 152.272 146.683  0.00  0.00     0.341 C 
ATOM     23  O   LIG     1     149.788 153.342 146.034  0.00  0.00    -0.245 OA
BRANCH  22  24
ATOM     24  C   LIG     1     149.281 151.090 146.088  0.00  0.00     0.082 A 
ATOM     25  C   LIG     1     148.171 151.135 145.215  0.00  0.00     0.052 A 
ATOM     26  C   LIG     1     147.684 149.973 144.585  0.00  0.00     0.238 A 
ATOM     27  C   LIG     1     148.327 148.742 144.808  0.00  0.00     0.273 A 
ATOM     28  O   LIG     1     146.606 150.033 143.759  0.00  0.00    -0.283 OA
ATOM     29  C   LIG     1     149.428 148.671 145.685  0.00  0.00     0.238 A 
ATOM     30  O   LIG     1     147.885 147.630 144.174  0.00  0.00    -0.280 OA
ATOM     31  O   LIG     1     150.033 147.480 145.919  0.00  0.00    -0.283 OA
ATOM     32  C   LIG     1     149.899 149.838 146.320  0.00  0.00     0.052 A 
ENDBRANCH  22  24
ENDBRANCH  21  22
ENDBRANCH   6  21
BRANCH   5  33
ATOM     33  O   LIG     1     150.104 154.776 149.542  0.00  0.00    -0.441 OA
BRANCH  33  34
ATOM     34  C   LIG     1     148.899 154.931 150.161  0.00  0.00     0.342 C 
ATOM     35  O   LIG     1     148.913 154.759 151.402  0.00  0.00    -0.245 OA
BRANCH  34  36
ATOM     36  C   LIG     1     147.723 155.386 149.505  0.00  0.00     0.082 A 
ATOM     37  C   LIG     1     147.056 154.477 148.581  0.00  0.00     0.052 A 
ATOM     38  C   LIG     1     145.841 154.888 147.995  0.00  0.00     0.238 A 
ATOM     39  O   LIG     1     145.203 154.042 147.149  0.00  0.00    -0.283 OA
ATOM     40  C   LIG     1     145.262 156.149 148.267  0.00  0.00     0.273 A 
ATOM     41  O   LIG     1     144.082 156.483 147.684  0.00  0.00    -0.280 OA
ATOM     42  C   LIG     1     145.969 157.048 149.164  0.00  0.00     0.238 A 
ATOM     43  C   LIG     1     147.239 156.716 149.830  0.00  0.00     0.052 A 
ATOM     44  O   LIG     1     145.315 158.273 149.334  0.00  0.00    -0.283 OA
ENDBRANCH  34  36
ENDBRANCH  33  34
ENDBRANCH   5  33
BRANCH   4  45
ATOM     45  O   LIG     1     152.009 154.876 151.781  0.00  0.00    -0.440 OA
BRANCH  45  46
ATOM     46  C   LIG     1     152.535 155.967 152.416  0.00  0.00     0.342 C 
ATOM     47  O   LIG     1     152.731 155.819 153.644  0.00  0.00    -0.245 OA
BRANCH  46  48
ATOM     48  C   LIG     1     152.753 157.229 151.792  0.00  0.00     0.082 A 
ATOM     49  C   LIG     1     151.671 158.056 151.408  0.00  0.00     0.052 A 
ATOM     50  C   LIG     1     151.883 159.319 150.820  0.00  0.00     0.238 A 
ATOM     51  O   LIG     1     150.820 160.087 150.470  0.00  0.00    -0.283 OA
ATOM     52  C   LIG     1     153.198 159.782 150.601  0.00  0.00     0.273 A 
ATOM     53  O   LIG     1     153.433 161.010 150.068  0.00  0.00    -0.280 OA
ATOM     54  C   LIG     1     154.290 158.964 150.955  0.00  0.00     0.238 A 
ATOM     55  O   LIG     1     155.567 159.370 150.732  0.00  0.00    -0.283 OA
ATOM     56  C   LIG     1     154.065 157.708 151.551  0.00  0.00     0.052 A 
ENDBRANCH  46  48
ENDBRANCH  45  46
ENDBRANCH   4  45
TORSDOF 13
ENDMDL
MODEL 8
REMARK VINA RESULT:     -10.7      3.567      6.741
REMARK  13 active torsions:
REMARK  status: ('A' for Active; 'I' for Inactive)
REMARK    1  A    between atoms: C_4  and  O_5 
REMARK    2  A    between atoms: C_17  and  O_18 
REMARK    3  A    between atoms: C_30  and  O_31 
REMARK    4  A    between atoms: C_43  and  C_44 
REMARK    5  A    between atoms: O_5  and  C_6 
REMARK    6  A    between atoms: C_6  and  C_8 
REMARK    7  A    between atoms: O_18  and  C_19 
REMARK    8  A    between atoms: C_19  and  C_21 
REMARK    9  A    between atoms: O_31  and  C_32 
REMARK   10  A    between atoms: C_32  and  C_34 
REMARK   11  A    between atoms: C_44  and  O_45 
REMARK   12  A    between atoms: O_45  and  C_46 
REMARK   13  A    between atoms: C_46  and  C_48 
ROOT
ATOM      1  O   LIG     1     155.380 159.511 148.038  0.00  0.00    -0.320 OA
ATOM      2  C   LIG     1     155.336 159.326 149.467  0.00  0.00     0.313 C 
ATOM      3  O   LIG     1     156.228 160.284 150.022  0.00  0.00    -0.186 OA
ATOM      4  C   LIG     1     153.894 159.521 150.019  0.00  0.00     0.271 C 
ATOM      5  C   LIG     1     152.923 158.568 149.259  0.00  0.00     0.256 C 
ATOM      6  C   LIG     1     153.063 158.732 147.716  0.00  0.00     0.243 C 
ATOM      7  C   LIG     1     154.558 158.591 147.285  0.00  0.00     0.205 C 
ENDROOT
BRANCH   7   8
ATOM      8  C   LIG     1     154.767 158.883 145.776  0.00  0.00     0.242 C 
BRANCH   8   9
ATOM      9  O   LIG     1     154.971 160.284 145.517  0.00  0.00    -0.443 OA
BRANCH   9  10
ATOM     10  C   LIG     1     153.987 161.220 145.312  0.00  0.00     0.341 C 
ATOM     11  O   LIG     1     154.251 162.429 145.530  0.00  0.00    -0.245 OA
BRANCH  10  12
ATOM     12  C   LIG     1     152.696 160.836 144.845  0.00  0.00     0.082 A 
ATOM     13  C   LIG     1     151.534 161.154 145.590  0.00  0.00     0.052 A 
ATOM     14  C   LIG     1     150.256 160.755 145.155  0.00  0.00     0.238 A 
ATOM     15  O   LIG     1     149.183 161.066 145.927  0.00  0.00    -0.283 OA
ATOM     16  C   LIG     1     150.109 160.046 143.945  0.00  0.00     0.273 A 
ATOM     17  O   LIG     1     148.869 159.678 143.527  0.00  0.00    -0.280 OA
ATOM     18  C   LIG     1     151.252 159.726 143.183  0.00  0.00     0.238 A 
ATOM     19  O   LIG     1     151.119 159.041 142.019  0.00  0.00    -0.283 OA
ATOM     20  C   LIG     1     152.530 160.115 143.635  0.00  0.00     0.052 A 
ENDBRANCH  10  12
ENDBRANCH   9  10
ENDBRANCH   8   9
ENDBRANCH   7   8
BRANCH   6  21
ATOM     21  O   LIG     1     152.273 157.719 147.063  0.00  0.00    -0.443 OA
BRANCH  21  22
ATOM     22  C   LIG     1     152.274 156.361 147.225  0.00  0.00     0.341 C 
ATOM     23  O   LIG     1     153.414 155.866 147.381  0.00  0.00    -0.245 OA
BRANCH  22  24
ATOM     24  C   LIG     1     151.144 155.503 147.165  0.00  0.00     0.082 A 
ATOM     25  C   LIG     1     151.260 154.119 147.426  0.00  0.00     0.052 A 
ATOM     26  C   LIG     1     150.134 153.272 147.414  0.00  0.00     0.238 A 
ATOM     27  C   LIG     1     148.861 153.813 147.159  0.00  0.00     0.273 A 
ATOM     28  O   LIG     1     150.266 151.940 147.654  0.00  0.00    -0.283 OA
ATOM     29  C   LIG     1     148.723 155.189 146.882  0.00  0.00     0.238 A 
ATOM     30  O   LIG     1     147.772 153.009 147.184  0.00  0.00    -0.280 OA
ATOM     31  O   LIG     1     147.499 155.707 146.612  0.00  0.00    -0.283 OA
ATOM     32  C   LIG     1     149.858 156.024 146.884  0.00  0.00     0.052 A 
ENDBRANCH  22  24
ENDBRANCH  21  22
ENDBRANCH   6  21
BRANCH   5  33
ATOM     33  O   LIG     1     151.549 158.824 149.599  0.00  0.00    -0.441 OA
BRANCH  33  34
ATOM     34  C   LIG     1     150.849 158.295 150.643  0.00  0.00     0.342 C 
ATOM     35  O   LIG     1     150.938 158.930 151.719  0.00  0.00    -0.245 OA
BRANCH  34  36
ATOM     36  C   LIG     1     149.966 157.187 150.525  0.00  0.00     0.082 A 
ATOM     37  C   LIG     1     150.504 155.853 150.758  0.00  0.00     0.052 A 
ATOM     38  C   LIG     1     149.616 154.757 150.730  0.00  0.00     0.238 A 
ATOM     39  O   LIG     1     150.104 153.513 150.965  0.00  0.00    -0.283 OA
ATOM     40  C   LIG     1     148.234 154.914 150.477  0.00  0.00     0.273 A 
ATOM     41  O   LIG     1     147.426 153.822 150.478  0.00  0.00    -0.280 OA
ATOM     42  C   LIG     1     147.734 156.253 150.212  0.00  0.00     0.238 A 
ATOM     43  C   LIG     1     148.574 157.462 150.220  0.00  0.00     0.052 A 
ATOM     44  O   LIG     1     146.361 156.279 149.948  0.00  0.00    -0.283 OA
ENDBRANCH  34  36
ENDBRANCH  33  34
ENDBRANCH   5  33
BRANCH   4  45
ATOM     45  O   LIG     1     153.813 159.242 151.430  0.00  0.00    -0.440 OA
BRANCH  45  46
ATOM     46  C   LIG     1     154.507 158.294 152.130  0.00  0.00     0.342 C 
ATOM     47  O   LIG     1     155.562 158.702 152.666  0.00  0.00    -0.245 OA
BRANCH  46  48
ATOM     48  C   LIG     1     154.153 156.915 152.176  0.00  0.00     0.082 A 
ATOM     49  C   LIG     1     154.287 156.083 151.041  0.00  0.00     0.052 A 
ATOM     50  C   LIG     1     153.968 154.711 151.091  0.00  0.00     0.238 A 
ATOM     51  O   LIG     1     154.116 153.942 149.983  0.00  0.00    -0.283 OA
ATOM     52  C   LIG     1     153.504 154.141 152.296  0.00  0.00     0.273 A 
ATOM     53  O   LIG     1     153.222 152.814 152.384  0.00  0.00    -0.280 OA
ATOM     54  C   LIG     1     153.341 154.956 153.433  0.00  0.00     0.238 A 
ATOM     55  O   LIG     1     152.869 154.443 154.599  0.00  0.00    -0.283 OA
ATOM     56  C   LIG     1     153.671 156.324 153.372  0.00  0.00     0.052 A 
ENDBRANCH  46  48
ENDBRANCH  45  46
ENDBRANCH   4  45
TORSDOF 13
ENDMDL
MODEL 9
REMARK VINA RESULT:     -10.7      1.963     11.521
REMARK  13 active torsions:
REMARK  status: ('A' for Active; 'I' for Inactive)
REMARK    1  A    between atoms: C_4  and  O_5 
REMARK    2  A    between atoms: C_17  and  O_18 
REMARK    3  A    between atoms: C_30  and  O_31 
REMARK    4  A    between atoms: C_43  and  C_44 
REMARK    5  A    between atoms: O_5  and  C_6 
REMARK    6  A    between atoms: C_6  and  C_8 
REMARK    7  A    between atoms: O_18  and  C_19 
REMARK    8  A    between atoms: C_19  and  C_21 
REMARK    9  A    between atoms: O_31  and  C_32 
REMARK   10  A    between atoms: C_32  and  C_34 
REMARK   11  A    between atoms: C_44  and  O_45 
REMARK   12  A    between atoms: O_45  and  C_46 
REMARK   13  A    between atoms: C_46  and  C_48 
ROOT
ATOM      1  O   LIG     1     148.552 152.640 146.219  0.00  0.00    -0.320 OA
ATOM      2  C   LIG     1     148.779 151.393 145.533  0.00  0.00     0.313 C 
ATOM      3  O   LIG     1     147.699 151.234 144.622  0.00  0.00    -0.186 OA
ATOM      4  C   LIG     1     150.143 151.398 144.784  0.00  0.00     0.271 C 
ATOM      5  C   LIG     1     151.278 151.744 145.794  0.00  0.00     0.256 C 
ATOM      6  C   LIG     1     150.957 153.050 146.581  0.00  0.00     0.243 C 
ATOM      7  C   LIG     1     149.536 152.961 147.227  0.00  0.00     0.205 C 
ENDROOT
BRANCH   7   8
ATOM      8  C   LIG     1     149.113 154.290 147.905  0.00  0.00     0.242 C 
BRANCH   8   9
ATOM      9  O   LIG     1     149.164 154.209 149.341  0.00  0.00    -0.443 OA
BRANCH   9  10
ATOM     10  C   LIG     1     148.173 154.598 150.209  0.00  0.00     0.341 C 
ATOM     11  O   LIG     1     147.869 153.834 151.158  0.00  0.00    -0.245 OA
BRANCH  10  12
ATOM     12  C   LIG     1     147.510 155.850 150.051  0.00  0.00     0.082 A 
ATOM     13  C   LIG     1     148.141 157.056 150.442  0.00  0.00     0.052 A 
ATOM     14  C   LIG     1     147.487 158.296 150.319  0.00  0.00     0.238 A 
ATOM     15  O   LIG     1     148.133 159.415 150.738  0.00  0.00    -0.283 OA
ATOM     16  C   LIG     1     146.186 158.360 149.775  0.00  0.00     0.273 A 
ATOM     17  O   LIG     1     145.569 159.565 149.647  0.00  0.00    -0.280 OA
ATOM     18  C   LIG     1     145.543 157.172 149.371  0.00  0.00     0.238 A 
ATOM     19  O   LIG     1     144.291 157.225 148.850  0.00  0.00    -0.283 OA
ATOM     20  C   LIG     1     146.200 155.933 149.514  0.00  0.00     0.052 A 
ENDBRANCH  10  12
ENDBRANCH   9  10
ENDBRANCH   8   9
ENDBRANCH   7   8
BRANCH   6  21
ATOM     21  O   LIG     1     151.947 153.233 147.611  0.00  0.00    -0.443 OA
BRANCH  21  22
ATOM     22  C   LIG     1     152.786 154.287 147.849  0.00  0.00     0.341 C 
ATOM     23  O   LIG     1     153.286 154.785 146.815  0.00  0.00    -0.245 OA
BRANCH  22  24
ATOM     24  C   LIG     1     153.167 154.791 149.121  0.00  0.00     0.082 A 
ATOM     25  C   LIG     1     152.370 155.736 149.804  0.00  0.00     0.052 A 
ATOM     26  C   LIG     1     152.719 156.202 151.087  0.00  0.00     0.238 A 
ATOM     27  C   LIG     1     153.875 155.705 151.715  0.00  0.00     0.273 A 
ATOM     28  O   LIG     1     151.947 157.122 151.724  0.00  0.00    -0.283 OA
ATOM     29  C   LIG     1     154.694 154.772 151.046  0.00  0.00     0.238 A 
ATOM     30  O   LIG     1     154.194 156.123 152.962  0.00  0.00    -0.280 OA
ATOM     31  O   LIG     1     155.822 154.311 151.642  0.00  0.00    -0.283 OA
ATOM     32  C   LIG     1     154.341 154.321 149.759  0.00  0.00     0.052 A 
ENDBRANCH  22  24
ENDBRANCH  21  22
ENDBRANCH   6  21
BRANCH   5  33
ATOM     33  O   LIG     1     152.541 151.938 145.132  0.00  0.00    -0.441 OA
BRANCH  33  34
ATOM     34  C   LIG     1     153.653 151.155 145.239  0.00  0.00     0.342 C 
ATOM     35  O   LIG     1     154.612 151.675 145.853  0.00  0.00    -0.245 OA
BRANCH  34  36
ATOM     36  C   LIG     1     153.710 149.798 144.820  0.00  0.00     0.082 A 
ATOM     37  C   LIG     1     153.166 148.781 145.710  0.00  0.00     0.052 A 
ATOM     38  C   LIG     1     153.139 147.443 145.263  0.00  0.00     0.238 A 
ATOM     39  O   LIG     1     152.617 146.491 146.077  0.00  0.00    -0.283 OA
ATOM     40  C   LIG     1     153.628 147.063 143.992  0.00  0.00     0.273 A 
ATOM     41  O   LIG     1     153.561 145.761 143.611  0.00  0.00    -0.280 OA
ATOM     42  C   LIG     1     154.198 148.095 143.141  0.00  0.00     0.238 A 
ATOM     43  C   LIG     1     154.271 149.518 143.510  0.00  0.00     0.052 A 
ATOM     44  O   LIG     1     154.672 147.596 141.924  0.00  0.00    -0.283 OA
ENDBRANCH  34  36
ENDBRANCH  33  34
ENDBRANCH   5  33
BRANCH   4  45
ATOM     45  O   LIG     1     150.431 150.124 144.176  0.00  0.00    -0.440 OA
BRANCH  45  46
ATOM     46  C   LIG     1     150.539 149.846 142.842  0.00  0.00     0.342 C 
ATOM     47  O   LIG     1     151.264 150.637 142.196  0.00  0.00    -0.245 OA
BRANCH  46  48
ATOM     48  C   LIG     1     149.811 148.819 142.176  0.00  0.00     0.082 A 
ATOM     49  C   LIG     1     148.397 148.819 142.149  0.00  0.00     0.052 A 
ATOM     50  C   LIG     1     147.673 147.821 141.464  0.00  0.00     0.238 A 
ATOM     51  O   LIG     1     146.317 147.859 141.454  0.00  0.00    -0.283 OA
ATOM     52  C   LIG     1     148.362 146.792 140.788  0.00  0.00     0.273 A 
ATOM     53  O   LIG     1     147.692 145.836 140.091  0.00  0.00    -0.280 OA
ATOM     54  C   LIG     1     149.770 146.759 140.823  0.00  0.00     0.238 A 
ATOM     55  O   LIG     1     150.461 145.766 140.206  0.00  0.00    -0.283 OA
ATOM     56  C   LIG     1     150.482 147.767 141.502  0.00  0.00     0.052 A 
ENDBRANCH  46  48
ENDBRANCH  45  46
ENDBRANCH   4  45
TORSDOF 13
ENDMDL
MODEL 10
REMARK VINA RESULT:     -10.7      3.770      8.036
REMARK  13 active torsions:
REMARK  status: ('A' for Active; 'I' for Inactive)
REMARK    1  A    between atoms: C_4  and  O_5 
REMARK    2  A    between atoms: C_17  and  O_18 
REMARK    3  A    between atoms: C_30  and  O_31 
REMARK    4  A    between atoms: C_43  and  C_44 
REMARK    5  A    between atoms: O_5  and  C_6 
REMARK    6  A    between atoms: C_6  and  C_8 
REMARK    7  A    between atoms: O_18  and  C_19 
REMARK    8  A    between atoms: C_19  and  C_21 
REMARK    9  A    between atoms: O_31  and  C_32 
REMARK   10  A    between atoms: C_32  and  C_34 
REMARK   11  A    between atoms: C_44  and  O_45 
REMARK   12  A    between atoms: O_45  and  C_46 
REMARK   13  A    between atoms: C_46  and  C_48 
ROOT
ATOM      1  O   LIG     1     149.276 161.344 150.787  0.00  0.00    -0.320 OA
ATOM      2  C   LIG     1     150.525 161.976 150.443  0.00  0.00     0.313 C 
ATOM      3  O   LIG     1     150.375 163.356 150.753  0.00  0.00    -0.186 OA
ATOM      4  C   LIG     1     151.712 161.353 151.233  0.00  0.00     0.271 C 
ATOM      5  C   LIG     1     151.731 159.813 150.995  0.00  0.00     0.256 C 
ATOM      6  C   LIG     1     150.340 159.177 151.292  0.00  0.00     0.243 C 
ATOM      7  C   LIG     1     149.218 159.928 150.504  0.00  0.00     0.205 C 
ENDROOT
BRANCH   7   8
ATOM      8  C   LIG     1     147.800 159.421 150.872  0.00  0.00     0.242 C 
BRANCH   8   9
ATOM      9  O   LIG     1     146.922 159.386 149.733  0.00  0.00    -0.443 OA
BRANCH   9  10
ATOM     10  C   LIG     1     146.077 158.356 149.394  0.00  0.00     0.341 C 
ATOM     11  O   LIG     1     144.838 158.552 149.444  0.00  0.00    -0.245 OA
BRANCH  10  12
ATOM     12  C   LIG     1     146.592 157.094 148.976  0.00  0.00     0.082 A 
ATOM     13  C   LIG     1     146.627 155.996 149.870  0.00  0.00     0.052 A 
ATOM     14  C   LIG     1     147.161 154.753 149.478  0.00  0.00     0.238 A 
ATOM     15  O   LIG     1     147.192 153.746 150.389  0.00  0.00    -0.283 OA
ATOM     16  C   LIG     1     147.651 154.574 148.168  0.00  0.00     0.273 A 
ATOM     17  O   LIG     1     148.151 153.365 147.796  0.00  0.00    -0.280 OA
ATOM     18  C   LIG     1     147.618 155.651 147.259  0.00  0.00     0.238 A 
ATOM     19  O   LIG     1     148.091 155.487 145.998  0.00  0.00    -0.283 OA
ATOM     20  C   LIG     1     147.098 156.897 147.665  0.00  0.00     0.052 A 
ENDBRANCH  10  12
ENDBRANCH   9  10
ENDBRANCH   8   9
ENDBRANCH   7   8
BRANCH   6  21
ATOM     21  O   LIG     1     150.364 157.792 150.898  0.00  0.00    -0.443 OA
BRANCH  21  22
ATOM     22  C   LIG     1     150.529 157.230 149.662  0.00  0.00     0.341 C 
ATOM     23  O   LIG     1     150.293 158.009 148.711  0.00  0.00    -0.245 OA
BRANCH  22  24
ATOM     24  C   LIG     1     150.863 155.877 149.388  0.00  0.00     0.082 A 
ATOM     25  C   LIG     1     150.640 154.859 150.342  0.00  0.00     0.052 A 
ATOM     26  C   LIG     1     150.926 153.510 150.058  0.00  0.00     0.238 A 
ATOM     27  C   LIG     1     151.425 153.158 148.791  0.00  0.00     0.273 A 
ATOM     28  O   LIG     1     150.717 152.545 150.993  0.00  0.00    -0.283 OA
ATOM     29  C   LIG     1     151.668 154.158 147.827  0.00  0.00     0.238 A 
ATOM     30  O   LIG     1     151.665 151.858 148.500  0.00  0.00    -0.280 OA
ATOM     31  O   LIG     1     152.172 153.822 146.613  0.00  0.00    -0.283 OA
ATOM     32  C   LIG     1     151.390 155.507 148.127  0.00  0.00     0.052 A 
ENDBRANCH  22  24
ENDBRANCH  21  22
ENDBRANCH   6  21
BRANCH   5  33
ATOM     33  O   LIG     1     152.696 159.156 151.836  0.00  0.00    -0.441 OA
BRANCH  33  34
ATOM     34  C   LIG     1     153.785 158.440 151.432  0.00  0.00     0.342 C 
ATOM     35  O   LIG     1     154.753 159.126 151.032  0.00  0.00    -0.245 OA
BRANCH  34  36
ATOM     36  C   LIG     1     153.902 157.030 151.568  0.00  0.00     0.082 A 
ATOM     37  C   LIG     1     153.520 156.429 152.840  0.00  0.00     0.052 A 
ATOM     38  C   LIG     1     153.549 155.023 152.953  0.00  0.00     0.238 A 
ATOM     39  O   LIG     1     153.177 154.453 154.126  0.00  0.00    -0.283 OA
ATOM     40  C   LIG     1     153.942 154.189 151.881  0.00  0.00     0.273 A 
ATOM     41  O   LIG     1     153.934 152.841 152.045  0.00  0.00    -0.280 OA
ATOM     42  C   LIG     1     154.352 154.820 150.637  0.00  0.00     0.238 A 
ATOM     43  C   LIG     1     154.355 156.275 150.414  0.00  0.00     0.052 A 
ATOM     44  O   LIG     1     154.745 153.897 149.662  0.00  0.00    -0.283 OA
ENDBRANCH  34  36
ENDBRANCH  33  34
ENDBRANCH   5  33
BRANCH   4  45
ATOM     45  O   LIG     1     152.980 161.905 150.828  0.00  0.00    -0.440 OA
BRANCH  45  46
ATOM     46  C   LIG     1     153.331 162.353 149.585  0.00  0.00     0.342 C 
ATOM     47  O   LIG     1     153.212 163.588 149.417  0.00  0.00    -0.245 OA
BRANCH  46  48
ATOM     48  C   LIG     1     153.698 161.504 148.501  0.00  0.00     0.082 A 
ATOM     49  C   LIG     1     152.723 160.925 147.657  0.00  0.00     0.052 A 
ATOM     50  C   LIG     1     153.084 160.111 146.565  0.00  0.00     0.238 A 
ATOM     51  O   LIG     1     152.119 159.579 145.772  0.00  0.00    -0.283 OA
ATOM     52  C   LIG     1     154.445 159.857 146.297  0.00  0.00     0.273 A 
ATOM     53  O   LIG     1     154.825 159.103 145.231  0.00  0.00    -0.280 OA
ATOM     54  C   LIG     1     155.433 160.403 147.140  0.00  0.00     0.238 A 
ATOM     55  O   LIG     1     156.751 160.154 146.925  0.00  0.00    -0.283 OA
ATOM     56  C   LIG     1     155.060 161.224 148.222  0.00  0.00     0.052 A 
ENDBRANCH  46  48
ENDBRANCH  45  46
ENDBRANCH   4  45
TORSDOF 13
ENDMDL
