MODEL 1
REMARK VINA RESULT:      -9.1      0.000      0.000
REMARK  11 active torsions:
REMARK  status: ('A' for Active; 'I' for Inactive)
REMARK    1  A    between atoms: O_2  and  C_16 
REMARK    2  A    between atoms: O_2  and  C_18 
REMARK    3  A    between atoms: O_3  and  C_12 
REMARK    4  A    between atoms: O_4  and  C_13 
REMARK    5  A    between atoms: O_5  and  C_14 
REMARK    6  A    between atoms: O_6  and  C_17 
REMARK    7  A    between atoms: O_8  and  C_23 
REMARK    8  A    between atoms: O_10  and  C_30 
REMARK    9  A    between atoms: O_11  and  C_32 
REMARK   10  A    between atoms: C_15  and  C_17 
REMARK   11  A    between atoms: C_25  and  C_27 
ROOT
HETATM    1  O   UNK     0       7.007  45.462  21.329  0.00  0.00    -0.348 OA
HETATM    2  C   UNK     0       7.389  45.028  18.516  0.00  0.00     0.183 C 
HETATM    3  C   UNK     0       8.460  45.667  19.401  0.00  0.00     0.180 C 
HETATM    4  C   UNK     0       6.000  45.170  19.139  0.00  0.00     0.205 C 
HETATM    5  C   UNK     0       8.325  45.190  20.848  0.00  0.00     0.179 C 
HETATM    6  C   UNK     0       6.003  44.750  20.609  0.00  0.00     0.298 C 
ENDROOT
BRANCH   5   7
HETATM    7  C   UNK     0       9.308  45.902  21.771  0.00  0.00     0.198 C 
BRANCH   7   8
HETATM    8  O   UNK     0       9.809  47.044  21.100  0.00  0.00    -0.398 OA
HETATM    9  H   UNK     0       9.729  47.801  21.706  0.00  0.00     0.209 HD
ENDBRANCH   7   8
ENDBRANCH   5   7
BRANCH   6  10
HETATM   10  O   UNK     0       4.718  45.045  21.154  0.00  0.00    -0.318 OA
BRANCH  10  11
HETATM   11  C   UNK     0       4.115  44.052  21.867  0.00  0.00     0.077 A 
HETATM   12  C   UNK     0       4.331  43.954  23.243  0.00  0.00     0.075 A 
HETATM   13  C   UNK     0       3.713  42.938  23.971  0.00  0.00     0.095 A 
HETATM   14  O   UNK     0       3.964  42.892  25.319  0.00  0.00    -0.309 OA
HETATM   15  C   UNK     0       2.883  42.023  23.324  0.00  0.00     0.081 A 
HETATM   16  C   UNK     0       3.358  41.895  26.069  0.00  0.00     0.090 A 
HETATM   17  C   UNK     0       2.546  40.956  25.562  0.00  0.00     0.094 A 
HETATM   18  C   UNK     0       2.246  40.960  24.116  0.00  0.00     0.190 A 
HETATM   19  O   UNK     0       1.510  40.123  23.614  0.00  0.00    -0.287 OA
HETATM   20  C   UNK     0       2.664  42.118  21.948  0.00  0.00     0.085 A 
HETATM   21  C   UNK     0       3.284  43.137  21.222  0.00  0.00     0.074 A 
BRANCH  16  22
HETATM   22  C   UNK     0       3.700  41.935  27.506  0.00  0.00     0.001 A 
HETATM   23  C   UNK     0       4.905  42.505  27.924  0.00  0.00     0.053 A 
HETATM   24  C   UNK     0       5.227  42.544  29.281  0.00  0.00     0.099 A 
HETATM   25  C   UNK     0       4.347  42.011  30.223  0.00  0.00     0.098 A 
HETATM   26  C   UNK     0       3.143  41.442  29.807  0.00  0.00     0.040 A 
HETATM   27  C   UNK     0       2.820  41.403  28.452  0.00  0.00     0.017 A 
BRANCH  24  28
HETATM   28  O   UNK     0       6.407  43.101  29.675  0.00  0.00    -0.358 OA
HETATM   29  H   UNK     0       6.818  43.523  28.902  0.00  0.00     0.217 HD
ENDBRANCH  24  28
BRANCH  25  30
HETATM   30  O   UNK     0       4.650  42.044  31.550  0.00  0.00    -0.358 OA
HETATM   31  H   UNK     0       3.847  41.847  32.063  0.00  0.00     0.217 HD
ENDBRANCH  25  30
ENDBRANCH  16  22
BRANCH  20  32
HETATM   32  O   UNK     0       1.863  41.249  21.271  0.00  0.00    -0.360 OA
HETATM   33  H   UNK     0       2.374  40.488  20.956  0.00  0.00     0.217 HD
ENDBRANCH  20  32
ENDBRANCH  10  11
ENDBRANCH   6  10
BRANCH   3  34
HETATM   34  O   UNK     0       9.750  45.314  18.907  0.00  0.00    -0.390 OA
HETATM   35  H   UNK     0      10.415  45.765  19.455  0.00  0.00     0.210 HD
ENDBRANCH   3  34
BRANCH   4  36
HETATM   36  O   UNK     0       5.079  44.336  18.437  0.00  0.00    -0.388 OA
HETATM   37  H   UNK     0       5.088  43.458  18.856  0.00  0.00     0.210 HD
ENDBRANCH   4  36
BRANCH   2  38
HETATM   38  O   UNK     0       7.412  45.685  17.248  0.00  0.00    -0.390 OA
HETATM   39  H   UNK     0       6.522  45.603  16.862  0.00  0.00     0.210 HD
ENDBRANCH   2  38
TORSDOF 11
ENDMDL
MODEL 2
REMARK VINA RESULT:      -8.8      1.899      2.762
REMARK  11 active torsions:
REMARK  status: ('A' for Active; 'I' for Inactive)
REMARK    1  A    between atoms: O_2  and  C_16 
REMARK    2  A    between atoms: O_2  and  C_18 
REMARK    3  A    between atoms: O_3  and  C_12 
REMARK    4  A    between atoms: O_4  and  C_13 
REMARK    5  A    between atoms: O_5  and  C_14 
REMARK    6  A    between atoms: O_6  and  C_17 
REMARK    7  A    between atoms: O_8  and  C_23 
REMARK    8  A    between atoms: O_10  and  C_30 
REMARK    9  A    between atoms: O_11  and  C_32 
REMARK   10  A    between atoms: C_15  and  C_17 
REMARK   11  A    between atoms: C_25  and  C_27 
ROOT
HETATM    1  O   UNK     0       8.951  43.886  20.761  0.00  0.00    -0.348 OA
HETATM    2  C   UNK     0      10.041  44.666  18.221  0.00  0.00     0.183 C 
HETATM    3  C   UNK     0      10.905  44.087  19.342  0.00  0.00     0.180 C 
HETATM    4  C   UNK     0       8.748  45.266  18.773  0.00  0.00     0.205 C 
HETATM    5  C   UNK     0      10.077  43.172  20.247  0.00  0.00     0.179 C 
HETATM    6  C   UNK     0       8.052  44.302  19.734  0.00  0.00     0.298 C 
ENDROOT
BRANCH   5   7
HETATM    7  C   UNK     0      10.889  42.675  21.440  0.00  0.00     0.198 C 
BRANCH   7   8
HETATM    8  O   UNK     0      11.933  43.598  21.690  0.00  0.00    -0.398 OA
HETATM    9  H   UNK     0      11.904  43.829  22.634  0.00  0.00     0.209 HD
ENDBRANCH   7   8
ENDBRANCH   5   7
BRANCH   6  10
HETATM   10  O   UNK     0       6.940  44.983  20.313  0.00  0.00    -0.318 OA
BRANCH  10  11
HETATM   11  C   UNK     0       5.840  44.228  20.593  0.00  0.00     0.077 A 
HETATM   12  C   UNK     0       5.593  43.818  21.905  0.00  0.00     0.075 A 
HETATM   13  C   UNK     0       4.468  43.046  22.189  0.00  0.00     0.095 A 
HETATM   14  O   UNK     0       4.277  42.673  23.496  0.00  0.00    -0.309 OA
HETATM   15  C   UNK     0       3.593  42.684  21.165  0.00  0.00     0.081 A 
HETATM   16  C   UNK     0       3.163  41.909  23.809  0.00  0.00     0.090 A 
HETATM   17  C   UNK     0       2.255  41.494  22.912  0.00  0.00     0.094 A 
HETATM   18  C   UNK     0       2.415  41.867  21.492  0.00  0.00     0.190 A 
HETATM   19  O   UNK     0       1.610  41.511  20.643  0.00  0.00    -0.287 OA
HETATM   20  C   UNK     0       3.838  43.091  19.851  0.00  0.00     0.085 A 
HETATM   21  C   UNK     0       4.965  43.865  19.570  0.00  0.00     0.074 A 
BRANCH  16  22
HETATM   22  C   UNK     0       3.059  41.560  25.241  0.00  0.00     0.001 A 
HETATM   23  C   UNK     0       3.703  42.342  26.201  0.00  0.00     0.053 A 
HETATM   24  C   UNK     0       3.603  42.012  27.554  0.00  0.00     0.099 A 
HETATM   25  C   UNK     0       2.860  40.900  27.948  0.00  0.00     0.098 A 
HETATM   26  C   UNK     0       2.215  40.118  26.990  0.00  0.00     0.040 A 
HETATM   27  C   UNK     0       2.314  40.446  25.638  0.00  0.00     0.017 A 
BRANCH  24  28
HETATM   28  O   UNK     0       4.239  42.783  28.481  0.00  0.00    -0.358 OA
HETATM   29  H   UNK     0       4.873  42.223  28.960  0.00  0.00     0.217 HD
ENDBRANCH  24  28
BRANCH  25  30
HETATM   30  O   UNK     0       2.755  40.569  29.265  0.00  0.00    -0.358 OA
HETATM   31  H   UNK     0       3.385  41.103  29.778  0.00  0.00     0.217 HD
ENDBRANCH  25  30
ENDBRANCH  16  22
BRANCH  20  32
HETATM   32  O   UNK     0       3.015  42.764  18.817  0.00  0.00    -0.360 OA
HETATM   33  H   UNK     0       2.688  43.562  18.375  0.00  0.00     0.217 HD
ENDBRANCH  20  32
ENDBRANCH  10  11
ENDBRANCH   6  10
BRANCH   3  34
HETATM   34  O   UNK     0      11.977  43.340  18.771  0.00  0.00    -0.390 OA
HETATM   35  H   UNK     0      11.729  42.399  18.786  0.00  0.00     0.210 HD
ENDBRANCH   3  34
BRANCH   4  36
HETATM   36  O   UNK     0       7.856  45.543  17.694  0.00  0.00    -0.388 OA
HETATM   37  H   UNK     0       7.993  44.868  17.008  0.00  0.00     0.210 HD
ENDBRANCH   4  36
BRANCH   2  38
HETATM   38  O   UNK     0      10.795  45.685  17.562  0.00  0.00    -0.390 OA
HETATM   39  H   UNK     0      10.552  46.535  17.969  0.00  0.00     0.210 HD
ENDBRANCH   2  38
TORSDOF 11
ENDMDL
MODEL 3
REMARK VINA RESULT:      -8.7      3.539      9.513
REMARK  11 active torsions:
REMARK  status: ('A' for Active; 'I' for Inactive)
REMARK    1  A    between atoms: O_2  and  C_16 
REMARK    2  A    between atoms: O_2  and  C_18 
REMARK    3  A    between atoms: O_3  and  C_12 
REMARK    4  A    between atoms: O_4  and  C_13 
REMARK    5  A    between atoms: O_5  and  C_14 
REMARK    6  A    between atoms: O_6  and  C_17 
REMARK    7  A    between atoms: O_8  and  C_23 
REMARK    8  A    between atoms: O_10  and  C_30 
REMARK    9  A    between atoms: O_11  and  C_32 
REMARK   10  A    between atoms: C_15  and  C_17 
REMARK   11  A    between atoms: C_25  and  C_27 
ROOT
HETATM    1  O   UNK     0       1.955  36.666  23.267  0.00  0.00    -0.348 OA
HETATM    2  C   UNK     0      -0.659  35.474  23.251  0.00  0.00     0.183 C 
HETATM    3  C   UNK     0       0.610  34.665  23.518  0.00  0.00     0.180 C 
HETATM    4  C   UNK     0      -0.344  36.762  22.489  0.00  0.00     0.205 C 
HETATM    5  C   UNK     0       1.702  35.550  24.123  0.00  0.00     0.179 C 
HETATM    6  C   UNK     0       0.820  37.518  23.130  0.00  0.00     0.298 C 
ENDROOT
BRANCH   5   7
HETATM    7  C   UNK     0       3.015  34.791  24.290  0.00  0.00     0.198 C 
BRANCH   7   8
HETATM    8  O   UNK     0       3.114  33.829  23.256  0.00  0.00    -0.398 OA
HETATM    9  H   UNK     0       2.528  33.087  23.486  0.00  0.00     0.209 HD
ENDBRANCH   7   8
ENDBRANCH   5   7
BRANCH   6  10
HETATM   10  O   UNK     0       1.145  38.623  22.288  0.00  0.00    -0.318 OA
BRANCH  10  11
HETATM   11  C   UNK     0       1.798  39.666  22.874  0.00  0.00     0.077 A 
HETATM   12  C   UNK     0       2.479  40.593  22.083  0.00  0.00     0.075 A 
HETATM   13  C   UNK     0       3.146  41.659  22.684  0.00  0.00     0.095 A 
HETATM   14  O   UNK     0       3.799  42.537  21.856  0.00  0.00    -0.309 OA
HETATM   15  C   UNK     0       3.132  41.798  24.072  0.00  0.00     0.081 A 
HETATM   16  C   UNK     0       4.466  43.611  22.425  0.00  0.00     0.090 A 
HETATM   17  C   UNK     0       4.530  43.847  23.745  0.00  0.00     0.094 A 
HETATM   18  C   UNK     0       3.846  42.931  24.679  0.00  0.00     0.190 A 
HETATM   19  O   UNK     0       3.877  43.111  25.889  0.00  0.00    -0.287 OA
HETATM   20  C   UNK     0       2.451  40.872  24.867  0.00  0.00     0.085 A 
HETATM   21  C   UNK     0       1.784  39.806  24.261  0.00  0.00     0.074 A 
BRANCH  16  22
HETATM   22  C   UNK     0       5.138  44.488  21.445  0.00  0.00     0.001 A 
HETATM   23  C   UNK     0       4.822  45.848  21.389  0.00  0.00     0.053 A 
HETATM   24  C   UNK     0       5.458  46.676  20.464  0.00  0.00     0.099 A 
HETATM   25  C   UNK     0       6.409  46.148  19.592  0.00  0.00     0.098 A 
HETATM   26  C   UNK     0       6.727  44.791  19.646  0.00  0.00     0.040 A 
HETATM   27  C   UNK     0       6.093  43.962  20.571  0.00  0.00     0.017 A 
BRANCH  24  28
HETATM   28  O   UNK     0       5.138  48.000  20.419  0.00  0.00    -0.358 OA
HETATM   29  H   UNK     0       5.614  48.404  19.674  0.00  0.00     0.217 HD
ENDBRANCH  24  28
BRANCH  25  30
HETATM   30  O   UNK     0       7.037  46.947  18.685  0.00  0.00    -0.358 OA
HETATM   31  H   UNK     0       6.654  47.840  18.731  0.00  0.00     0.217 HD
ENDBRANCH  25  30
ENDBRANCH  16  22
BRANCH  20  32
HETATM   32  O   UNK     0       2.408  40.964  26.224  0.00  0.00    -0.360 OA
HETATM   33  H   UNK     0       1.615  40.527  26.571  0.00  0.00     0.217 HD
ENDBRANCH  20  32
ENDBRANCH  10  11
ENDBRANCH   6  10
BRANCH   3  34
HETATM   34  O   UNK     0       0.310  33.603  24.421  0.00  0.00    -0.390 OA
HETATM   35  H   UNK     0       1.097  33.446  24.971  0.00  0.00     0.210 HD
ENDBRANCH   3  34
BRANCH   4  36
HETATM   36  O   UNK     0      -1.490  37.612  22.500  0.00  0.00    -0.388 OA
HETATM   37  H   UNK     0      -1.743  37.789  21.578  0.00  0.00     0.210 HD
ENDBRANCH   4  36
BRANCH   2  38
HETATM   38  O   UNK     0      -1.544  34.667  22.474  0.00  0.00    -0.390 OA
HETATM   39  H   UNK     0      -1.668  35.112  21.618  0.00  0.00     0.210 HD
ENDBRANCH   2  38
TORSDOF 11
ENDMDL
MODEL 4
REMARK VINA RESULT:      -8.4      1.882      9.427
REMARK  11 active torsions:
REMARK  status: ('A' for Active; 'I' for Inactive)
REMARK    1  A    between atoms: O_2  and  C_16 
REMARK    2  A    between atoms: O_2  and  C_18 
REMARK    3  A    between atoms: O_3  and  C_12 
REMARK    4  A    between atoms: O_4  and  C_13 
REMARK    5  A    between atoms: O_5  and  C_14 
REMARK    6  A    between atoms: O_6  and  C_17 
REMARK    7  A    between atoms: O_8  and  C_23 
REMARK    8  A    between atoms: O_10  and  C_30 
REMARK    9  A    between atoms: O_11  and  C_32 
REMARK   10  A    between atoms: C_15  and  C_17 
REMARK   11  A    between atoms: C_25  and  C_27 
ROOT
HETATM    1  O   UNK     0       2.678  42.189  29.168  0.00  0.00    -0.348 OA
HETATM    2  C   UNK     0       4.302  39.898  29.766  0.00  0.00     0.183 C 
HETATM    3  C   UNK     0       3.257  40.440  30.742  0.00  0.00     0.180 C 
HETATM    4  C   UNK     0       4.742  40.974  28.773  0.00  0.00     0.205 C 
HETATM    5  C   UNK     0       2.133  41.156  29.991  0.00  0.00     0.179 C 
HETATM    6  C   UNK     0       3.539  41.682  28.151  0.00  0.00     0.298 C 
ENDROOT
BRANCH   5   7
HETATM    7  C   UNK     0       1.139  41.806  30.949  0.00  0.00     0.198 C 
BRANCH   7   8
HETATM    8  O   UNK     0       1.849  42.290  32.073  0.00  0.00    -0.398 OA
HETATM    9  H   UNK     0       1.265  42.906  32.549  0.00  0.00     0.209 HD
ENDBRANCH   7   8
ENDBRANCH   5   7
BRANCH   6  10
HETATM   10  O   UNK     0       4.027  42.759  27.352  0.00  0.00    -0.318 OA
BRANCH  10  11
HETATM   11  C   UNK     0       3.811  42.669  26.008  0.00  0.00     0.077 A 
HETATM   12  C   UNK     0       4.408  43.588  25.145  0.00  0.00     0.075 A 
HETATM   13  C   UNK     0       4.186  43.494  23.771  0.00  0.00     0.095 A 
HETATM   14  O   UNK     0       4.799  44.426  22.972  0.00  0.00    -0.309 OA
HETATM   15  C   UNK     0       3.368  42.485  23.265  0.00  0.00     0.081 A 
HETATM   16  C   UNK     0       4.601  44.354  21.602  0.00  0.00     0.090 A 
HETATM   17  C   UNK     0       3.833  43.434  20.997  0.00  0.00     0.094 A 
HETATM   18  C   UNK     0       3.149  42.411  21.812  0.00  0.00     0.190 A 
HETATM   19  O   UNK     0       2.442  41.554  21.301  0.00  0.00    -0.287 OA
HETATM   20  C   UNK     0       2.768  41.563  24.126  0.00  0.00     0.085 A 
HETATM   21  C   UNK     0       2.994  41.659  25.500  0.00  0.00     0.074 A 
BRANCH  16  22
HETATM   22  C   UNK     0       5.302  45.406  20.838  0.00  0.00     0.001 A 
HETATM   23  C   UNK     0       6.485  45.108  20.157  0.00  0.00     0.053 A 
HETATM   24  C   UNK     0       7.145  46.103  19.435  0.00  0.00     0.099 A 
HETATM   25  C   UNK     0       6.627  47.396  19.393  0.00  0.00     0.098 A 
HETATM   26  C   UNK     0       5.445  47.696  20.071  0.00  0.00     0.040 A 
HETATM   27  C   UNK     0       4.784  46.703  20.793  0.00  0.00     0.017 A 
BRANCH  24  28
HETATM   28  O   UNK     0       8.300  45.799  18.778  0.00  0.00    -0.358 OA
HETATM   29  H   UNK     0       8.264  46.204  17.894  0.00  0.00     0.217 HD
ENDBRANCH  24  28
BRANCH  25  30
HETATM   30  O   UNK     0       7.262  48.374  18.690  0.00  0.00    -0.358 OA
HETATM   31  H   UNK     0       6.624  49.078  18.478  0.00  0.00     0.217 HD
ENDBRANCH  25  30
ENDBRANCH  16  22
BRANCH  20  32
HETATM   32  O   UNK     0       1.962  40.560  23.680  0.00  0.00    -0.360 OA
HETATM   33  H   UNK     0       1.292  40.906  23.072  0.00  0.00     0.217 HD
ENDBRANCH  20  32
ENDBRANCH  10  11
ENDBRANCH   6  10
BRANCH   3  34
HETATM   34  O   UNK     0       2.709  39.359  31.493  0.00  0.00    -0.390 OA
HETATM   35  H   UNK     0       2.207  38.793  30.881  0.00  0.00     0.210 HD
ENDBRANCH   3  34
BRANCH   4  36
HETATM   36  O   UNK     0       5.497  40.369  27.723  0.00  0.00    -0.388 OA
HETATM   37  H   UNK     0       4.970  40.416  26.907  0.00  0.00     0.210 HD
ENDBRANCH   4  36
BRANCH   2  38
HETATM   38  O   UNK     0       5.431  39.461  30.525  0.00  0.00    -0.390 OA
HETATM   39  H   UNK     0       5.145  38.702  31.062  0.00  0.00     0.210 HD
ENDBRANCH   2  38
TORSDOF 11
ENDMDL
MODEL 5
REMARK VINA RESULT:      -8.3      2.678      5.267
REMARK  11 active torsions:
REMARK  status: ('A' for Active; 'I' for Inactive)
REMARK    1  A    between atoms: O_2  and  C_16 
REMARK    2  A    between atoms: O_2  and  C_18 
REMARK    3  A    between atoms: O_3  and  C_12 
REMARK    4  A    between atoms: O_4  and  C_13 
REMARK    5  A    between atoms: O_5  and  C_14 
REMARK    6  A    between atoms: O_6  and  C_17 
REMARK    7  A    between atoms: O_8  and  C_23 
REMARK    8  A    between atoms: O_10  and  C_30 
REMARK    9  A    between atoms: O_11  and  C_32 
REMARK   10  A    between atoms: C_15  and  C_17 
REMARK   11  A    between atoms: C_25  and  C_27 
ROOT
HETATM    1  O   UNK     0       6.324  43.558  20.923  0.00  0.00    -0.348 OA
HETATM    2  C   UNK     0       7.216  44.800  18.492  0.00  0.00     0.183 C 
HETATM    3  C   UNK     0       8.186  44.320  19.572  0.00  0.00     0.180 C 
HETATM    4  C   UNK     0       5.821  45.044  19.069  0.00  0.00     0.205 C 
HETATM    5  C   UNK     0       7.581  43.163  20.370  0.00  0.00     0.179 C 
HETATM    6  C   UNK     0       5.357  43.862  19.920  0.00  0.00     0.298 C 
ENDROOT
BRANCH   5   7
HETATM    7  C   UNK     0       8.482  42.745  21.528  0.00  0.00     0.198 C 
BRANCH   7   8
HETATM    8  O   UNK     0       8.144  41.424  21.907  0.00  0.00    -0.398 OA
HETATM    9  H   UNK     0       8.953  40.993  22.233  0.00  0.00     0.209 HD
ENDBRANCH   7   8
ENDBRANCH   5   7
BRANCH   6  10
HETATM   10  O   UNK     0       4.121  44.222  20.536  0.00  0.00    -0.318 OA
BRANCH  10  11
HETATM   11  C   UNK     0       3.792  43.558  21.680  0.00  0.00     0.077 A 
HETATM   12  C   UNK     0       3.093  42.352  21.607  0.00  0.00     0.075 A 
HETATM   13  C   UNK     0       2.758  41.673  22.779  0.00  0.00     0.095 A 
HETATM   14  O   UNK     0       2.071  40.493  22.645  0.00  0.00    -0.309 OA
HETATM   15  C   UNK     0       3.119  42.201  24.018  0.00  0.00     0.081 A 
HETATM   16  C   UNK     0       1.729  39.794  23.792  0.00  0.00     0.090 A 
HETATM   17  C   UNK     0       2.015  40.201  25.038  0.00  0.00     0.094 A 
HETATM   18  C   UNK     0       2.751  41.466  25.237  0.00  0.00     0.190 A 
HETATM   19  O   UNK     0       3.033  41.872  26.356  0.00  0.00    -0.287 OA
HETATM   20  C   UNK     0       3.818  43.408  24.095  0.00  0.00     0.085 A 
HETATM   21  C   UNK     0       4.154  44.084  22.920  0.00  0.00     0.074 A 
BRANCH  16  22
HETATM   22  C   UNK     0       0.988  38.543  23.533  0.00  0.00     0.001 A 
HETATM   23  C   UNK     0       1.498  37.598  22.640  0.00  0.00     0.053 A 
HETATM   24  C   UNK     0       0.798  36.415  22.397  0.00  0.00     0.099 A 
HETATM   25  C   UNK     0      -0.412  36.175  23.045  0.00  0.00     0.098 A 
HETATM   26  C   UNK     0      -0.924  37.117  23.938  0.00  0.00     0.040 A 
HETATM   27  C   UNK     0      -0.226  38.299  24.182  0.00  0.00     0.017 A 
BRANCH  24  28
HETATM   28  O   UNK     0       1.307  35.504  21.521  0.00  0.00    -0.358 OA
HETATM   29  H   UNK     0       2.146  35.170  21.880  0.00  0.00     0.217 HD
ENDBRANCH  24  28
BRANCH  25  30
HETATM   30  O   UNK     0      -1.104  35.024  22.817  0.00  0.00    -0.358 OA
HETATM   31  H   UNK     0      -0.870  34.373  23.500  0.00  0.00     0.217 HD
ENDBRANCH  25  30
ENDBRANCH  16  22
BRANCH  20  32
HETATM   32  O   UNK     0       4.194  43.964  25.280  0.00  0.00    -0.360 OA
HETATM   33  H   UNK     0       5.071  44.368  25.205  0.00  0.00     0.217 HD
ENDBRANCH  20  32
ENDBRANCH  10  11
ENDBRANCH   6  10
BRANCH   3  34
HETATM   34  O   UNK     0       9.397  43.886  18.958  0.00  0.00    -0.390 OA
HETATM   35  H   UNK     0       9.465  44.319  18.089  0.00  0.00     0.210 HD
ENDBRANCH   3  34
BRANCH   4  36
HETATM   36  O   UNK     0       4.891  45.220  18.002  0.00  0.00    -0.388 OA
HETATM   37  H   UNK     0       5.389  45.234  17.167  0.00  0.00     0.210 HD
ENDBRANCH   4  36
BRANCH   2  38
HETATM   38  O   UNK     0       7.726  46.019  17.948  0.00  0.00    -0.390 OA
HETATM   39  H   UNK     0       8.095  45.814  17.071  0.00  0.00     0.210 HD
ENDBRANCH   2  38
TORSDOF 11
ENDMDL
MODEL 6
REMARK VINA RESULT:      -7.9      3.624      7.305
REMARK  11 active torsions:
REMARK  status: ('A' for Active; 'I' for Inactive)
REMARK    1  A    between atoms: O_2  and  C_16 
REMARK    2  A    between atoms: O_2  and  C_18 
REMARK    3  A    between atoms: O_3  and  C_12 
REMARK    4  A    between atoms: O_4  and  C_13 
REMARK    5  A    between atoms: O_5  and  C_14 
REMARK    6  A    between atoms: O_6  and  C_17 
REMARK    7  A    between atoms: O_8  and  C_23 
REMARK    8  A    between atoms: O_10  and  C_30 
REMARK    9  A    between atoms: O_11  and  C_32 
REMARK   10  A    between atoms: C_15  and  C_17 
REMARK   11  A    between atoms: C_25  and  C_27 
ROOT
HETATM    1  O   UNK     0      12.891  43.184  21.558  0.00  0.00    -0.348 OA
HETATM    2  C   UNK     0      15.096  44.556  22.785  0.00  0.00     0.183 C 
HETATM    3  C   UNK     0      15.290  43.497  21.699  0.00  0.00     0.180 C 
HETATM    4  C   UNK     0      13.746  44.391  23.484  0.00  0.00     0.205 C 
HETATM    5  C   UNK     0      14.066  43.428  20.783  0.00  0.00     0.179 C 
HETATM    6  C   UNK     0      12.610  44.242  22.473  0.00  0.00     0.298 C 
ENDROOT
BRANCH   5   7
HETATM    7  C   UNK     0      14.188  42.299  19.764  0.00  0.00     0.198 C 
BRANCH   7   8
HETATM    8  O   UNK     0      12.917  41.694  19.609  0.00  0.00    -0.398 OA
HETATM    9  H   UNK     0      13.059  40.746  19.443  0.00  0.00     0.209 HD
ENDBRANCH   7   8
ENDBRANCH   5   7
BRANCH   6  10
HETATM   10  O   UNK     0      11.414  43.950  23.194  0.00  0.00    -0.318 OA
BRANCH  10  11
HETATM   11  C   UNK     0      10.244  44.367  22.632  0.00  0.00     0.077 A 
HETATM   12  C   UNK     0       9.064  43.663  22.878  0.00  0.00     0.075 A 
HETATM   13  C   UNK     0       7.869  44.091  22.301  0.00  0.00     0.095 A 
HETATM   14  O   UNK     0       6.742  43.359  22.579  0.00  0.00    -0.309 OA
HETATM   15  C   UNK     0       7.855  45.218  21.480  0.00  0.00     0.081 A 
HETATM   16  C   UNK     0       5.538  43.764  22.024  0.00  0.00     0.090 A 
HETATM   17  C   UNK     0       5.398  44.826  21.215  0.00  0.00     0.094 A 
HETATM   18  C   UNK     0       6.581  45.645  20.883  0.00  0.00     0.190 A 
HETATM   19  O   UNK     0       6.497  46.622  20.152  0.00  0.00    -0.287 OA
HETATM   20  C   UNK     0       9.034  45.925  21.231  0.00  0.00     0.085 A 
HETATM   21  C   UNK     0      10.229  45.495  21.811  0.00  0.00     0.074 A 
BRANCH  16  22
HETATM   22  C   UNK     0       4.392  42.903  22.383  0.00  0.00     0.001 A 
HETATM   23  C   UNK     0       3.146  43.111  21.787  0.00  0.00     0.053 A 
HETATM   24  C   UNK     0       2.065  42.297  22.125  0.00  0.00     0.099 A 
HETATM   25  C   UNK     0       2.225  41.276  23.060  0.00  0.00     0.098 A 
HETATM   26  C   UNK     0       3.469  41.066  23.657  0.00  0.00     0.040 A 
HETATM   27  C   UNK     0       4.551  41.878  23.319  0.00  0.00     0.017 A 
BRANCH  24  28
HETATM   28  O   UNK     0       0.854  42.512  21.537  0.00  0.00    -0.358 OA
HETATM   29  H   UNK     0       0.588  41.697  21.078  0.00  0.00     0.217 HD
ENDBRANCH  24  28
BRANCH  25  30
HETATM   30  O   UNK     0       1.177  40.474  23.398  0.00  0.00    -0.358 OA
HETATM   31  H   UNK     0       0.451  40.619  22.767  0.00  0.00     0.217 HD
ENDBRANCH  25  30
ENDBRANCH  16  22
BRANCH  20  32
HETATM   32  O   UNK     0       9.072  47.031  20.438  0.00  0.00    -0.360 OA
HETATM   33  H   UNK     0       8.506  46.912  19.660  0.00  0.00     0.217 HD
ENDBRANCH  20  32
ENDBRANCH  10  11
ENDBRANCH   6  10
BRANCH   3  34
HETATM   34  O   UNK     0      16.441  43.823  20.924  0.00  0.00    -0.390 OA
HETATM   35  H   UNK     0      17.210  43.389  21.332  0.00  0.00     0.210 HD
ENDBRANCH   3  34
BRANCH   4  36
HETATM   36  O   UNK     0      13.484  45.543  24.286  0.00  0.00    -0.388 OA
HETATM   37  H   UNK     0      13.229  46.270  23.693  0.00  0.00     0.210 HD
ENDBRANCH   4  36
BRANCH   2  38
HETATM   38  O   UNK     0      16.148  44.409  23.740  0.00  0.00    -0.390 OA
HETATM   39  H   UNK     0      15.970  45.033  24.466  0.00  0.00     0.210 HD
ENDBRANCH   2  38
TORSDOF 11
ENDMDL
MODEL 7
REMARK VINA RESULT:      -7.8      3.656     10.190
REMARK  11 active torsions:
REMARK  status: ('A' for Active; 'I' for Inactive)
REMARK    1  A    between atoms: O_2  and  C_16 
REMARK    2  A    between atoms: O_2  and  C_18 
REMARK    3  A    between atoms: O_3  and  C_12 
REMARK    4  A    between atoms: O_4  and  C_13 
REMARK    5  A    between atoms: O_5  and  C_14 
REMARK    6  A    between atoms: O_6  and  C_17 
REMARK    7  A    between atoms: O_8  and  C_23 
REMARK    8  A    between atoms: O_10  and  C_30 
REMARK    9  A    between atoms: O_11  and  C_32 
REMARK   10  A    between atoms: C_15  and  C_17 
REMARK   11  A    between atoms: C_25  and  C_27 
ROOT
HETATM    1  O   UNK     0      -0.440  37.590  26.033  0.00  0.00    -0.348 OA
HETATM    2  C   UNK     0      -2.543  36.638  24.324  0.00  0.00     0.183 C 
HETATM    3  C   UNK     0      -2.543  36.402  25.835  0.00  0.00     0.180 C 
HETATM    4  C   UNK     0      -1.130  36.909  23.806  0.00  0.00     0.205 C 
HETATM    5  C   UNK     0      -1.767  37.506  26.556  0.00  0.00     0.179 C 
HETATM    6  C   UNK     0      -0.418  37.961  24.656  0.00  0.00     0.298 C 
ENDROOT
BRANCH   5   7
HETATM    7  C   UNK     0      -1.654  37.230  28.053  0.00  0.00     0.198 C 
BRANCH   7   8
HETATM    8  O   UNK     0      -2.883  37.570  28.667  0.00  0.00    -0.398 OA
HETATM    9  H   UNK     0      -3.586  37.068  28.220  0.00  0.00     0.209 HD
ENDBRANCH   7   8
ENDBRANCH   5   7
BRANCH   6  10
HETATM   10  O   UNK     0       0.932  38.054  24.203  0.00  0.00    -0.318 OA
BRANCH  10  11
HETATM   11  C   UNK     0       1.612  39.187  24.536  0.00  0.00     0.077 A 
HETATM   12  C   UNK     0       2.068  40.045  23.534  0.00  0.00     0.075 A 
HETATM   13  C   UNK     0       2.763  41.204  23.877  0.00  0.00     0.095 A 
HETATM   14  O   UNK     0       3.187  42.008  22.849  0.00  0.00    -0.309 OA
HETATM   15  C   UNK     0       3.003  41.502  25.218  0.00  0.00     0.081 A 
HETATM   16  C   UNK     0       3.876  43.170  23.160  0.00  0.00     0.090 A 
HETATM   17  C   UNK     0       4.172  43.561  24.409  0.00  0.00     0.094 A 
HETATM   18  C   UNK     0       3.741  42.730  25.551  0.00  0.00     0.190 A 
HETATM   19  O   UNK     0       3.988  43.051  26.705  0.00  0.00    -0.287 OA
HETATM   20  C   UNK     0       2.548  40.646  26.224  0.00  0.00     0.085 A 
HETATM   21  C   UNK     0       1.851  39.487  25.877  0.00  0.00     0.074 A 
BRANCH  16  22
HETATM   22  C   UNK     0       4.289  43.957  21.980  0.00  0.00     0.001 A 
HETATM   23  C   UNK     0       4.596  43.311  20.780  0.00  0.00     0.053 A 
HETATM   24  C   UNK     0       4.985  44.055  19.665  0.00  0.00     0.099 A 
HETATM   25  C   UNK     0       5.070  45.444  19.748  0.00  0.00     0.098 A 
HETATM   26  C   UNK     0       4.763  46.091  20.945  0.00  0.00     0.040 A 
HETATM   27  C   UNK     0       4.374  45.349  22.060  0.00  0.00     0.017 A 
BRANCH  24  28
HETATM   28  O   UNK     0       5.283  43.412  18.501  0.00  0.00    -0.358 OA
HETATM   29  H   UNK     0       6.174  43.030  18.583  0.00  0.00     0.217 HD
ENDBRANCH  24  28
BRANCH  25  30
HETATM   30  O   UNK     0       5.447  46.181  18.666  0.00  0.00    -0.358 OA
HETATM   31  H   UNK     0       6.260  45.800  18.291  0.00  0.00     0.217 HD
ENDBRANCH  25  30
ENDBRANCH  16  22
BRANCH  20  32
HETATM   32  O   UNK     0       2.756  40.893  27.546  0.00  0.00    -0.360 OA
HETATM   33  H   UNK     0       2.840  40.064  28.040  0.00  0.00     0.217 HD
ENDBRANCH  20  32
ENDBRANCH  10  11
ENDBRANCH   6  10
BRANCH   3  34
HETATM   34  O   UNK     0      -3.888  36.385  26.308  0.00  0.00    -0.390 OA
HETATM   35  H   UNK     0      -4.355  35.661  25.857  0.00  0.00     0.210 HD
ENDBRANCH   3  34
BRANCH   4  36
HETATM   36  O   UNK     0      -1.201  37.390  22.464  0.00  0.00    -0.388 OA
HETATM   37  H   UNK     0      -1.330  36.625  21.877  0.00  0.00     0.210 HD
ENDBRANCH   4  36
BRANCH   2  38
HETATM   38  O   UNK     0      -3.064  35.467  23.693  0.00  0.00    -0.390 OA
HETATM   39  H   UNK     0      -2.351  35.086  23.153  0.00  0.00     0.210 HD
ENDBRANCH   2  38
TORSDOF 11
ENDMDL
MODEL 8
REMARK VINA RESULT:      -7.8      4.529      9.722
REMARK  11 active torsions:
REMARK  status: ('A' for Active; 'I' for Inactive)
REMARK    1  A    between atoms: O_2  and  C_16 
REMARK    2  A    between atoms: O_2  and  C_18 
REMARK    3  A    between atoms: O_3  and  C_12 
REMARK    4  A    between atoms: O_4  and  C_13 
REMARK    5  A    between atoms: O_5  and  C_14 
REMARK    6  A    between atoms: O_6  and  C_17 
REMARK    7  A    between atoms: O_8  and  C_23 
REMARK    8  A    between atoms: O_10  and  C_30 
REMARK    9  A    between atoms: O_11  and  C_32 
REMARK   10  A    between atoms: C_15  and  C_17 
REMARK   11  A    between atoms: C_25  and  C_27 
ROOT
HETATM    1  O   UNK     0       1.294  35.243  24.235  0.00  0.00    -0.348 OA
HETATM    2  C   UNK     0       0.615  33.490  22.063  0.00  0.00     0.183 C 
HETATM    3  C   UNK     0       2.029  33.574  22.639  0.00  0.00     0.180 C 
HETATM    4  C   UNK     0      -0.182  34.759  22.369  0.00  0.00     0.205 C 
HETATM    5  C   UNK     0       1.993  34.003  24.107  0.00  0.00     0.179 C 
HETATM    6  C   UNK     0      -0.074  35.143  23.844  0.00  0.00     0.298 C 
ENDROOT
BRANCH   5   7
HETATM    7  C   UNK     0       3.396  34.206  24.670  0.00  0.00     0.198 C 
BRANCH   7   8
HETATM    8  O   UNK     0       4.323  34.144  23.602  0.00  0.00    -0.398 OA
HETATM    9  H   UNK     0       5.196  34.390  23.953  0.00  0.00     0.209 HD
ENDBRANCH   7   8
ENDBRANCH   5   7
BRANCH   6  10
HETATM   10  O   UNK     0      -0.719  36.404  24.019  0.00  0.00    -0.318 OA
BRANCH  10  11
HETATM   11  C   UNK     0       0.033  37.404  24.561  0.00  0.00     0.077 A 
HETATM   12  C   UNK     0       0.594  38.379  23.735  0.00  0.00     0.075 A 
HETATM   13  C   UNK     0       1.362  39.401  24.291  0.00  0.00     0.095 A 
HETATM   14  O   UNK     0       1.887  40.331  23.429  0.00  0.00    -0.309 OA
HETATM   15  C   UNK     0       1.569  39.447  25.669  0.00  0.00     0.081 A 
HETATM   16  C   UNK     0       2.651  41.361  23.955  0.00  0.00     0.090 A 
HETATM   17  C   UNK     0       2.925  41.509  25.260  0.00  0.00     0.094 A 
HETATM   18  C   UNK     0       2.385  40.534  26.229  0.00  0.00     0.190 A 
HETATM   19  O   UNK     0       2.610  40.633  27.427  0.00  0.00    -0.287 OA
HETATM   20  C   UNK     0       1.010  38.472  26.500  0.00  0.00     0.085 A 
HETATM   21  C   UNK     0       0.240  37.451  25.940  0.00  0.00     0.074 A 
BRANCH  16  22
HETATM   22  C   UNK     0       3.171  42.301  22.940  0.00  0.00     0.001 A 
HETATM   23  C   UNK     0       2.909  42.083  21.585  0.00  0.00     0.053 A 
HETATM   24  C   UNK     0       3.399  42.972  20.627  0.00  0.00     0.099 A 
HETATM   25  C   UNK     0       4.152  44.077  21.020  0.00  0.00     0.098 A 
HETATM   26  C   UNK     0       4.414  44.296  22.373  0.00  0.00     0.040 A 
HETATM   27  C   UNK     0       3.925  43.410  23.331  0.00  0.00     0.017 A 
BRANCH  24  28
HETATM   28  O   UNK     0       3.139  42.746  19.308  0.00  0.00    -0.358 OA
HETATM   29  H   UNK     0       3.219  41.792  19.140  0.00  0.00     0.217 HD
ENDBRANCH  24  28
BRANCH  25  30
HETATM   30  O   UNK     0       4.635  44.951  20.094  0.00  0.00    -0.358 OA
HETATM   31  H   UNK     0       5.336  44.514  19.580  0.00  0.00     0.217 HD
ENDBRANCH  25  30
ENDBRANCH  16  22
BRANCH  20  32
HETATM   32  O   UNK     0       1.183  38.473  27.850  0.00  0.00    -0.360 OA
HETATM   33  H   UNK     0       1.120  37.573  28.203  0.00  0.00     0.217 HD
ENDBRANCH  20  32
ENDBRANCH  10  11
ENDBRANCH   6  10
BRANCH   3  34
HETATM   34  O   UNK     0       2.654  32.296  22.537  0.00  0.00    -0.390 OA
HETATM   35  H   UNK     0       2.111  31.656  23.028  0.00  0.00     0.210 HD
ENDBRANCH   3  34
BRANCH   4  36
HETATM   36  O   UNK     0      -1.559  34.538  22.064  0.00  0.00    -0.388 OA
HETATM   37  H   UNK     0      -1.955  35.393  21.820  0.00  0.00     0.210 HD
ENDBRANCH   4  36
BRANCH   2  38
HETATM   38  O   UNK     0       0.722  33.325  20.648  0.00  0.00    -0.390 OA
HETATM   39  H   UNK     0      -0.074  33.717  20.249  0.00  0.00     0.210 HD
ENDBRANCH   2  38
TORSDOF 11
ENDMDL
MODEL 9
REMARK VINA RESULT:      -7.7      3.084      9.506
REMARK  11 active torsions:
REMARK  status: ('A' for Active; 'I' for Inactive)
REMARK    1  A    between atoms: O_2  and  C_16 
REMARK    2  A    between atoms: O_2  and  C_18 
REMARK    3  A    between atoms: O_3  and  C_12 
REMARK    4  A    between atoms: O_4  and  C_13 
REMARK    5  A    between atoms: O_5  and  C_14 
REMARK    6  A    between atoms: O_6  and  C_17 
REMARK    7  A    between atoms: O_8  and  C_23 
REMARK    8  A    between atoms: O_10  and  C_30 
REMARK    9  A    between atoms: O_11  and  C_32 
REMARK   10  A    between atoms: C_15  and  C_17 
REMARK   11  A    between atoms: C_25  and  C_27 
ROOT
HETATM    1  O   UNK     0       0.248  37.736  24.105  0.00  0.00    -0.348 OA
HETATM    2  C   UNK     0       2.184  35.617  24.207  0.00  0.00     0.183 C 
HETATM    3  C   UNK     0       0.827  35.456  23.523  0.00  0.00     0.180 C 
HETATM    4  C   UNK     0       2.153  36.745  25.240  0.00  0.00     0.205 C 
HETATM    5  C   UNK     0       0.307  36.805  23.022  0.00  0.00     0.179 C 
HETATM    6  C   UNK     0       1.533  38.015  24.657  0.00  0.00     0.298 C 
ENDROOT
BRANCH   5   7
HETATM    7  C   UNK     0      -1.098  36.688  22.440  0.00  0.00     0.198 C 
BRANCH   7   8
HETATM    8  O   UNK     0      -1.856  37.806  22.864  0.00  0.00    -0.398 OA
HETATM    9  H   UNK     0      -1.253  38.567  22.925  0.00  0.00     0.209 HD
ENDBRANCH   7   8
ENDBRANCH   5   7
BRANCH   6  10
HETATM   10  O   UNK     0       1.408  38.967  25.712  0.00  0.00    -0.318 OA
BRANCH  10  11
HETATM   11  C   UNK     0       2.143  40.110  25.594  0.00  0.00     0.077 A 
HETATM   12  C   UNK     0       2.477  40.594  24.329  0.00  0.00     0.075 A 
HETATM   13  C   UNK     0       3.229  41.763  24.210  0.00  0.00     0.095 A 
HETATM   14  O   UNK     0       3.527  42.190  22.941  0.00  0.00    -0.309 OA
HETATM   15  C   UNK     0       3.645  42.443  25.354  0.00  0.00     0.081 A 
HETATM   16  C   UNK     0       4.268  43.353  22.793  0.00  0.00     0.090 A 
HETATM   17  C   UNK     0       4.730  44.090  23.814  0.00  0.00     0.094 A 
HETATM   18  C   UNK     0       4.439  43.672  25.200  0.00  0.00     0.190 A 
HETATM   19  O   UNK     0       4.839  44.316  26.160  0.00  0.00    -0.287 OA
HETATM   20  C   UNK     0       3.313  41.961  26.623  0.00  0.00     0.085 A 
HETATM   21  C   UNK     0       2.560  40.791  26.738  0.00  0.00     0.074 A 
BRANCH  16  22
HETATM   22  C   UNK     0       4.535  43.718  21.386  0.00  0.00     0.001 A 
HETATM   23  C   UNK     0       4.826  45.042  21.050  0.00  0.00     0.053 A 
HETATM   24  C   UNK     0       5.080  45.386  19.721  0.00  0.00     0.099 A 
HETATM   25  C   UNK     0       5.043  44.409  18.728  0.00  0.00     0.098 A 
HETATM   26  C   UNK     0       4.754  43.086  19.062  0.00  0.00     0.040 A 
HETATM   27  C   UNK     0       4.500  42.740  20.389  0.00  0.00     0.017 A 
BRANCH  24  28
HETATM   28  O   UNK     0       5.360  46.682  19.406  0.00  0.00    -0.358 OA
HETATM   29  H   UNK     0       4.644  47.242  19.753  0.00  0.00     0.217 HD
ENDBRANCH  24  28
BRANCH  25  30
HETATM   30  O   UNK     0       5.290  44.733  17.428  0.00  0.00    -0.358 OA
HETATM   31  H   UNK     0       5.996  45.402  17.397  0.00  0.00     0.217 HD
ENDBRANCH  25  30
ENDBRANCH  16  22
BRANCH  20  32
HETATM   32  O   UNK     0       3.696  42.588  27.769  0.00  0.00    -0.360 OA
HETATM   33  H   UNK     0       4.269  42.013  28.298  0.00  0.00     0.217 HD
ENDBRANCH  20  32
ENDBRANCH  10  11
ENDBRANCH   6  10
BRANCH   3  34
HETATM   34  O   UNK     0       0.959  34.564  22.418  0.00  0.00    -0.390 OA
HETATM   35  H   UNK     0       0.071  34.244  22.183  0.00  0.00     0.210 HD
ENDBRANCH   3  34
BRANCH   4  36
HETATM   36  O   UNK     0       3.486  37.046  25.653  0.00  0.00    -0.388 OA
HETATM   37  H   UNK     0       3.972  37.382  24.880  0.00  0.00     0.210 HD
ENDBRANCH   4  36
BRANCH   2  38
HETATM   38  O   UNK     0       2.501  34.385  24.858  0.00  0.00    -0.390 OA
HETATM   39  H   UNK     0       1.668  34.011  25.192  0.00  0.00     0.210 HD
ENDBRANCH   2  38
TORSDOF 11
ENDMDL
