MODEL 1
REMARK VINA RESULT:      -8.6      0.000      0.000
REMARK  Name = 9823887
REMARK                            x       y       z     vdW  Elec       q    Type
REMARK                         _______ _______ _______ _____ _____    ______ ____
ROOT
ATOM      1  O   LIG    1       74.771  33.688  33.334  0.00  0.00    -0.341 OA
ATOM      2  C   LIG    1       74.448  32.690  34.299  0.00  0.00    +0.282 C 
ATOM      3  C   LIG    1       73.180  33.074  35.063  0.00  0.00    +0.201 C 
ATOM      4  C   LIG    1       72.024  33.372  34.110  0.00  0.00    +0.179 C 
ATOM      5  C   LIG    1       72.457  34.324  32.995  0.00  0.00    +0.177 C 
ATOM     22  C   LIG    1       73.755  33.843  32.342  0.00  0.00    +0.178 C 
ENDROOT
BRANCH   5   6
ATOM      6  O   LIG    1       71.430  34.394  32.009  0.00  0.00    -0.386 OA
ATOM      7  H   LIG    1       71.525  35.240  31.537  0.00  0.00    +0.210 HD
ENDBRANCH   5   6
BRANCH   4   8
ATOM      8  O   LIG    1       70.960  33.993  34.832  0.00  0.00    -0.386 OA
ATOM      9  H   LIG    1       70.767  34.841  34.397  0.00  0.00    +0.210 HD
ENDBRANCH   4   8
BRANCH   3  10
ATOM     10  O   LIG    1       72.824  31.985  35.915  0.00  0.00    -0.384 OA
ATOM     11  H   LIG    1       73.419  31.242  35.718  0.00  0.00    +0.210 HD
ENDBRANCH   3  10
BRANCH   2  12
ATOM     12  O   LIG    1       75.511  32.567  35.241  0.00  0.00    -0.345 OA
BRANCH  12  13
ATOM     13  C   LIG    1       75.862  33.827  35.791  0.00  0.00    +0.190 C 
BRANCH  13  14
ATOM     14  C   LIG    1       77.085  33.661  36.634  0.00  0.00    +0.001 C 
ATOM     15  C   LIG    1       77.128  33.968  37.940  0.00  0.00    +0.006 C 
BRANCH  15  16
ATOM     16  C   LIG    1       78.304  33.808  38.812  0.00  0.00    -0.025 A 
ATOM     17  C   LIG    1       78.665  34.841  39.662  0.00  0.00    +0.008 A 
ATOM     18  C   LIG    1       79.778  34.689  40.488  0.00  0.00    +0.001 A 
ATOM     19  C   LIG    1       80.517  33.507  40.452  0.00  0.00    +0.000 A 
ATOM     20  C   LIG    1       80.143  32.476  39.591  0.00  0.00    +0.001 A 
ATOM     21  C   LIG    1       79.028  32.628  38.765  0.00  0.00    +0.008 A 
ENDBRANCH  15  16
ENDBRANCH  13  14
ENDBRANCH  12  13
ENDBRANCH   2  12
BRANCH  22  23
ATOM     23  C   LIG    1       74.269  34.837  31.306  0.00  0.00    +0.197 C 
BRANCH  23  24
ATOM     24  O   LIG    1       73.671  36.097  31.555  0.00  0.00    -0.346 OA
BRANCH  24  25
ATOM     25  C   LIG    1       74.502  37.170  31.125  0.00  0.00    +0.281 C 
ATOM     26  C   LIG    1       74.063  37.646  29.732  0.00  0.00    +0.201 C 
ATOM     27  C   LIG    1       72.761  38.452  29.783  0.00  0.00    +0.178 C 
ATOM     28  C   LIG    1       72.849  39.529  30.865  0.00  0.00    +0.171 C 
ATOM     29  C   LIG    1       73.269  38.919  32.196  0.00  0.00    +0.197 C 
ATOM     36  O   LIG    1       74.519  38.246  32.069  0.00  0.00    -0.346 OA
BRANCH  28  30
ATOM     30  O   LIG    1       71.597  40.188  30.994  0.00  0.00    -0.387 OA
ATOM     31  H   LIG    1       71.678  41.059  30.568  0.00  0.00    +0.210 HD
ENDBRANCH  28  30
BRANCH  27  32
ATOM     32  O   LIG    1       71.670  37.580  30.074  0.00  0.00    -0.386 OA
ATOM     33  H   LIG    1       70.951  38.122  30.441  0.00  0.00    +0.210 HD
ENDBRANCH  27  32
BRANCH  26  34
ATOM     34  O   LIG    1       75.102  38.462  29.197  0.00  0.00    -0.384 OA
ATOM     35  H   LIG    1       74.775  39.375  29.133  0.00  0.00    +0.210 HD
ENDBRANCH  26  34
ENDBRANCH  24  25
ENDBRANCH  23  24
ENDBRANCH  22  23
TORSDOF 13
ENDMDL
MODEL 2
REMARK VINA RESULT:      -8.6     23.388     25.924
REMARK  Name = 9823887
REMARK                            x       y       z     vdW  Elec       q    Type
REMARK                         _______ _______ _______ _____ _____    ______ ____
ROOT
ATOM      1  O   LIG    1       60.159  18.323  26.444  0.00  0.00    -0.341 OA
ATOM      2  C   LIG    1       60.544  19.229  25.413  0.00  0.00    +0.282 C 
ATOM      3  C   LIG    1       59.347  20.066  24.960  0.00  0.00    +0.201 C 
ATOM      4  C   LIG    1       58.678  20.765  26.143  0.00  0.00    +0.179 C 
ATOM      5  C   LIG    1       58.426  19.790  27.292  0.00  0.00    +0.177 C 
ATOM     22  C   LIG    1       59.691  18.992  27.616  0.00  0.00    +0.178 C 
ENDROOT
BRANCH   5   6
ATOM      6  O   LIG    1       58.019  20.518  28.448  0.00  0.00    -0.386 OA
ATOM      7  H   LIG    1       57.820  19.876  29.152  0.00  0.00    +0.210 HD
ENDBRANCH   5   6
BRANCH   4   8
ATOM      8  O   LIG    1       57.418  21.297  25.731  0.00  0.00    -0.386 OA
ATOM      9  H   LIG    1       56.725  20.729  26.108  0.00  0.00    +0.210 HD
ENDBRANCH   4   8
BRANCH   3  10
ATOM     10  O   LIG    1       59.812  21.045  24.032  0.00  0.00    -0.384 OA
ATOM     11  H   LIG    1       59.489  20.800  23.148  0.00  0.00    +0.210 HD
ENDBRANCH   3  10
BRANCH   2  12
ATOM     12  O   LIG    1       61.023  18.500  24.284  0.00  0.00    -0.345 OA
BRANCH  12  13
ATOM     13  C   LIG    1       61.366  17.169  24.636  0.00  0.00    +0.190 C 
BRANCH  13  14
ATOM     14  C   LIG    1       62.381  16.659  23.665  0.00  0.00    +0.001 C 
ATOM     15  C   LIG    1       62.594  17.215  22.462  0.00  0.00    +0.006 C 
BRANCH  15  16
ATOM     16  C   LIG    1       63.592  16.758  21.480  0.00  0.00    -0.025 A 
ATOM     17  C   LIG    1       64.604  17.619  21.087  0.00  0.00    +0.008 A 
ATOM     18  C   LIG    1       65.548  17.185  20.157  0.00  0.00    +0.001 A 
ATOM     19  C   LIG    1       65.468  15.896  19.630  0.00  0.00    +0.000 A 
ATOM     20  C   LIG    1       64.443  15.040  20.034  0.00  0.00    +0.001 A 
ATOM     21  C   LIG    1       63.499  15.474  20.965  0.00  0.00    +0.008 A 
ENDBRANCH  15  16
ENDBRANCH  13  14
ENDBRANCH  12  13
ENDBRANCH   2  12
BRANCH  22  23
ATOM     23  C   LIG    1       59.433  17.930  28.681  0.00  0.00    +0.197 C 
BRANCH  23  24
ATOM     24  O   LIG    1       58.047  17.644  28.705  0.00  0.00    -0.346 OA
BRANCH  24  25
ATOM     25  C   LIG    1       57.798  16.243  28.756  0.00  0.00    +0.281 C 
ATOM     26  C   LIG    1       56.288  15.984  28.871  0.00  0.00    +0.201 C 
ATOM     27  C   LIG    1       55.557  16.236  27.549  0.00  0.00    +0.178 C 
ATOM     28  C   LIG    1       56.277  15.520  26.404  0.00  0.00    +0.171 C 
ATOM     29  C   LIG    1       57.756  15.884  26.390  0.00  0.00    +0.197 C 
ATOM     36  O   LIG    1       58.367  15.555  27.635  0.00  0.00    -0.346 OA
BRANCH  28  30
ATOM     30  O   LIG    1       55.671  15.861  25.165  0.00  0.00    -0.387 OA
ATOM     31  H   LIG    1       56.073  15.302  24.478  0.00  0.00    +0.210 HD
ENDBRANCH  28  30
BRANCH  27  32
ATOM     32  O   LIG    1       55.524  17.637  27.281  0.00  0.00    -0.386 OA
ATOM     33  H   LIG    1       54.596  17.924  27.341  0.00  0.00    +0.210 HD
ENDBRANCH  27  32
BRANCH  26  34
ATOM     34  O   LIG    1       56.103  14.625  29.262  0.00  0.00    -0.384 OA
ATOM     35  H   LIG    1       55.482  14.601  30.008  0.00  0.00    +0.210 HD
ENDBRANCH  26  34
ENDBRANCH  24  25
ENDBRANCH  23  24
ENDBRANCH  22  23
TORSDOF 13
ENDMDL
MODEL 3
REMARK VINA RESULT:      -8.6     23.225     25.461
REMARK  Name = 9823887
REMARK                            x       y       z     vdW  Elec       q    Type
REMARK                         _______ _______ _______ _____ _____    ______ ____
ROOT
ATOM      1  O   LIG    1       61.470  17.384  25.137  0.00  0.00    -0.341 OA
ATOM      2  C   LIG    1       62.182  18.194  24.204  0.00  0.00    +0.282 C 
ATOM      3  C   LIG    1       61.278  19.299  23.655  0.00  0.00    +0.201 C 
ATOM      4  C   LIG    1       60.646  20.112  24.784  0.00  0.00    +0.179 C 
ATOM      5  C   LIG    1       60.032  19.202  25.846  0.00  0.00    +0.177 C 
ATOM     22  C   LIG    1       61.027  18.121  26.277  0.00  0.00    +0.178 C 
ENDROOT
BRANCH   5   6
ATOM      6  O   LIG    1       59.663  19.982  26.981  0.00  0.00    -0.386 OA
ATOM      7  H   LIG    1       58.700  19.903  27.098  0.00  0.00    +0.210 HD
ENDBRANCH   5   6
BRANCH   4   8
ATOM      8  O   LIG    1       59.606  20.935  24.253  0.00  0.00    -0.386 OA
ATOM      9  H   LIG    1       59.115  21.305  25.006  0.00  0.00    +0.210 HD
ENDBRANCH   4   8
BRANCH   3  10
ATOM     10  O   LIG    1       62.070  20.158  22.837  0.00  0.00    -0.384 OA
ATOM     11  H   LIG    1       62.762  20.552  23.394  0.00  0.00    +0.210 HD
ENDBRANCH   3  10
BRANCH   2  12
ATOM     12  O   LIG    1       62.617  17.395  23.105  0.00  0.00    -0.345 OA
BRANCH  12  13
ATOM     13  C   LIG    1       63.448  16.330  23.538  0.00  0.00    +0.190 C 
BRANCH  13  14
ATOM     14  C   LIG    1       64.820  16.531  22.978  0.00  0.00    +0.001 C 
ATOM     15  C   LIG    1       65.212  16.037  21.794  0.00  0.00    +0.006 C 
BRANCH  15  16
ATOM     16  C   LIG    1       66.546  16.222  21.197  0.00  0.00    -0.025 A 
ATOM     17  C   LIG    1       66.674  16.976  20.041  0.00  0.00    +0.008 A 
ATOM     18  C   LIG    1       67.937  17.151  19.476  0.00  0.00    +0.001 A 
ATOM     19  C   LIG    1       69.055  16.569  20.073  0.00  0.00    +0.000 A 
ATOM     20  C   LIG    1       68.911  15.813  21.236  0.00  0.00    +0.001 A 
ATOM     21  C   LIG    1       67.648  15.638  21.801  0.00  0.00    +0.008 A 
ENDBRANCH  15  16
ENDBRANCH  13  14
ENDBRANCH  12  13
ENDBRANCH   2  12
BRANCH  22  23
ATOM     23  C   LIG    1       60.398  17.129  27.251  0.00  0.00    +0.197 C 
BRANCH  23  24
ATOM     24  O   LIG    1       59.014  17.036  26.968  0.00  0.00    -0.346 OA
BRANCH  24  25
ATOM     25  C   LIG    1       58.486  15.764  27.328  0.00  0.00    +0.281 C 
ATOM     26  C   LIG    1       57.777  15.858  28.688  0.00  0.00    +0.201 C 
ATOM     27  C   LIG    1       56.427  16.576  28.585  0.00  0.00    +0.178 C 
ATOM     28  C   LIG    1       55.605  15.991  27.436  0.00  0.00    +0.171 C 
ATOM     29  C   LIG    1       56.416  15.980  26.147  0.00  0.00    +0.197 C 
ATOM     36  O   LIG    1       57.620  15.236  26.317  0.00  0.00    -0.346 OA
BRANCH  28  30
ATOM     30  O   LIG    1       54.412  16.744  27.265  0.00  0.00    -0.387 OA
ATOM     31  H   LIG    1       54.576  17.638  27.610  0.00  0.00    +0.210 HD
ENDBRANCH  28  30
BRANCH  27  32
ATOM     32  O   LIG    1       56.644  17.967  28.350  0.00  0.00    -0.386 OA
ATOM     33  H   LIG    1       55.831  18.327  27.955  0.00  0.00    +0.210 HD
ENDBRANCH  27  32
BRANCH  26  34
ATOM     34  O   LIG    1       57.570  14.532  29.170  0.00  0.00    -0.384 OA
ATOM     35  H   LIG    1       58.333  14.281  29.717  0.00  0.00    +0.210 HD
ENDBRANCH  26  34
ENDBRANCH  24  25
ENDBRANCH  23  24
ENDBRANCH  22  23
TORSDOF 13
ENDMDL
MODEL 4
REMARK VINA RESULT:      -8.2      2.117      3.384
REMARK  Name = 9823887
REMARK                            x       y       z     vdW  Elec       q    Type
REMARK                         _______ _______ _______ _____ _____    ______ ____
ROOT
ATOM      1  O   LIG    1       73.030  34.438  30.508  0.00  0.00    -0.341 OA
ATOM      2  C   LIG    1       72.346  33.460  31.288  0.00  0.00    +0.282 C 
ATOM      3  C   LIG    1       71.260  34.118  32.140  0.00  0.00    +0.201 C 
ATOM      4  C   LIG    1       70.314  34.958  31.284  0.00  0.00    +0.179 C 
ATOM      5  C   LIG    1       71.089  35.882  30.345  0.00  0.00    +0.177 C 
ATOM     22  C   LIG    1       72.167  35.104  29.585  0.00  0.00    +0.178 C 
ENDROOT
BRANCH   5   6
ATOM      6  O   LIG    1       70.188  36.473  29.413  0.00  0.00    -0.386 OA
ATOM      7  H   LIG    1       70.189  37.434  29.563  0.00  0.00    +0.210 HD
ENDBRANCH   5   6
BRANCH   4   8
ATOM      8  O   LIG    1       69.501  35.772  32.131  0.00  0.00    -0.386 OA
ATOM      9  H   LIG    1       69.382  36.628  31.686  0.00  0.00    +0.210 HD
ENDBRANCH   4   8
BRANCH   3  10
ATOM     10  O   LIG    1       70.519  33.087  32.794  0.00  0.00    -0.384 OA
ATOM     11  H   LIG    1       71.001  32.251  32.679  0.00  0.00    +0.210 HD
ENDBRANCH   3  10
BRANCH   2  12
ATOM     12  O   LIG    1       73.266  32.816  32.168  0.00  0.00    -0.345 OA
BRANCH  12  13
ATOM     13  C   LIG    1       74.233  33.728  32.663  0.00  0.00    +0.190 C 
BRANCH  13  14
ATOM     14  C   LIG    1       74.927  33.107  33.832  0.00  0.00    +0.001 C 
ATOM     15  C   LIG    1       74.830  33.580  35.084  0.00  0.00    +0.006 C 
BRANCH  15  16
ATOM     16  C   LIG    1       75.482  32.994  36.267  0.00  0.00    -0.025 A 
ATOM     17  C   LIG    1       75.093  31.738  36.705  0.00  0.00    +0.008 A 
ATOM     18  C   LIG    1       75.712  31.184  37.825  0.00  0.00    +0.001 A 
ATOM     19  C   LIG    1       76.710  31.892  38.493  0.00  0.00    +0.000 A 
ATOM     20  C   LIG    1       77.091  33.155  38.042  0.00  0.00    +0.001 A 
ATOM     21  C   LIG    1       76.473  33.709  36.921  0.00  0.00    +0.008 A 
ENDBRANCH  15  16
ENDBRANCH  13  14
ENDBRANCH  12  13
ENDBRANCH   2  12
BRANCH  22  23
ATOM     23  C   LIG    1       73.031  36.025  28.729  0.00  0.00    +0.197 C 
BRANCH  23  24
ATOM     24  O   LIG    1       72.973  37.331  29.273  0.00  0.00    -0.346 OA
BRANCH  24  25
ATOM     25  C   LIG    1       74.250  37.774  29.719  0.00  0.00    +0.281 C 
ATOM     26  C   LIG    1       74.311  39.309  29.690  0.00  0.00    +0.201 C 
ATOM     27  C   LIG    1       73.507  39.940  30.831  0.00  0.00    +0.178 C 
ATOM     28  C   LIG    1       73.870  39.278  32.161  0.00  0.00    +0.171 C 
ATOM     29  C   LIG    1       73.744  37.764  32.059  0.00  0.00    +0.197 C 
ATOM     36  O   LIG    1       74.575  37.259  31.016  0.00  0.00    -0.346 OA
BRANCH  28  30
ATOM     30  O   LIG    1       73.032  39.777  33.193  0.00  0.00    -0.387 OA
ATOM     31  H   LIG    1       73.479  40.545  33.590  0.00  0.00    +0.210 HD
ENDBRANCH  28  30
BRANCH  27  32
ATOM     32  O   LIG    1       72.112  39.767  30.584  0.00  0.00    -0.386 OA
ATOM     33  H   LIG    1       71.753  40.630  30.315  0.00  0.00    +0.210 HD
ENDBRANCH  27  32
BRANCH  26  34
ATOM     34  O   LIG    1       75.678  39.698  29.804  0.00  0.00    -0.384 OA
ATOM     35  H   LIG    1       75.985  40.003  28.934  0.00  0.00    +0.210 HD
ENDBRANCH  26  34
ENDBRANCH  24  25
ENDBRANCH  23  24
ENDBRANCH  22  23
TORSDOF 13
ENDMDL
MODEL 5
REMARK VINA RESULT:      -8.0     22.084     25.757
REMARK  Name = 9823887
REMARK                            x       y       z     vdW  Elec       q    Type
REMARK                         _______ _______ _______ _____ _____    ______ ____
ROOT
ATOM      1  O   LIG    1       60.231  18.165  26.804  0.00  0.00    -0.341 OA
ATOM      2  C   LIG    1       61.603  18.333  26.456  0.00  0.00    +0.282 C 
ATOM      3  C   LIG    1       61.761  19.440  25.413  0.00  0.00    +0.201 C 
ATOM      4  C   LIG    1       61.105  20.739  25.878  0.00  0.00    +0.179 C 
ATOM      5  C   LIG    1       59.688  20.492  26.393  0.00  0.00    +0.177 C 
ATOM     22  C   LIG    1       59.668  19.337  27.397  0.00  0.00    +0.178 C 
ENDROOT
BRANCH   5   6
ATOM      6  O   LIG    1       59.201  21.674  27.024  0.00  0.00    -0.386 OA
ATOM      7  H   LIG    1       59.781  21.869  27.781  0.00  0.00    +0.210 HD
ENDBRANCH   5   6
BRANCH   4   8
ATOM      8  O   LIG    1       61.024  21.650  24.780  0.00  0.00    -0.386 OA
ATOM      9  H   LIG    1       61.055  21.124  23.963  0.00  0.00    +0.210 HD
ENDBRANCH   4   8
BRANCH   3  10
ATOM     10  O   LIG    1       63.155  19.660  25.203  0.00  0.00    -0.384 OA
ATOM     11  H   LIG    1       63.523  18.872  24.769  0.00  0.00    +0.210 HD
ENDBRANCH   3  10
BRANCH   2  12
ATOM     12  O   LIG    1       62.109  17.123  25.895  0.00  0.00    -0.345 OA
BRANCH  12  13
ATOM     13  C   LIG    1       61.284  16.659  24.838  0.00  0.00    +0.190 C 
BRANCH  13  14
ATOM     14  C   LIG    1       62.155  16.166  23.728  0.00  0.00    +0.001 C 
ATOM     15  C   LIG    1       62.775  16.980  22.860  0.00  0.00    +0.006 C 
BRANCH  15  16
ATOM     16  C   LIG    1       63.653  16.541  21.762  0.00  0.00    -0.025 A 
ATOM     17  C   LIG    1       64.702  17.355  21.364  0.00  0.00    +0.008 A 
ATOM     18  C   LIG    1       65.532  16.938  20.324  0.00  0.00    +0.001 A 
ATOM     19  C   LIG    1       65.303  15.715  19.694  0.00  0.00    +0.000 A 
ATOM     20  C   LIG    1       64.243  14.907  20.105  0.00  0.00    +0.001 A 
ATOM     21  C   LIG    1       63.412  15.323  21.146  0.00  0.00    +0.008 A 
ENDBRANCH  15  16
ENDBRANCH  13  14
ENDBRANCH  12  13
ENDBRANCH   2  12
BRANCH  22  23
ATOM     23  C   LIG    1       58.248  18.994  27.837  0.00  0.00    +0.197 C 
BRANCH  23  24
ATOM     24  O   LIG    1       57.858  17.790  27.203  0.00  0.00    -0.346 OA
BRANCH  24  25
ATOM     25  C   LIG    1       56.518  17.433  27.525  0.00  0.00    +0.281 C 
ATOM     26  C   LIG    1       56.099  16.193  26.721  0.00  0.00    +0.201 C 
ATOM     27  C   LIG    1       56.748  14.912  27.256  0.00  0.00    +0.178 C 
ATOM     28  C   LIG    1       56.566  14.824  28.773  0.00  0.00    +0.171 C 
ATOM     29  C   LIG    1       57.042  16.104  29.446  0.00  0.00    +0.197 C 
ATOM     36  O   LIG    1       56.340  17.234  28.932  0.00  0.00    -0.346 OA
BRANCH  28  30
ATOM     30  O   LIG    1       57.277  13.703  29.280  0.00  0.00    -0.387 OA
ATOM     31  H   LIG    1       57.123  13.667  30.239  0.00  0.00    +0.210 HD
ENDBRANCH  28  30
BRANCH  27  32
ATOM     32  O   LIG    1       58.141  14.918  26.949  0.00  0.00    -0.386 OA
ATOM     33  H   LIG    1       58.227  14.891  25.980  0.00  0.00    +0.210 HD
ENDBRANCH  27  32
BRANCH  26  34
ATOM     34  O   LIG    1       54.681  16.073  26.802  0.00  0.00    -0.384 OA
ATOM     35  H   LIG    1       54.363  15.627  26.000  0.00  0.00    +0.210 HD
ENDBRANCH  26  34
ENDBRANCH  24  25
ENDBRANCH  23  24
ENDBRANCH  22  23
TORSDOF 13
ENDMDL
MODEL 6
REMARK VINA RESULT:      -7.9      2.662      4.209
REMARK  Name = 9823887
REMARK                            x       y       z     vdW  Elec       q    Type
REMARK                         _______ _______ _______ _____ _____    ______ ____
ROOT
ATOM      1  O   LIG    1       73.959  34.136  30.105  0.00  0.00    -0.341 OA
ATOM      2  C   LIG    1       75.158  33.372  30.206  0.00  0.00    +0.282 C 
ATOM      3  C   LIG    1       75.055  32.101  29.362  0.00  0.00    +0.201 C 
ATOM      4  C   LIG    1       74.678  32.422  27.916  0.00  0.00    +0.179 C 
ATOM      5  C   LIG    1       73.484  33.373  27.854  0.00  0.00    +0.177 C 
ATOM     22  C   LIG    1       73.701  34.579  28.771  0.00  0.00    +0.178 C 
ENDROOT
BRANCH   5   6
ATOM      6  O   LIG    1       73.311  33.826  26.513  0.00  0.00    -0.386 OA
ATOM      7  H   LIG    1       72.742  33.185  26.052  0.00  0.00    +0.210 HD
ENDBRANCH   5   6
BRANCH   4   8
ATOM      8  O   LIG    1       74.318  31.216  27.240  0.00  0.00    -0.386 OA
ATOM      9  H   LIG    1       73.704  30.731  27.817  0.00  0.00    +0.210 HD
ENDBRANCH   4   8
BRANCH   3  10
ATOM     10  O   LIG    1       76.322  31.444  29.387  0.00  0.00    -0.384 OA
ATOM     11  H   LIG    1       76.377  30.865  28.609  0.00  0.00    +0.210 HD
ENDBRANCH   3  10
BRANCH   2  12
ATOM     12  O   LIG    1       75.370  32.984  31.562  0.00  0.00    -0.345 OA
BRANCH  12  13
ATOM     13  C   LIG    1       75.501  34.115  32.408  0.00  0.00    +0.190 C 
BRANCH  13  14
ATOM     14  C   LIG    1       76.021  33.666  33.736  0.00  0.00    +0.001 C 
ATOM     15  C   LIG    1       75.241  33.493  34.813  0.00  0.00    +0.006 C 
BRANCH  15  16
ATOM     16  C   LIG    1       75.706  33.038  36.135  0.00  0.00    -0.025 A 
ATOM     17  C   LIG    1       75.255  31.827  36.635  0.00  0.00    +0.008 A 
ATOM     18  C   LIG    1       75.696  31.398  37.886  0.00  0.00    +0.001 A 
ATOM     19  C   LIG    1       76.581  32.185  38.622  0.00  0.00    +0.000 A 
ATOM     20  C   LIG    1       77.027  33.402  38.107  0.00  0.00    +0.001 A 
ATOM     21  C   LIG    1       76.585  33.831  36.855  0.00  0.00    +0.008 A 
ENDBRANCH  15  16
ENDBRANCH  13  14
ENDBRANCH  12  13
ENDBRANCH   2  12
BRANCH  22  23
ATOM     23  C   LIG    1       72.474  35.484  28.815  0.00  0.00    +0.197 C 
BRANCH  23  24
ATOM     24  O   LIG    1       72.622  36.393  29.891  0.00  0.00    -0.346 OA
BRANCH  24  25
ATOM     25  C   LIG    1       73.590  37.397  29.605  0.00  0.00    +0.281 C 
ATOM     26  C   LIG    1       72.897  38.757  29.431  0.00  0.00    +0.201 C 
ATOM     27  C   LIG    1       72.435  39.344  30.769  0.00  0.00    +0.178 C 
ATOM     28  C   LIG    1       73.576  39.296  31.787  0.00  0.00    +0.171 C 
ATOM     29  C   LIG    1       74.155  37.890  31.878  0.00  0.00    +0.197 C 
ATOM     36  O   LIG    1       74.616  37.452  30.602  0.00  0.00    -0.346 OA
BRANCH  28  30
ATOM     30  O   LIG    1       73.107  39.723  33.058  0.00  0.00    -0.387 OA
ATOM     31  H   LIG    1       73.804  39.530  33.708  0.00  0.00    +0.210 HD
ENDBRANCH  28  30
BRANCH  27  32
ATOM     32  O   LIG    1       71.329  38.591  31.265  0.00  0.00    -0.386 OA
ATOM     33  H   LIG    1       71.589  38.224  32.127  0.00  0.00    +0.210 HD
ENDBRANCH  27  32
BRANCH  26  34
ATOM     34  O   LIG    1       73.824  39.649  28.818  0.00  0.00    -0.384 OA
ATOM     35  H   LIG    1       74.676  39.572  29.280  0.00  0.00    +0.210 HD
ENDBRANCH  26  34
ENDBRANCH  24  25
ENDBRANCH  23  24
ENDBRANCH  22  23
TORSDOF 13
ENDMDL
MODEL 7
REMARK VINA RESULT:      -7.9     21.491     25.155
REMARK  Name = 9823887
REMARK                            x       y       z     vdW  Elec       q    Type
REMARK                         _______ _______ _______ _____ _____    ______ ____
ROOT
ATOM      1  O   LIG    1       60.018  19.245  28.132  0.00  0.00    -0.341 OA
ATOM      2  C   LIG    1       60.714  20.402  27.673  0.00  0.00    +0.282 C 
ATOM      3  C   LIG    1       59.771  21.603  27.606  0.00  0.00    +0.201 C 
ATOM      4  C   LIG    1       59.062  21.829  28.941  0.00  0.00    +0.179 C 
ATOM      5  C   LIG    1       58.465  20.530  29.478  0.00  0.00    +0.177 C 
ATOM     22  C   LIG    1       59.502  19.404  29.454  0.00  0.00    +0.178 C 
ENDROOT
BRANCH   5   6
ATOM      6  O   LIG    1       58.020  20.733  30.817  0.00  0.00    -0.386 OA
ATOM      7  H   LIG    1       57.861  19.859  31.216  0.00  0.00    +0.210 HD
ENDBRANCH   5   6
BRANCH   4   8
ATOM      8  O   LIG    1       57.997  22.764  28.761  0.00  0.00    -0.386 OA
ATOM      9  H   LIG    1       57.177  22.253  28.647  0.00  0.00    +0.210 HD
ENDBRANCH   4   8
BRANCH   3  10
ATOM     10  O   LIG    1       60.541  22.758  27.276  0.00  0.00    -0.384 OA
ATOM     11  H   LIG    1       59.933  23.512  27.192  0.00  0.00    +0.210 HD
ENDBRANCH   3  10
BRANCH   2  12
ATOM     12  O   LIG    1       61.225  20.169  26.362  0.00  0.00    -0.345 OA
BRANCH  12  13
ATOM     13  C   LIG    1       60.204  19.728  25.481  0.00  0.00    +0.190 C 
BRANCH  13  14
ATOM     14  C   LIG    1       60.841  19.127  24.269  0.00  0.00    +0.001 C 
ATOM     15  C   LIG    1       61.963  18.392  24.313  0.00  0.00    +0.006 C 
BRANCH  15  16
ATOM     16  C   LIG    1       62.617  17.769  23.150  0.00  0.00    -0.025 A 
ATOM     17  C   LIG    1       62.372  16.434  22.867  0.00  0.00    +0.008 A 
ATOM     18  C   LIG    1       62.992  15.845  21.766  0.00  0.00    +0.001 A 
ATOM     19  C   LIG    1       63.848  16.597  20.961  0.00  0.00    +0.000 A 
ATOM     20  C   LIG    1       64.084  17.939  21.258  0.00  0.00    +0.001 A 
ATOM     21  C   LIG    1       63.465  18.528  22.360  0.00  0.00    +0.008 A 
ENDBRANCH  15  16
ENDBRANCH  13  14
ENDBRANCH  12  13
ENDBRANCH   2  12
BRANCH  22  23
ATOM     23  C   LIG    1       58.897  18.069  29.877  0.00  0.00    +0.197 C 
BRANCH  23  24
ATOM     24  O   LIG    1       58.702  17.276  28.719  0.00  0.00    -0.346 OA
BRANCH  24  25
ATOM     25  C   LIG    1       57.956  16.098  29.005  0.00  0.00    +0.281 C 
ATOM     26  C   LIG    1       56.471  16.450  29.185  0.00  0.00    +0.201 C 
ATOM     27  C   LIG    1       55.787  16.763  27.850  0.00  0.00    +0.178 C 
ATOM     28  C   LIG    1       56.099  15.667  26.829  0.00  0.00    +0.171 C 
ATOM     29  C   LIG    1       57.602  15.437  26.732  0.00  0.00    +0.197 C 
ATOM     36  O   LIG    1       58.140  15.090  28.006  0.00  0.00    -0.346 OA
BRANCH  28  30
ATOM     30  O   LIG    1       55.569  16.025  25.561  0.00  0.00    -0.387 OA
ATOM     31  H   LIG    1       55.560  15.224  25.009  0.00  0.00    +0.210 HD
ENDBRANCH  28  30
BRANCH  27  32
ATOM     32  O   LIG    1       56.255  18.016  27.355  0.00  0.00    -0.386 OA
ATOM     33  H   LIG    1       55.495  18.477  26.959  0.00  0.00    +0.210 HD
ENDBRANCH  27  32
BRANCH  26  34
ATOM     34  O   LIG    1       55.825  15.337  29.798  0.00  0.00    -0.384 OA
ATOM     35  H   LIG    1       55.837  15.466  30.761  0.00  0.00    +0.210 HD
ENDBRANCH  26  34
ENDBRANCH  24  25
ENDBRANCH  23  24
ENDBRANCH  22  23
TORSDOF 13
ENDMDL
MODEL 8
REMARK VINA RESULT:      -7.9     22.862     25.097
REMARK  Name = 9823887
REMARK                            x       y       z     vdW  Elec       q    Type
REMARK                         _______ _______ _______ _____ _____    ______ ____
ROOT
ATOM      1  O   LIG    1       61.363  18.031  25.936  0.00  0.00    -0.341 OA
ATOM      2  C   LIG    1       62.143  18.525  24.850  0.00  0.00    +0.282 C 
ATOM      3  C   LIG    1       61.283  19.381  23.919  0.00  0.00    +0.201 C 
ATOM      4  C   LIG    1       60.568  20.491  24.687  0.00  0.00    +0.179 C 
ATOM      5  C   LIG    1       59.875  19.944  25.935  0.00  0.00    +0.177 C 
ATOM     22  C   LIG    1       60.835  19.077  26.753  0.00  0.00    +0.178 C 
ENDROOT
BRANCH   5   6
ATOM      6  O   LIG    1       59.421  21.031  26.737  0.00  0.00    -0.386 OA
ATOM      7  H   LIG    1       58.589  21.360  26.354  0.00  0.00    +0.210 HD
ENDBRANCH   5   6
BRANCH   4   8
ATOM      8  O   LIG    1       59.571  21.082  23.851  0.00  0.00    -0.386 OA
ATOM      9  H   LIG    1       59.795  20.862  22.931  0.00  0.00    +0.210 HD
ENDBRANCH   4   8
BRANCH   3  10
ATOM     10  O   LIG    1       62.135  19.960  22.931  0.00  0.00    -0.384 OA
ATOM     11  H   LIG    1       63.050  19.701  23.132  0.00  0.00    +0.210 HD
ENDBRANCH   3  10
BRANCH   2  12
ATOM     12  O   LIG    1       62.660  17.433  24.092  0.00  0.00    -0.345 OA
BRANCH  12  13
ATOM     13  C   LIG    1       63.931  17.025  24.573  0.00  0.00    +0.190 C 
BRANCH  13  14
ATOM     14  C   LIG    1       64.783  16.630  23.410  0.00  0.00    +0.001 C 
ATOM     15  C   LIG    1       65.829  17.353  22.983  0.00  0.00    +0.006 C 
BRANCH  15  16
ATOM     16  C   LIG    1       66.704  16.996  21.853  0.00  0.00    -0.025 A 
ATOM     17  C   LIG    1       67.594  15.942  21.989  0.00  0.00    +0.008 A 
ATOM     18  C   LIG    1       68.421  15.605  20.919  0.00  0.00    +0.001 A 
ATOM     19  C   LIG    1       68.350  16.325  19.727  0.00  0.00    +0.000 A 
ATOM     20  C   LIG    1       67.450  17.383  19.604  0.00  0.00    +0.001 A 
ATOM     21  C   LIG    1       66.622  17.721  20.675  0.00  0.00    +0.008 A 
ENDBRANCH  15  16
ENDBRANCH  13  14
ENDBRANCH  12  13
ENDBRANCH   2  12
BRANCH  22  23
ATOM     23  C   LIG    1       60.134  18.425  27.941  0.00  0.00    +0.197 C 
BRANCH  23  24
ATOM     24  O   LIG    1       59.264  17.419  27.455  0.00  0.00    -0.346 OA
BRANCH  24  25
ATOM     25  C   LIG    1       57.927  17.617  27.901  0.00  0.00    +0.281 C 
ATOM     26  C   LIG    1       56.955  16.829  27.009  0.00  0.00    +0.201 C 
ATOM     27  C   LIG    1       57.006  15.324  27.291  0.00  0.00    +0.178 C 
ATOM     28  C   LIG    1       56.898  15.066  28.795  0.00  0.00    +0.171 C 
ATOM     29  C   LIG    1       57.930  15.888  29.556  0.00  0.00    +0.197 C 
ATOM     36  O   LIG    1       57.766  17.278  29.283  0.00  0.00    -0.346 OA
BRANCH  28  30
ATOM     30  O   LIG    1       57.072  13.682  29.061  0.00  0.00    -0.387 OA
ATOM     31  H   LIG    1       57.894  13.399  28.623  0.00  0.00    +0.210 HD
ENDBRANCH  28  30
BRANCH  27  32
ATOM     32  O   LIG    1       58.237  14.789  26.809  0.00  0.00    -0.386 OA
ATOM     33  H   LIG    1       58.207  14.815  25.837  0.00  0.00    +0.210 HD
ENDBRANCH  27  32
BRANCH  26  34
ATOM     34  O   LIG    1       55.637  17.312  27.258  0.00  0.00    -0.384 OA
ATOM     35  H   LIG    1       55.693  18.256  27.483  0.00  0.00    +0.210 HD
ENDBRANCH  26  34
ENDBRANCH  24  25
ENDBRANCH  23  24
ENDBRANCH  22  23
TORSDOF 13
ENDMDL
MODEL 9
REMARK VINA RESULT:      -7.8     21.732     25.151
REMARK  Name = 9823887
REMARK                            x       y       z     vdW  Elec       q    Type
REMARK                         _______ _______ _______ _____ _____    ______ ____
ROOT
ATOM      1  O   LIG    1       60.607  18.980  25.356  0.00  0.00    -0.341 OA
ATOM      2  C   LIG    1       61.887  18.871  24.738  0.00  0.00    +0.282 C 
ATOM      3  C   LIG    1       62.682  17.718  25.352  0.00  0.00    +0.201 C 
ATOM      4  C   LIG    1       61.890  16.411  25.310  0.00  0.00    +0.179 C 
ATOM      5  C   LIG    1       60.469  16.608  25.835  0.00  0.00    +0.177 C 
ATOM     22  C   LIG    1       59.804  17.814  25.166  0.00  0.00    +0.178 C 
ENDROOT
BRANCH   5   6
ATOM      6  O   LIG    1       59.700  15.438  25.567  0.00  0.00    -0.386 OA
ATOM      7  H   LIG    1       59.532  14.989  26.413  0.00  0.00    +0.210 HD
ENDBRANCH   5   6
BRANCH   4   8
ATOM      8  O   LIG    1       62.534  15.438  26.134  0.00  0.00    -0.386 OA
ATOM      9  H   LIG    1       63.177  15.908  26.692  0.00  0.00    +0.210 HD
ENDBRANCH   4   8
BRANCH   3  10
ATOM     10  O   LIG    1       63.892  17.563  24.611  0.00  0.00    -0.384 OA
ATOM     11  H   LIG    1       64.463  16.942  25.092  0.00  0.00    +0.210 HD
ENDBRANCH   3  10
BRANCH   2  12
ATOM     12  O   LIG    1       62.626  20.073  24.942  0.00  0.00    -0.345 OA
BRANCH  12  13
ATOM     13  C   LIG    1       62.857  20.753  23.719  0.00  0.00    +0.190 C 
BRANCH  13  14
ATOM     14  C   LIG    1       64.224  20.407  23.225  0.00  0.00    +0.001 C 
ATOM     15  C   LIG    1       64.453  19.813  22.044  0.00  0.00    +0.006 C 
BRANCH  15  16
ATOM     16  C   LIG    1       65.782  19.467  21.510  0.00  0.00    -0.025 A 
ATOM     17  C   LIG    1       66.827  20.366  21.655  0.00  0.00    +0.008 A 
ATOM     18  C   LIG    1       68.085  20.037  21.150  0.00  0.00    +0.001 A 
ATOM     19  C   LIG    1       68.282  18.815  20.507  0.00  0.00    +0.000 A 
ATOM     20  C   LIG    1       67.221  17.921  20.369  0.00  0.00    +0.001 A 
ATOM     21  C   LIG    1       65.963  18.249  20.874  0.00  0.00    +0.008 A 
ENDBRANCH  15  16
ENDBRANCH  13  14
ENDBRANCH  12  13
ENDBRANCH   2  12
BRANCH  22  23
ATOM     23  C   LIG    1       58.427  18.102  25.757  0.00  0.00    +0.197 C 
BRANCH  23  24
ATOM     24  O   LIG    1       58.348  17.489  27.031  0.00  0.00    -0.346 OA
BRANCH  24  25
ATOM     25  C   LIG    1       57.043  17.601  27.591  0.00  0.00    +0.281 C 
ATOM     26  C   LIG    1       56.105  16.574  26.938  0.00  0.00    +0.201 C 
ATOM     27  C   LIG    1       56.377  15.149  27.431  0.00  0.00    +0.178 C 
ATOM     28  C   LIG    1       56.443  15.124  28.959  0.00  0.00    +0.171 C 
ATOM     29  C   LIG    1       57.425  16.170  29.471  0.00  0.00    +0.197 C 
ATOM     36  O   LIG    1       57.057  17.470  29.017  0.00  0.00    -0.346 OA
BRANCH  28  30
ATOM     30  O   LIG    1       56.821  13.829  29.404  0.00  0.00    -0.387 OA
ATOM     31  H   LIG    1       57.038  13.299  28.618  0.00  0.00    +0.210 HD
ENDBRANCH  28  30
BRANCH  27  32
ATOM     32  O   LIG    1       57.617  14.688  26.898  0.00  0.00    -0.386 OA
ATOM     33  H   LIG    1       57.986  14.045  27.528  0.00  0.00    +0.210 HD
ENDBRANCH  27  32
BRANCH  26  34
ATOM     34  O   LIG    1       54.764  16.937  27.259  0.00  0.00    -0.384 OA
ATOM     35  H   LIG    1       54.545  16.567  28.130  0.00  0.00    +0.210 HD
ENDBRANCH  26  34
ENDBRANCH  24  25
ENDBRANCH  23  24
ENDBRANCH  22  23
TORSDOF 13
ENDMDL
