MODEL 1
REMARK VINA RESULT:      -7.8      0.000      0.000
REMARK  Name = 9823887
REMARK                            x       y       z     vdW  Elec       q    Type
REMARK                         _______ _______ _______ _____ _____    ______ ____
ROOT
ATOM      1  O   LIG    1      -11.915  46.202  34.183  0.00  0.00    -0.341 OA
ATOM      2  C   LIG    1      -13.022  47.066  33.937  0.00  0.00    +0.282 C 
ATOM      3  C   LIG    1      -14.151  46.784  34.929  0.00  0.00    +0.201 C 
ATOM      4  C   LIG    1      -13.655  46.855  36.372  0.00  0.00    +0.179 C 
ATOM      5  C   LIG    1      -12.374  46.042  36.558  0.00  0.00    +0.177 C 
ATOM     22  C   LIG    1      -11.346  46.394  35.479  0.00  0.00    +0.178 C 
ENDROOT
BRANCH   5   6
ATOM      6  O   LIG    1      -11.822  46.318  37.843  0.00  0.00    -0.386 OA
ATOM      7  H   LIG    1      -10.853  46.300  37.762  0.00  0.00    +0.210 HD
ENDBRANCH   5   6
BRANCH   4   8
ATOM      8  O   LIG    1      -14.650  46.316  37.244  0.00  0.00    -0.386 OA
ATOM      9  H   LIG    1      -14.502  45.357  37.297  0.00  0.00    +0.210 HD
ENDBRANCH   4   8
BRANCH   3  10
ATOM     10  O   LIG    1      -15.174  47.761  34.730  0.00  0.00    -0.384 OA
ATOM     11  H   LIG    1      -15.829  47.659  35.440  0.00  0.00    +0.210 HD
ENDBRANCH   3  10
BRANCH   2  12
ATOM     12  O   LIG    1      -13.525  46.842  32.621  0.00  0.00    -0.345 OA
BRANCH  12  13
ATOM     13  C   LIG    1      -13.343  45.493  32.220  0.00  0.00    +0.190 C 
BRANCH  13  14
ATOM     14  C   LIG    1      -14.540  45.057  31.439  0.00  0.00    +0.001 C 
ATOM     15  C   LIG    1      -14.861  43.770  31.238  0.00  0.00    +0.006 C 
BRANCH  15  16
ATOM     16  C   LIG    1      -16.036  43.294  30.488  0.00  0.00    -0.025 A 
ATOM     17  C   LIG    1      -16.362  43.895  29.282  0.00  0.00    +0.008 A 
ATOM     18  C   LIG    1      -17.474  43.443  28.573  0.00  0.00    +0.001 A 
ATOM     19  C   LIG    1      -18.248  42.399  29.079  0.00  0.00    +0.000 A 
ATOM     20  C   LIG    1      -17.909  41.804  30.294  0.00  0.00    +0.001 A 
ATOM     21  C   LIG    1      -16.795  42.255  31.003  0.00  0.00    +0.008 A 
ENDBRANCH  15  16
ENDBRANCH  13  14
ENDBRANCH  12  13
ENDBRANCH   2  12
BRANCH  22  23
ATOM     23  C   LIG    1      -10.104  45.513  35.573  0.00  0.00    +0.197 C 
BRANCH  23  24
ATOM     24  O   LIG    1      -10.462  44.295  36.201  0.00  0.00    -0.346 OA
BRANCH  24  25
ATOM     25  C   LIG    1       -9.364  43.719  36.900  0.00  0.00    +0.281 C 
ATOM     26  C   LIG    1       -9.607  43.805  38.415  0.00  0.00    +0.201 C 
ATOM     27  C   LIG    1      -10.657  42.795  38.889  0.00  0.00    +0.178 C 
ATOM     28  C   LIG    1      -10.338  41.404  38.337  0.00  0.00    +0.171 C 
ATOM     29  C   LIG    1      -10.147  41.458  36.826  0.00  0.00    +0.197 C 
ATOM     36  O   LIG    1       -9.109  42.373  36.483  0.00  0.00    -0.346 OA
BRANCH  28  30
ATOM     30  O   LIG    1      -11.381  40.500  38.673  0.00  0.00    -0.387 OA
ATOM     31  H   LIG    1      -11.070  39.602  38.465  0.00  0.00    +0.210 HD
ENDBRANCH  28  30
BRANCH  27  32
ATOM     32  O   LIG    1      -11.947  43.198  38.433  0.00  0.00    -0.386 OA
ATOM     33  H   LIG    1      -12.309  42.471  37.898  0.00  0.00    +0.210 HD
ENDBRANCH  27  32
BRANCH  26  34
ATOM     34  O   LIG    1       -8.370  43.544  39.074  0.00  0.00    -0.384 OA
ATOM     35  H   LIG    1       -8.479  42.758  39.634  0.00  0.00    +0.210 HD
ENDBRANCH  26  34
ENDBRANCH  24  25
ENDBRANCH  23  24
ENDBRANCH  22  23
TORSDOF 13
ENDMDL
MODEL 2
REMARK VINA RESULT:      -7.7      1.567      2.673
REMARK  Name = 9823887
REMARK                            x       y       z     vdW  Elec       q    Type
REMARK                         _______ _______ _______ _____ _____    ______ ____
ROOT
ATOM      1  O   LIG    1      -10.877  45.369  35.605  0.00  0.00    -0.341 OA
ATOM      2  C   LIG    1      -11.422  46.680  35.472  0.00  0.00    +0.282 C 
ATOM      3  C   LIG    1      -11.653  47.306  36.848  0.00  0.00    +0.201 C 
ATOM      4  C   LIG    1      -10.380  47.277  37.693  0.00  0.00    +0.179 C 
ATOM      5  C   LIG    1       -9.738  45.891  37.681  0.00  0.00    +0.177 C 
ATOM     22  C   LIG    1       -9.601  45.368  36.248  0.00  0.00    +0.178 C 
ENDROOT
BRANCH   5   6
ATOM      6  O   LIG    1       -8.448  45.963  38.281  0.00  0.00    -0.386 OA
ATOM      7  H   LIG    1       -7.906  45.243  37.914  0.00  0.00    +0.210 HD
ENDBRANCH   5   6
BRANCH   4   8
ATOM      8  O   LIG    1      -10.701  47.603  39.047  0.00  0.00    -0.386 OA
ATOM      9  H   LIG    1       -9.925  48.044  39.432  0.00  0.00    +0.210 HD
ENDBRANCH   4   8
BRANCH   3  10
ATOM     10  O   LIG    1      -12.067  48.659  36.659  0.00  0.00    -0.384 OA
ATOM     11  H   LIG    1      -12.663  48.688  35.892  0.00  0.00    +0.210 HD
ENDBRANCH   3  10
BRANCH   2  12
ATOM     12  O   LIG    1      -12.679  46.613  34.802  0.00  0.00    -0.345 OA
BRANCH  12  13
ATOM     13  C   LIG    1      -12.511  46.527  33.396  0.00  0.00    +0.190 C 
BRANCH  13  14
ATOM     14  C   LIG    1      -13.432  45.476  32.864  0.00  0.00    +0.001 C 
ATOM     15  C   LIG    1      -13.900  45.473  31.607  0.00  0.00    +0.006 C 
BRANCH  15  16
ATOM     16  C   LIG    1      -14.796  44.452  31.036  0.00  0.00    -0.025 A 
ATOM     17  C   LIG    1      -15.092  44.489  29.683  0.00  0.00    +0.008 A 
ATOM     18  C   LIG    1      -15.939  43.522  29.143  0.00  0.00    +0.001 A 
ATOM     19  C   LIG    1      -16.481  42.532  29.963  0.00  0.00    +0.000 A 
ATOM     20  C   LIG    1      -16.175  42.508  31.323  0.00  0.00    +0.001 A 
ATOM     21  C   LIG    1      -15.327  43.475  31.863  0.00  0.00    +0.008 A 
ENDBRANCH  15  16
ENDBRANCH  13  14
ENDBRANCH  12  13
ENDBRANCH   2  12
BRANCH  22  23
ATOM     23  C   LIG    1       -9.070  43.938  36.217  0.00  0.00    +0.197 C 
BRANCH  23  24
ATOM     24  O   LIG    1       -9.477  43.280  37.403  0.00  0.00    -0.346 OA
BRANCH  24  25
ATOM     25  C   LIG    1      -10.520  42.344  37.156  0.00  0.00    +0.281 C 
ATOM     26  C   LIG    1      -10.230  41.031  37.899  0.00  0.00    +0.201 C 
ATOM     27  C   LIG    1      -10.470  41.156  39.408  0.00  0.00    +0.178 C 
ATOM     28  C   LIG    1      -11.836  41.792  39.672  0.00  0.00    +0.171 C 
ATOM     29  C   LIG    1      -11.981  43.095  38.897  0.00  0.00    +0.197 C 
ATOM     36  O   LIG    1      -11.806  42.870  37.500  0.00  0.00    -0.346 OA
BRANCH  28  30
ATOM     30  O   LIG    1      -11.999  42.022  41.065  0.00  0.00    -0.387 OA
ATOM     31  H   LIG    1      -11.866  42.973  41.223  0.00  0.00    +0.210 HD
ENDBRANCH  28  30
BRANCH  27  32
ATOM     32  O   LIG    1       -9.451  41.970  39.987  0.00  0.00    -0.386 OA
ATOM     33  H   LIG    1       -8.682  41.944  39.392  0.00  0.00    +0.210 HD
ENDBRANCH  27  32
BRANCH  26  34
ATOM     34  O   LIG    1      -11.088  40.024  37.367  0.00  0.00    -0.384 OA
ATOM     35  H   LIG    1      -11.986  40.174  37.706  0.00  0.00    +0.210 HD
ENDBRANCH  26  34
ENDBRANCH  24  25
ENDBRANCH  23  24
ENDBRANCH  22  23
TORSDOF 13
ENDMDL
MODEL 3
REMARK VINA RESULT:      -7.5     19.031     24.789
REMARK  Name = 9823887
REMARK                            x       y       z     vdW  Elec       q    Type
REMARK                         _______ _______ _______ _____ _____    ______ ____
ROOT
ATOM      1  O   LIG    1      -19.936  52.339  14.644  0.00  0.00    -0.341 OA
ATOM      2  C   LIG    1      -19.133  51.163  14.575  0.00  0.00    +0.282 C 
ATOM      3  C   LIG    1      -19.950  49.988  14.037  0.00  0.00    +0.201 C 
ATOM      4  C   LIG    1      -20.610  50.333  12.703  0.00  0.00    +0.179 C 
ATOM      5  C   LIG    1      -21.328  51.680  12.772  0.00  0.00    +0.177 C 
ATOM     22  C   LIG    1      -20.411  52.754  13.363  0.00  0.00    +0.178 C 
ENDROOT
BRANCH   5   6
ATOM      6  O   LIG    1      -21.728  52.070  11.461  0.00  0.00    -0.386 OA
ATOM      7  H   LIG    1      -21.458  52.995  11.328  0.00  0.00    +0.210 HD
ENDBRANCH   5   6
BRANCH   4   8
ATOM      8  O   LIG    1      -21.577  49.333  12.378  0.00  0.00    -0.386 OA
ATOM      9  H   LIG    1      -22.343  49.468  12.963  0.00  0.00    +0.210 HD
ENDBRANCH   4   8
BRANCH   3  10
ATOM     10  O   LIG    1      -19.071  48.877  13.859  0.00  0.00    -0.384 OA
ATOM     11  H   LIG    1      -18.286  49.188  13.379  0.00  0.00    +0.210 HD
ENDBRANCH   3  10
BRANCH   2  12
ATOM     12  O   LIG    1      -18.670  50.818  15.879  0.00  0.00    -0.345 OA
BRANCH  12  13
ATOM     13  C   LIG    1      -17.254  50.843  15.949  0.00  0.00    +0.190 C 
BRANCH  13  14
ATOM     14  C   LIG    1      -16.786  49.639  16.701  0.00  0.00    +0.001 C 
ATOM     15  C   LIG    1      -15.896  49.695  17.704  0.00  0.00    +0.006 C 
BRANCH  15  16
ATOM     16  C   LIG    1      -15.418  48.539  18.481  0.00  0.00    -0.025 A 
ATOM     17  C   LIG    1      -15.783  47.260  18.090  0.00  0.00    +0.008 A 
ATOM     18  C   LIG    1      -15.330  46.166  18.826  0.00  0.00    +0.001 A 
ATOM     19  C   LIG    1      -14.519  46.364  19.944  0.00  0.00    +0.000 A 
ATOM     20  C   LIG    1      -14.161  47.656  20.326  0.00  0.00    +0.001 A 
ATOM     21  C   LIG    1      -14.614  48.751  19.589  0.00  0.00    +0.008 A 
ENDBRANCH  15  16
ENDBRANCH  13  14
ENDBRANCH  12  13
ENDBRANCH   2  12
BRANCH  22  23
ATOM     23  C   LIG    1      -21.142  54.080  13.550  0.00  0.00    +0.197 C 
BRANCH  23  24
ATOM     24  O   LIG    1      -21.173  54.758  12.307  0.00  0.00    -0.346 OA
BRANCH  24  25
ATOM     25  C   LIG    1      -21.348  56.161  12.475  0.00  0.00    +0.281 C 
ATOM     26  C   LIG    1      -20.673  56.914  11.318  0.00  0.00    +0.201 C 
ATOM     27  C   LIG    1      -21.469  56.799  10.013  0.00  0.00    +0.178 C 
ATOM     28  C   LIG    1      -22.941  57.131  10.264  0.00  0.00    +0.171 C 
ATOM     29  C   LIG    1      -23.490  56.299  11.415  0.00  0.00    +0.197 C 
ATOM     36  O   LIG    1      -22.729  56.518  12.601  0.00  0.00    -0.346 OA
BRANCH  28  30
ATOM     30  O   LIG    1      -23.695  56.900   9.082  0.00  0.00    -0.387 OA
ATOM     31  H   LIG    1      -24.419  56.291   9.309  0.00  0.00    +0.210 HD
ENDBRANCH  28  30
BRANCH  27  32
ATOM     32  O   LIG    1      -21.365  55.470   9.506  0.00  0.00    -0.386 OA
ATOM     33  H   LIG    1      -21.764  54.874  10.162  0.00  0.00    +0.210 HD
ENDBRANCH  27  32
BRANCH  26  34
ATOM     34  O   LIG    1      -20.568  58.287  11.688  0.00  0.00    -0.384 OA
ATOM     35  H   LIG    1      -19.911  58.711  11.111  0.00  0.00    +0.210 HD
ENDBRANCH  26  34
ENDBRANCH  24  25
ENDBRANCH  23  24
ENDBRANCH  22  23
TORSDOF 13
ENDMDL
MODEL 4
REMARK VINA RESULT:      -7.5     13.851     18.276
REMARK  Name = 9823887
REMARK                            x       y       z     vdW  Elec       q    Type
REMARK                         _______ _______ _______ _____ _____    ______ ____
ROOT
ATOM      1  O   LIG    1        1.446  42.190  39.935  0.00  0.00    -0.341 OA
ATOM      2  C   LIG    1        1.141  42.011  38.554  0.00  0.00    +0.282 C 
ATOM      3  C   LIG    1        0.169  40.846  38.367  0.00  0.00    +0.201 C 
ATOM      4  C   LIG    1       -1.079  41.017  39.232  0.00  0.00    +0.179 C 
ATOM      5  C   LIG    1       -0.711  41.366  40.673  0.00  0.00    +0.177 C 
ATOM     22  C   LIG    1        0.295  42.519  40.713  0.00  0.00    +0.178 C 
ENDROOT
BRANCH   5   6
ATOM      6  O   LIG    1       -1.888  41.741  41.384  0.00  0.00    -0.386 OA
ATOM      7  H   LIG    1       -1.696  42.562  41.869  0.00  0.00    +0.210 HD
ENDBRANCH   5   6
BRANCH   4   8
ATOM      8  O   LIG    1       -1.819  39.795  39.248  0.00  0.00    -0.386 OA
ATOM      9  H   LIG    1       -1.251  39.117  39.653  0.00  0.00    +0.210 HD
ENDBRANCH   4   8
BRANCH   3  10
ATOM     10  O   LIG    1       -0.210  40.796  36.991  0.00  0.00    -0.384 OA
ATOM     11  H   LIG    1       -1.163  40.609  36.948  0.00  0.00    +0.210 HD
ENDBRANCH   3  10
BRANCH   2  12
ATOM     12  O   LIG    1        2.333  41.711  37.831  0.00  0.00    -0.345 OA
BRANCH  12  13
ATOM     13  C   LIG    1        3.416  42.519  38.262  0.00  0.00    +0.190 C 
BRANCH  13  14
ATOM     14  C   LIG    1        4.698  41.831  37.919  0.00  0.00    +0.001 C 
ATOM     15  C   LIG    1        5.792  42.480  37.492  0.00  0.00    +0.006 C 
BRANCH  15  16
ATOM     16  C   LIG    1        7.079  41.846  37.156  0.00  0.00    -0.025 A 
ATOM     17  C   LIG    1        7.099  40.518  36.760  0.00  0.00    +0.008 A 
ATOM     18  C   LIG    1        8.317  39.919  36.442  0.00  0.00    +0.001 A 
ATOM     19  C   LIG    1        9.500  40.654  36.525  0.00  0.00    +0.000 A 
ATOM     20  C   LIG    1        9.464  41.989  36.926  0.00  0.00    +0.001 A 
ATOM     21  C   LIG    1        8.245  42.589  37.243  0.00  0.00    +0.008 A 
ENDBRANCH  15  16
ENDBRANCH  13  14
ENDBRANCH  12  13
ENDBRANCH   2  12
BRANCH  22  23
ATOM     23  C   LIG    1        0.767  42.808  42.135  0.00  0.00    +0.197 C 
BRANCH  23  24
ATOM     24  O   LIG    1        1.327  41.624  42.673  0.00  0.00    -0.346 OA
BRANCH  24  25
ATOM     25  C   LIG    1        2.458  41.900  43.493  0.00  0.00    +0.281 C 
ATOM     26  C   LIG    1        2.893  40.624  44.230  0.00  0.00    +0.201 C 
ATOM     27  C   LIG    1        3.599  39.634  43.298  0.00  0.00    +0.178 C 
ATOM     28  C   LIG    1        4.685  40.350  42.493  0.00  0.00    +0.171 C 
ATOM     29  C   LIG    1        4.115  41.578  41.796  0.00  0.00    +0.197 C 
ATOM     36  O   LIG    1        3.537  42.472  42.745  0.00  0.00    -0.346 OA
BRANCH  28  30
ATOM     30  O   LIG    1        5.249  39.457  41.542  0.00  0.00    -0.387 OA
ATOM     31  H   LIG    1        5.973  39.926  41.092  0.00  0.00    +0.210 HD
ENDBRANCH  28  30
BRANCH  27  32
ATOM     32  O   LIG    1        2.649  39.061  42.402  0.00  0.00    -0.386 OA
ATOM     33  H   LIG    1        1.767  39.368  42.674  0.00  0.00    +0.210 HD
ENDBRANCH  27  32
BRANCH  26  34
ATOM     34  O   LIG    1        3.782  41.002  45.278  0.00  0.00    -0.384 OA
ATOM     35  H   LIG    1        3.699  41.960  45.422  0.00  0.00    +0.210 HD
ENDBRANCH  26  34
ENDBRANCH  24  25
ENDBRANCH  23  24
ENDBRANCH  22  23
TORSDOF 13
ENDMDL
MODEL 5
REMARK VINA RESULT:      -7.3     18.847     24.639
REMARK  Name = 9823887
REMARK                            x       y       z     vdW  Elec       q    Type
REMARK                         _______ _______ _______ _____ _____    ______ ____
ROOT
ATOM      1  O   LIG    1      -19.977  51.866  13.782  0.00  0.00    -0.341 OA
ATOM      2  C   LIG    1      -18.638  51.381  13.847  0.00  0.00    +0.282 C 
ATOM      3  C   LIG    1      -18.546  49.982  13.235  0.00  0.00    +0.201 C 
ATOM      4  C   LIG    1      -19.117  49.956  11.818  0.00  0.00    +0.179 C 
ATOM      5  C   LIG    1      -20.487  50.630  11.760  0.00  0.00    +0.177 C 
ATOM     22  C   LIG    1      -20.447  52.001  12.440  0.00  0.00    +0.178 C 
ENDROOT
BRANCH   5   6
ATOM      6  O   LIG    1      -20.878  50.790  10.399  0.00  0.00    -0.386 OA
ATOM      7  H   LIG    1      -21.459  50.045  10.164  0.00  0.00    +0.210 HD
ENDBRANCH   5   6
BRANCH   4   8
ATOM      8  O   LIG    1      -19.273  48.601  11.393  0.00  0.00    -0.386 OA
ATOM      9  H   LIG    1      -18.412  48.162  11.499  0.00  0.00    +0.210 HD
ENDBRANCH   4   8
BRANCH   3  10
ATOM     10  O   LIG    1      -17.171  49.600  13.200  0.00  0.00    -0.384 OA
ATOM     11  H   LIG    1      -16.664  50.334  12.814  0.00  0.00    +0.210 HD
ENDBRANCH   3  10
BRANCH   2  12
ATOM     12  O   LIG    1      -18.222  51.294  15.208  0.00  0.00    -0.345 OA
BRANCH  12  13
ATOM     13  C   LIG    1      -19.072  50.438  15.955  0.00  0.00    +0.190 C 
BRANCH  13  14
ATOM     14  C   LIG    1      -18.231  49.580  16.844  0.00  0.00    +0.001 C 
ATOM     15  C   LIG    1      -16.898  49.703  16.941  0.00  0.00    +0.006 C 
BRANCH  15  16
ATOM     16  C   LIG    1      -16.032  48.890  17.813  0.00  0.00    -0.025 A 
ATOM     17  C   LIG    1      -15.025  49.509  18.537  0.00  0.00    +0.008 A 
ATOM     18  C   LIG    1      -14.206  48.740  19.362  0.00  0.00    +0.001 A 
ATOM     19  C   LIG    1      -14.401  47.362  19.451  0.00  0.00    +0.000 A 
ATOM     20  C   LIG    1      -15.418  46.753  18.716  0.00  0.00    +0.001 A 
ATOM     21  C   LIG    1      -16.238  47.522  17.891  0.00  0.00    +0.008 A 
ENDBRANCH  15  16
ENDBRANCH  13  14
ENDBRANCH  12  13
ENDBRANCH   2  12
BRANCH  22  23
ATOM     23  C   LIG    1      -21.830  52.643  12.498  0.00  0.00    +0.197 C 
BRANCH  23  24
ATOM     24  O   LIG    1      -21.675  54.023  12.774  0.00  0.00    -0.346 OA
BRANCH  24  25
ATOM     25  C   LIG    1      -22.529  54.823  11.963  0.00  0.00    +0.281 C 
ATOM     26  C   LIG    1      -23.004  56.050  12.756  0.00  0.00    +0.201 C 
ATOM     27  C   LIG    1      -21.897  57.097  12.917  0.00  0.00    +0.178 C 
ATOM     28  C   LIG    1      -21.241  57.382  11.564  0.00  0.00    +0.171 C 
ATOM     29  C   LIG    1      -20.796  56.086  10.899  0.00  0.00    +0.197 C 
ATOM     36  O   LIG    1      -21.901  55.201  10.732  0.00  0.00    -0.346 OA
BRANCH  28  30
ATOM     30  O   LIG    1      -20.134  58.256  11.739  0.00  0.00    -0.387 OA
ATOM     31  H   LIG    1      -19.326  57.742  11.571  0.00  0.00    +0.210 HD
ENDBRANCH  28  30
BRANCH  27  32
ATOM     32  O   LIG    1      -20.910  56.612  13.826  0.00  0.00    -0.386 OA
ATOM     33  H   LIG    1      -20.165  56.277  13.297  0.00  0.00    +0.210 HD
ENDBRANCH  27  32
BRANCH  26  34
ATOM     34  O   LIG    1      -24.103  56.629  12.055  0.00  0.00    -0.384 OA
ATOM     35  H   LIG    1      -23.769  57.359  11.508  0.00  0.00    +0.210 HD
ENDBRANCH  26  34
ENDBRANCH  24  25
ENDBRANCH  23  24
ENDBRANCH  22  23
TORSDOF 13
ENDMDL
MODEL 6
REMARK VINA RESULT:      -7.3      1.856      2.307
REMARK  Name = 9823887
REMARK                            x       y       z     vdW  Elec       q    Type
REMARK                         _______ _______ _______ _____ _____    ______ ____
ROOT
ATOM      1  O   LIG    1      -11.884  46.622  36.793  0.00  0.00    -0.341 OA
ATOM      2  C   LIG    1      -12.149  47.526  35.722  0.00  0.00    +0.282 C 
ATOM      3  C   LIG    1      -12.687  48.852  36.261  0.00  0.00    +0.201 C 
ATOM      4  C   LIG    1      -11.755  49.442  37.318  0.00  0.00    +0.179 C 
ATOM      5  C   LIG    1      -11.367  48.396  38.362  0.00  0.00    +0.177 C 
ATOM     22  C   LIG    1      -10.883  47.109  37.688  0.00  0.00    +0.178 C 
ENDROOT
BRANCH   5   6
ATOM      6  O   LIG    1      -10.327  48.915  39.187  0.00  0.00    -0.386 OA
ATOM      7  H   LIG    1       -9.484  48.538  38.881  0.00  0.00    +0.210 HD
ENDBRANCH   5   6
BRANCH   4   8
ATOM      8  O   LIG    1      -12.418  50.513  37.992  0.00  0.00    -0.386 OA
ATOM      9  H   LIG    1      -13.153  50.128  38.499  0.00  0.00    +0.210 HD
ENDBRANCH   4   8
BRANCH   3  10
ATOM     10  O   LIG    1      -12.804  49.764  35.170  0.00  0.00    -0.384 OA
ATOM     11  H   LIG    1      -13.033  50.637  35.529  0.00  0.00    +0.210 HD
ENDBRANCH   3  10
BRANCH   2  12
ATOM     12  O   LIG    1      -13.135  46.970  34.854  0.00  0.00    -0.345 OA
BRANCH  12  13
ATOM     13  C   LIG    1      -12.562  46.542  33.629  0.00  0.00    +0.190 C 
BRANCH  13  14
ATOM     14  C   LIG    1      -13.427  45.474  33.041  0.00  0.00    +0.001 C 
ATOM     15  C   LIG    1      -13.949  45.544  31.807  0.00  0.00    +0.006 C 
BRANCH  15  16
ATOM     16  C   LIG    1      -14.793  44.511  31.181  0.00  0.00    -0.025 A 
ATOM     17  C   LIG    1      -14.993  44.536  29.810  0.00  0.00    +0.008 A 
ATOM     18  C   LIG    1      -15.791  43.557  29.219  0.00  0.00    +0.001 A 
ATOM     19  C   LIG    1      -16.380  42.568  30.006  0.00  0.00    +0.000 A 
ATOM     20  C   LIG    1      -16.170  42.555  31.384  0.00  0.00    +0.001 A 
ATOM     21  C   LIG    1      -15.371  43.534  31.976  0.00  0.00    +0.008 A 
ENDBRANCH  15  16
ENDBRANCH  13  14
ENDBRANCH  12  13
ENDBRANCH   2  12
BRANCH  22  23
ATOM     23  C   LIG    1      -10.601  46.009  38.706  0.00  0.00    +0.197 C 
BRANCH  23  24
ATOM     24  O   LIG    1      -10.655  44.758  38.045  0.00  0.00    -0.346 OA
BRANCH  24  25
ATOM     25  C   LIG    1       -9.628  43.879  38.492  0.00  0.00    +0.281 C 
ATOM     26  C   LIG    1      -10.192  42.902  39.534  0.00  0.00    +0.201 C 
ATOM     27  C   LIG    1      -11.071  41.822  38.895  0.00  0.00    +0.178 C 
ATOM     28  C   LIG    1      -10.348  41.191  37.704  0.00  0.00    +0.171 C 
ATOM     29  C   LIG    1       -9.864  42.266  36.739  0.00  0.00    +0.197 C 
ATOM     36  O   LIG    1       -9.003  43.187  37.405  0.00  0.00    -0.346 OA
BRANCH  28  30
ATOM     30  O   LIG    1      -11.215  40.283  37.039  0.00  0.00    -0.387 OA
ATOM     31  H   LIG    1      -11.902  40.806  36.593  0.00  0.00    +0.210 HD
ENDBRANCH  28  30
BRANCH  27  32
ATOM     32  O   LIG    1      -12.295  42.404  38.449  0.00  0.00    -0.386 OA
ATOM     33  H   LIG    1      -12.316  42.334  37.479  0.00  0.00    +0.210 HD
ENDBRANCH  27  32
BRANCH  26  34
ATOM     34  O   LIG    1       -9.094  42.284  40.200  0.00  0.00    -0.384 OA
ATOM     35  H   LIG    1       -8.279  42.751  39.948  0.00  0.00    +0.210 HD
ENDBRANCH  26  34
ENDBRANCH  24  25
ENDBRANCH  23  24
ENDBRANCH  22  23
TORSDOF 13
ENDMDL
MODEL 7
REMARK VINA RESULT:      -7.2      1.889      3.115
REMARK  Name = 9823887
REMARK                            x       y       z     vdW  Elec       q    Type
REMARK                         _______ _______ _______ _____ _____    ______ ____
ROOT
ATOM      1  O   LIG    1      -12.696  47.378  35.160  0.00  0.00    -0.341 OA
ATOM      2  C   LIG    1      -12.440  48.154  33.992  0.00  0.00    +0.282 C 
ATOM      3  C   LIG    1      -13.321  49.404  33.975  0.00  0.00    +0.201 C 
ATOM      4  C   LIG    1      -13.169  50.208  35.266  0.00  0.00    +0.179 C 
ATOM      5  C   LIG    1      -13.292  49.310  36.496  0.00  0.00    +0.177 C 
ATOM     22  C   LIG    1      -12.389  48.082  36.364  0.00  0.00    +0.178 C 
ENDROOT
BRANCH   5   6
ATOM      6  O   LIG    1      -12.920  50.047  37.658  0.00  0.00    -0.386 OA
ATOM      7  H   LIG    1      -11.967  49.914  37.804  0.00  0.00    +0.210 HD
ENDBRANCH   5   6
BRANCH   4   8
ATOM      8  O   LIG    1      -14.200  51.195  35.335  0.00  0.00    -0.386 OA
ATOM      9  H   LIG    1      -13.953  51.826  36.032  0.00  0.00    +0.210 HD
ENDBRANCH   4   8
BRANCH   3  10
ATOM     10  O   LIG    1      -12.931  50.211  32.865  0.00  0.00    -0.384 OA
ATOM     11  H   LIG    1      -13.672  50.238  32.237  0.00  0.00    +0.210 HD
ENDBRANCH   3  10
BRANCH   2  12
ATOM     12  O   LIG    1      -12.741  47.387  32.827  0.00  0.00    -0.345 OA
BRANCH  12  13
ATOM     13  C   LIG    1      -12.585  45.998  33.069  0.00  0.00    +0.190 C 
BRANCH  13  14
ATOM     14  C   LIG    1      -13.791  45.281  32.554  0.00  0.00    +0.001 C 
ATOM     15  C   LIG    1      -13.892  44.814  31.300  0.00  0.00    +0.006 C 
BRANCH  15  16
ATOM     16  C   LIG    1      -15.053  44.090  30.754  0.00  0.00    -0.025 A 
ATOM     17  C   LIG    1      -15.698  43.149  31.541  0.00  0.00    +0.008 A 
ATOM     18  C   LIG    1      -16.797  42.465  31.023  0.00  0.00    +0.001 A 
ATOM     19  C   LIG    1      -17.237  42.728  29.726  0.00  0.00    +0.000 A 
ATOM     20  C   LIG    1      -16.577  43.678  28.946  0.00  0.00    +0.001 A 
ATOM     21  C   LIG    1      -15.478  44.363  29.463  0.00  0.00    +0.008 A 
ENDBRANCH  15  16
ENDBRANCH  13  14
ENDBRANCH  12  13
ENDBRANCH   2  12
BRANCH  22  23
ATOM     23  C   LIG    1      -12.581  47.112  37.526  0.00  0.00    +0.197 C 
BRANCH  23  24
ATOM     24  O   LIG    1      -11.320  46.568  37.872  0.00  0.00    -0.346 OA
BRANCH  24  25
ATOM     25  C   LIG    1      -11.374  45.151  38.004  0.00  0.00    +0.281 C 
ATOM     26  C   LIG    1      -10.471  44.493  36.950  0.00  0.00    +0.201 C 
ATOM     27  C   LIG    1       -8.985  44.637  37.292  0.00  0.00    +0.178 C 
ATOM     28  C   LIG    1       -8.736  44.223  38.744  0.00  0.00    +0.171 C 
ATOM     29  C   LIG    1       -9.678  44.966  39.683  0.00  0.00    +0.197 C 
ATOM     36  O   LIG    1      -11.037  44.722  39.328  0.00  0.00    -0.346 OA
BRANCH  28  30
ATOM     30  O   LIG    1       -7.383  44.479  39.093  0.00  0.00    -0.387 OA
ATOM     31  H   LIG    1       -7.386  45.090  39.850  0.00  0.00    +0.210 HD
ENDBRANCH  28  30
BRANCH  27  32
ATOM     32  O   LIG    1       -8.583  45.995  37.114  0.00  0.00    -0.386 OA
ATOM     33  H   LIG    1       -7.616  46.029  37.210  0.00  0.00    +0.210 HD
ENDBRANCH  27  32
BRANCH  26  34
ATOM     34  O   LIG    1      -10.809  43.110  36.883  0.00  0.00    -0.384 OA
ATOM     35  H   LIG    1      -11.127  42.828  37.756  0.00  0.00    +0.210 HD
ENDBRANCH  26  34
ENDBRANCH  24  25
ENDBRANCH  23  24
ENDBRANCH  22  23
TORSDOF 13
ENDMDL
MODEL 8
REMARK VINA RESULT:      -7.1     13.672     16.384
REMARK  Name = 9823887
REMARK                            x       y       z     vdW  Elec       q    Type
REMARK                         _______ _______ _______ _____ _____    ______ ____
ROOT
ATOM      1  O   LIG    1      -18.420  38.951  20.409  0.00  0.00    -0.341 OA
ATOM      2  C   LIG    1      -18.028  40.281  20.742  0.00  0.00    +0.282 C 
ATOM      3  C   LIG    1      -18.525  40.652  22.139  0.00  0.00    +0.201 C 
ATOM      4  C   LIG    1      -18.079  39.625  23.180  0.00  0.00    +0.179 C 
ATOM      5  C   LIG    1      -18.374  38.200  22.713  0.00  0.00    +0.177 C 
ATOM     22  C   LIG    1      -17.858  37.977  21.289  0.00  0.00    +0.178 C 
ENDROOT
BRANCH   5   6
ATOM      6  O   LIG    1      -17.742  37.275  23.594  0.00  0.00    -0.386 OA
ATOM      7  H   LIG    1      -18.165  37.355  24.467  0.00  0.00    +0.210 HD
ENDBRANCH   5   6
BRANCH   4   8
ATOM      8  O   LIG    1      -18.788  39.846  24.400  0.00  0.00    -0.386 OA
ATOM      9  H   LIG    1      -19.694  40.110  24.167  0.00  0.00    +0.210 HD
ENDBRANCH   4   8
BRANCH   3  10
ATOM     10  O   LIG    1      -17.993  41.933  22.478  0.00  0.00    -0.384 OA
ATOM     11  H   LIG    1      -18.721  42.576  22.460  0.00  0.00    +0.210 HD
ENDBRANCH   3  10
BRANCH   2  12
ATOM     12  O   LIG    1      -18.599  41.199  19.812  0.00  0.00    -0.345 OA
BRANCH  12  13
ATOM     13  C   LIG    1      -17.637  41.649  18.872  0.00  0.00    +0.190 C 
BRANCH  13  14
ATOM     14  C   LIG    1      -16.772  42.679  19.523  0.00  0.00    +0.001 C 
ATOM     15  C   LIG    1      -16.806  43.982  19.201  0.00  0.00    +0.006 C 
BRANCH  15  16
ATOM     16  C   LIG    1      -15.984  45.033  19.825  0.00  0.00    -0.025 A 
ATOM     17  C   LIG    1      -15.129  45.785  19.035  0.00  0.00    +0.008 A 
ATOM     18  C   LIG    1      -14.351  46.780  19.627  0.00  0.00    +0.001 A 
ATOM     19  C   LIG    1      -14.437  47.009  21.000  0.00  0.00    +0.000 A 
ATOM     20  C   LIG    1      -15.302  46.245  21.782  0.00  0.00    +0.001 A 
ATOM     21  C   LIG    1      -16.080  45.249  21.191  0.00  0.00    +0.008 A 
ENDBRANCH  15  16
ENDBRANCH  13  14
ENDBRANCH  12  13
ENDBRANCH   2  12
BRANCH  22  23
ATOM     23  C   LIG    1      -18.243  36.599  20.758  0.00  0.00    +0.197 C 
BRANCH  23  24
ATOM     24  O   LIG    1      -17.274  35.662  21.193  0.00  0.00    -0.346 OA
BRANCH  24  25
ATOM     25  C   LIG    1      -17.867  34.584  21.909  0.00  0.00    +0.281 C 
ATOM     26  C   LIG    1      -17.946  33.340  21.011  0.00  0.00    +0.201 C 
ATOM     27  C   LIG    1      -16.576  32.681  20.817  0.00  0.00    +0.178 C 
ATOM     28  C   LIG    1      -15.888  32.491  22.170  0.00  0.00    +0.171 C 
ATOM     29  C   LIG    1      -15.856  33.802  22.945  0.00  0.00    +0.197 C 
ATOM     36  O   LIG    1      -17.176  34.307  23.132  0.00  0.00    -0.346 OA
BRANCH  28  30
ATOM     30  O   LIG    1      -14.569  31.998  21.976  0.00  0.00    -0.387 OA
ATOM     31  H   LIG    1      -14.036  32.277  22.740  0.00  0.00    +0.210 HD
ENDBRANCH  28  30
BRANCH  27  32
ATOM     32  O   LIG    1      -15.762  33.506  19.986  0.00  0.00    -0.386 OA
ATOM     33  H   LIG    1      -16.196  33.566  19.118  0.00  0.00    +0.210 HD
ENDBRANCH  27  32
BRANCH  26  34
ATOM     34  O   LIG    1      -18.835  32.410  21.623  0.00  0.00    -0.384 OA
ATOM     35  H   LIG    1      -18.596  32.326  22.560  0.00  0.00    +0.210 HD
ENDBRANCH  26  34
ENDBRANCH  24  25
ENDBRANCH  23  24
ENDBRANCH  22  23
TORSDOF 13
ENDMDL
MODEL 9
REMARK VINA RESULT:      -7.0      4.028      7.115
REMARK  Name = 9823887
REMARK                            x       y       z     vdW  Elec       q    Type
REMARK                         _______ _______ _______ _____ _____    ______ ____
ROOT
ATOM      1  O   LIG    1      -12.123  47.617  36.572  0.00  0.00    -0.341 OA
ATOM      2  C   LIG    1      -13.386  48.154  36.185  0.00  0.00    +0.282 C 
ATOM      3  C   LIG    1      -13.360  48.575  34.715  0.00  0.00    +0.201 C 
ATOM      4  C   LIG    1      -12.903  47.428  33.815  0.00  0.00    +0.179 C 
ATOM      5  C   LIG    1      -11.631  46.775  34.353  0.00  0.00    +0.177 C 
ATOM     22  C   LIG    1      -11.779  46.441  35.839  0.00  0.00    +0.178 C 
ENDROOT
BRANCH   5   6
ATOM      6  O   LIG    1      -11.369  45.579  33.624  0.00  0.00    -0.386 OA
ATOM      7  H   LIG    1      -11.805  45.654  32.757  0.00  0.00    +0.210 HD
ENDBRANCH   5   6
BRANCH   4   8
ATOM      8  O   LIG    1      -12.622  47.932  32.508  0.00  0.00    -0.386 OA
ATOM      9  H   LIG    1      -11.757  47.579  32.239  0.00  0.00    +0.210 HD
ENDBRANCH   4   8
BRANCH   3  10
ATOM     10  O   LIG    1      -14.679  48.975  34.342  0.00  0.00    -0.384 OA
ATOM     11  H   LIG    1      -15.297  48.282  34.631  0.00  0.00    +0.210 HD
ENDBRANCH   3  10
BRANCH   2  12
ATOM     12  O   LIG    1      -13.681  49.308  36.969  0.00  0.00    -0.345 OA
BRANCH  12  13
ATOM     13  C   LIG    1      -12.498  50.001  37.334  0.00  0.00    +0.190 C 
BRANCH  13  14
ATOM     14  C   LIG    1      -12.754  51.471  37.246  0.00  0.00    +0.001 C 
ATOM     15  C   LIG    1      -13.078  52.095  36.103  0.00  0.00    +0.006 C 
BRANCH  15  16
ATOM     16  C   LIG    1      -13.353  53.536  35.971  0.00  0.00    -0.025 A 
ATOM     17  C   LIG    1      -12.447  54.451  36.485  0.00  0.00    +0.008 A 
ATOM     18  C   LIG    1      -12.708  55.815  36.359  0.00  0.00    +0.001 A 
ATOM     19  C   LIG    1      -13.871  56.248  35.724  0.00  0.00    +0.000 A 
ATOM     20  C   LIG    1      -14.774  55.316  35.212  0.00  0.00    +0.001 A 
ATOM     21  C   LIG    1      -14.513  53.951  35.337  0.00  0.00    +0.008 A 
ENDBRANCH  15  16
ENDBRANCH  13  14
ENDBRANCH  12  13
ENDBRANCH   2  12
BRANCH  22  23
ATOM     23  C   LIG    1      -10.481  45.895  36.428  0.00  0.00    +0.197 C 
BRANCH  23  24
ATOM     24  O   LIG    1      -10.474  44.487  36.274  0.00  0.00    -0.346 OA
BRANCH  24  25
ATOM     25  C   LIG    1       -9.363  43.889  36.934  0.00  0.00    +0.281 C 
ATOM     26  C   LIG    1       -9.603  43.873  38.452  0.00  0.00    +0.201 C 
ATOM     27  C   LIG    1      -10.632  42.814  38.861  0.00  0.00    +0.178 C 
ATOM     28  C   LIG    1      -10.286  41.469  38.220  0.00  0.00    +0.171 C 
ATOM     29  C   LIG    1      -10.100  41.622  36.716  0.00  0.00    +0.197 C 
ATOM     36  O   LIG    1       -9.081  42.578  36.431  0.00  0.00    -0.346 OA
BRANCH  28  30
ATOM     30  O   LIG    1      -11.310  40.524  38.499  0.00  0.00    -0.387 OA
ATOM     31  H   LIG    1      -11.588  40.656  39.422  0.00  0.00    +0.210 HD
ENDBRANCH  28  30
BRANCH  27  32
ATOM     32  O   LIG    1      -11.931  43.219  38.434  0.00  0.00    -0.386 OA
ATOM     33  H   LIG    1      -12.403  42.423  38.134  0.00  0.00    +0.210 HD
ENDBRANCH  27  32
BRANCH  26  34
ATOM     34  O   LIG    1       -8.360  43.596  39.092  0.00  0.00    -0.384 OA
ATOM     35  H   LIG    1       -7.824  44.407  39.086  0.00  0.00    +0.210 HD
ENDBRANCH  26  34
ENDBRANCH  24  25
ENDBRANCH  23  24
ENDBRANCH  22  23
TORSDOF 13
ENDMDL
