MODEL 1
REMARK VINA RESULT:      -7.8      0.000      0.000
REMARK  13 active torsions:
REMARK  status: ('A' for Active; 'I' for Inactive)
REMARK    1  A    between atoms: O_2  and  C_16 
REMARK    2  A    between atoms: O_2  and  C_17 
REMARK    3  A    between atoms: O_4  and  C_12 
REMARK    4  A    between atoms: O_5  and  C_13 
REMARK    5  A    between atoms: O_6  and  C_15 
REMARK    6  A    between atoms: O_6  and  C_22 
REMARK    7  A    between atoms: O_7  and  C_14 
REMARK    8  A    between atoms: O_8  and  C_18 
REMARK    9  A    between atoms: O_9  and  C_19 
REMARK   10  A    between atoms: O_10  and  C_20 
REMARK   11  A    between atoms: C_11  and  C_16 
REMARK   12  A    between atoms: C_22  and  C_23 
REMARK   13  A    between atoms: C_24  and  C_25 
ROOT
HETATM    1  O   UNK     0       7.030  44.046  21.050  0.00  0.00    -0.348 OA
HETATM    2  C   UNK     0       8.375  44.380  20.703  0.00  0.00     0.180 C 
HETATM    3  C   UNK     0       8.468  45.864  20.339  0.00  0.00     0.180 C 
HETATM    4  C   UNK     0       7.489  46.209  19.218  0.00  0.00     0.183 C 
HETATM    5  C   UNK     0       6.086  45.683  19.526  0.00  0.00     0.204 C 
HETATM    6  C   UNK     0       6.126  44.219  19.963  0.00  0.00     0.291 C 
ENDROOT
BRANCH   2   7
HETATM    7  C   UNK     0       9.259  44.035  21.898  0.00  0.00     0.205 C 
BRANCH   7   8
HETATM    8  O   UNK     0      10.609  44.025  21.471  0.00  0.00    -0.356 OA
BRANCH   8   9
HETATM    9  C   UNK     0      11.327  42.922  22.017  0.00  0.00     0.290 C 
HETATM   10  O   UNK     0      12.521  43.339  22.688  0.00  0.00    -0.356 OA
HETATM   11  C   UNK     0      13.507  43.888  21.817  0.00  0.00     0.205 C 
HETATM   12  C   UNK     0      13.940  42.861  20.779  0.00  0.00     0.173 C 
HETATM   13  C   UNK     0      12.738  42.372  19.971  0.00  0.00     0.182 C 
HETATM   14  C   UNK     0      11.627  41.896  20.913  0.00  0.00     0.204 C 
BRANCH  12  15
HETATM   15  O   UNK     0      14.913  43.418  19.907  0.00  0.00    -0.391 OA
HETATM   16  H   UNK     0      15.087  44.328  20.204  0.00  0.00     0.210 HD
ENDBRANCH  12  15
BRANCH  13  17
HETATM   17  O   UNK     0      12.251  43.439  19.158  0.00  0.00    -0.390 OA
HETATM   18  H   UNK     0      12.492  44.273  19.595  0.00  0.00     0.210 HD
ENDBRANCH  13  17
BRANCH  14  19
HETATM   19  O   UNK     0      12.026  40.679  21.539  0.00  0.00    -0.388 OA
HETATM   20  H   UNK     0      12.930  40.468  21.251  0.00  0.00     0.210 HD
ENDBRANCH  14  19
ENDBRANCH   8   9
ENDBRANCH   7   8
ENDBRANCH   2   7
BRANCH   6  21
HETATM   21  O   UNK     0       4.809  43.845  20.366  0.00  0.00    -0.355 OA
BRANCH  21  22
HETATM   22  C   UNK     0       4.311  44.714  21.372  0.00  0.00     0.198 C 
BRANCH  22  23
HETATM   23  C   UNK     0       3.882  43.894  22.546  0.00  0.00     0.000 C 
HETATM   24  C   UNK     0       3.299  42.690  22.430  0.00  0.00     0.009 C 
BRANCH  24  25
HETATM   25  C   UNK     0       2.874  41.841  23.556  0.00  0.00    -0.036 A 
HETATM   26  C   UNK     0       2.055  40.750  23.312  0.00  0.00     0.011 A 
HETATM   27  C   UNK     0       1.652  39.945  24.378  0.00  0.00     0.001 A 
HETATM   28  C   UNK     0       2.075  40.242  25.674  0.00  0.00     0.000 A 
HETATM   29  C   UNK     0       2.899  41.343  25.904  0.00  0.00     0.001 A 
HETATM   30  C   UNK     0       3.302  42.148  24.838  0.00  0.00     0.011 A 
ENDBRANCH  24  25
ENDBRANCH  22  23
ENDBRANCH  21  22
ENDBRANCH   6  21
BRANCH   3  31
HETATM   31  O   UNK     0       9.795  46.164  19.915  0.00  0.00    -0.390 OA
HETATM   32  H   UNK     0      10.192  45.344  19.572  0.00  0.00     0.210 HD
ENDBRANCH   3  31
BRANCH   5  33
HETATM   33  O   UNK     0       5.277  45.779  18.354  0.00  0.00    -0.388 OA
HETATM   34  H   UNK     0       5.396  46.668  17.978  0.00  0.00     0.210 HD
ENDBRANCH   5  33
BRANCH   4  35
HETATM   35  O   UNK     0       7.446  47.632  19.092  0.00  0.00    -0.390 OA
HETATM   36  H   UNK     0       6.518  47.884  18.949  0.00  0.00     0.210 HD
ENDBRANCH   4  35
TORSDOF 13
ENDMDL
MODEL 2
REMARK VINA RESULT:      -7.8      2.327      3.130
REMARK  13 active torsions:
REMARK  status: ('A' for Active; 'I' for Inactive)
REMARK    1  A    between atoms: O_2  and  C_16 
REMARK    2  A    between atoms: O_2  and  C_17 
REMARK    3  A    between atoms: O_4  and  C_12 
REMARK    4  A    between atoms: O_5  and  C_13 
REMARK    5  A    between atoms: O_6  and  C_15 
REMARK    6  A    between atoms: O_6  and  C_22 
REMARK    7  A    between atoms: O_7  and  C_14 
REMARK    8  A    between atoms: O_8  and  C_18 
REMARK    9  A    between atoms: O_9  and  C_19 
REMARK   10  A    between atoms: O_10  and  C_20 
REMARK   11  A    between atoms: C_11  and  C_16 
REMARK   12  A    between atoms: C_22  and  C_23 
REMARK   13  A    between atoms: C_24  and  C_25 
ROOT
HETATM    1  O   UNK     0       6.463  43.484  20.851  0.00  0.00    -0.348 OA
HETATM    2  C   UNK     0       7.775  43.215  20.356  0.00  0.00     0.180 C 
HETATM    3  C   UNK     0       8.282  44.410  19.545  0.00  0.00     0.180 C 
HETATM    4  C   UNK     0       7.309  44.753  18.418  0.00  0.00     0.183 C 
HETATM    5  C   UNK     0       5.875  44.858  18.938  0.00  0.00     0.204 C 
HETATM    6  C   UNK     0       5.509  43.656  19.807  0.00  0.00     0.291 C 
ENDROOT
BRANCH   2   7
HETATM    7  C   UNK     0       8.671  42.927  21.558  0.00  0.00     0.205 C 
BRANCH   7   8
HETATM    8  O   UNK     0       9.305  44.132  21.946  0.00  0.00    -0.356 OA
BRANCH   8   9
HETATM    9  C   UNK     0       8.749  44.658  23.147  0.00  0.00     0.290 C 
HETATM   10  O   UNK     0       9.043  46.050  23.310  0.00  0.00    -0.356 OA
HETATM   11  C   UNK     0      10.426  46.324  23.519  0.00  0.00     0.205 C 
HETATM   12  C   UNK     0      10.926  45.635  24.782  0.00  0.00     0.173 C 
HETATM   13  C   UNK     0      10.695  44.125  24.700  0.00  0.00     0.182 C 
HETATM   14  C   UNK     0       9.232  43.833  24.351  0.00  0.00     0.204 C 
BRANCH  12  15
HETATM   15  O   UNK     0      12.307  45.901  24.979  0.00  0.00    -0.391 OA
HETATM   16  H   UNK     0      12.694  46.103  24.109  0.00  0.00     0.210 HD
ENDBRANCH  12  15
BRANCH  13  17
HETATM   17  O   UNK     0      11.545  43.573  23.696  0.00  0.00    -0.390 OA
HETATM   18  H   UNK     0      12.300  44.176  23.586  0.00  0.00     0.210 HD
ENDBRANCH  13  17
BRANCH  14  19
HETATM   19  O   UNK     0       8.405  44.158  25.467  0.00  0.00    -0.388 OA
HETATM   20  H   UNK     0       7.554  44.487  25.133  0.00  0.00     0.210 HD
ENDBRANCH  14  19
ENDBRANCH   8   9
ENDBRANCH   7   8
ENDBRANCH   2   7
BRANCH   6  21
HETATM   21  O   UNK     0       4.218  43.894  20.366  0.00  0.00    -0.355 OA
BRANCH  21  22
HETATM   22  C   UNK     0       3.332  42.818  20.099  0.00  0.00     0.198 C 
BRANCH  22  23
HETATM   23  C   UNK     0       3.148  42.024  21.352  0.00  0.00     0.000 C 
HETATM   24  C   UNK     0       2.992  42.583  22.562  0.00  0.00     0.009 C 
BRANCH  24  25
HETATM   25  C   UNK     0       2.793  41.844  23.820  0.00  0.00    -0.036 A 
HETATM   26  C   UNK     0       3.364  42.324  24.988  0.00  0.00     0.011 A 
HETATM   27  C   UNK     0       3.176  41.624  26.180  0.00  0.00     0.001 A 
HETATM   28  C   UNK     0       2.418  40.453  26.188  0.00  0.00     0.000 A 
HETATM   29  C   UNK     0       1.849  39.982  25.005  0.00  0.00     0.001 A 
HETATM   30  C   UNK     0       2.038  40.682  23.813  0.00  0.00     0.011 A 
ENDBRANCH  24  25
ENDBRANCH  22  23
ENDBRANCH  21  22
ENDBRANCH   6  21
BRANCH   3  31
HETATM   31  O   UNK     0       9.557  44.096  18.989  0.00  0.00    -0.390 OA
HETATM   32  H   UNK     0      10.045  44.929  18.870  0.00  0.00     0.210 HD
ENDBRANCH   3  31
BRANCH   5  33
HETATM   33  O   UNK     0       4.973  44.904  17.833  0.00  0.00    -0.388 OA
HETATM   34  H   UNK     0       5.262  44.244  17.180  0.00  0.00     0.210 HD
ENDBRANCH   5  33
BRANCH   4  35
HETATM   35  O   UNK     0       7.705  46.006  17.858  0.00  0.00    -0.390 OA
HETATM   36  H   UNK     0       8.585  45.882  17.463  0.00  0.00     0.210 HD
ENDBRANCH   4  35
TORSDOF 13
ENDMDL
MODEL 3
REMARK VINA RESULT:      -7.7      1.937      3.214
REMARK  13 active torsions:
REMARK  status: ('A' for Active; 'I' for Inactive)
REMARK    1  A    between atoms: O_2  and  C_16 
REMARK    2  A    between atoms: O_2  and  C_17 
REMARK    3  A    between atoms: O_4  and  C_12 
REMARK    4  A    between atoms: O_5  and  C_13 
REMARK    5  A    between atoms: O_6  and  C_15 
REMARK    6  A    between atoms: O_6  and  C_22 
REMARK    7  A    between atoms: O_7  and  C_14 
REMARK    8  A    between atoms: O_8  and  C_18 
REMARK    9  A    between atoms: O_9  and  C_19 
REMARK   10  A    between atoms: O_10  and  C_20 
REMARK   11  A    between atoms: C_11  and  C_16 
REMARK   12  A    between atoms: C_22  and  C_23 
REMARK   13  A    between atoms: C_24  and  C_25 
ROOT
HETATM    1  O   UNK     0       7.396  43.355  19.995  0.00  0.00    -0.348 OA
HETATM    2  C   UNK     0       8.650  43.812  19.487  0.00  0.00     0.180 C 
HETATM    3  C   UNK     0       8.721  45.339  19.567  0.00  0.00     0.180 C 
HETATM    4  C   UNK     0       7.543  45.976  18.830  0.00  0.00     0.183 C 
HETATM    5  C   UNK     0       6.217  45.345  19.256  0.00  0.00     0.204 C 
HETATM    6  C   UNK     0       6.291  43.819  19.223  0.00  0.00     0.291 C 
ENDROOT
BRANCH   2   7
HETATM    7  C   UNK     0       9.750  43.152  20.313  0.00  0.00     0.205 C 
BRANCH   7   8
HETATM    8  O   UNK     0      10.177  44.066  21.306  0.00  0.00    -0.356 OA
BRANCH   8   9
HETATM    9  C   UNK     0      10.218  43.463  22.596  0.00  0.00     0.290 C 
HETATM   10  O   UNK     0       8.918  43.060  23.041  0.00  0.00    -0.356 OA
HETATM   11  C   UNK     0       8.033  44.150  23.289  0.00  0.00     0.205 C 
HETATM   12  C   UNK     0       8.592  45.058  24.377  0.00  0.00     0.173 C 
HETATM   13  C   UNK     0       9.975  45.582  23.985  0.00  0.00     0.182 C 
HETATM   14  C   UNK     0      10.889  44.415  23.597  0.00  0.00     0.204 C 
BRANCH  12  15
HETATM   15  O   UNK     0       7.712  46.149  24.612  0.00  0.00    -0.391 OA
HETATM   16  H   UNK     0       7.832  46.430  25.536  0.00  0.00     0.210 HD
ENDBRANCH  12  15
BRANCH  13  17
HETATM   17  O   UNK     0       9.845  46.475  22.880  0.00  0.00    -0.390 OA
HETATM   18  H   UNK     0      10.077  45.980  22.075  0.00  0.00     0.210 HD
ENDBRANCH  13  17
BRANCH  14  19
HETATM   19  O   UNK     0      11.221  43.665  24.765  0.00  0.00    -0.388 OA
HETATM   20  H   UNK     0      11.953  44.114  25.219  0.00  0.00     0.210 HD
ENDBRANCH  14  19
ENDBRANCH   8   9
ENDBRANCH   7   8
ENDBRANCH   2   7
BRANCH   6  21
HETATM   21  O   UNK     0       5.075  43.308  19.766  0.00  0.00    -0.355 OA
BRANCH  21  22
HETATM   22  C   UNK     0       4.789  43.886  21.030  0.00  0.00     0.198 C 
BRANCH  22  23
HETATM   23  C   UNK     0       4.351  42.805  21.965  0.00  0.00     0.000 C 
HETATM   24  C   UNK     0       3.300  42.927  22.791  0.00  0.00     0.009 C 
BRANCH  24  25
HETATM   25  C   UNK     0       2.823  41.885  23.717  0.00  0.00    -0.036 A 
HETATM   26  C   UNK     0       3.182  41.949  25.054  0.00  0.00     0.011 A 
HETATM   27  C   UNK     0       2.730  40.963  25.932  0.00  0.00     0.001 A 
HETATM   28  C   UNK     0       1.925  39.927  25.460  0.00  0.00     0.000 A 
HETATM   29  C   UNK     0       1.571  39.876  24.112  0.00  0.00     0.001 A 
HETATM   30  C   UNK     0       2.023  40.862  23.235  0.00  0.00     0.011 A 
ENDBRANCH  24  25
ENDBRANCH  22  23
ENDBRANCH  21  22
ENDBRANCH   6  21
BRANCH   3  31
HETATM   31  O   UNK     0       9.941  45.786  18.981  0.00  0.00    -0.390 OA
HETATM   32  H   UNK     0      10.670  45.518  19.567  0.00  0.00     0.210 HD
ENDBRANCH   3  31
BRANCH   5  33
HETATM   33  O   UNK     0       5.185  45.763  18.363  0.00  0.00    -0.388 OA
HETATM   34  H   UNK     0       5.587  45.923  17.492  0.00  0.00     0.210 HD
ENDBRANCH   5  33
BRANCH   4  35
HETATM   35  O   UNK     0       7.529  47.370  19.142  0.00  0.00    -0.390 OA
HETATM   36  H   UNK     0       7.332  47.850  18.319  0.00  0.00     0.210 HD
ENDBRANCH   4  35
TORSDOF 13
ENDMDL
MODEL 4
REMARK VINA RESULT:      -7.7      2.062      8.698
REMARK  13 active torsions:
REMARK  status: ('A' for Active; 'I' for Inactive)
REMARK    1  A    between atoms: O_2  and  C_16 
REMARK    2  A    between atoms: O_2  and  C_17 
REMARK    3  A    between atoms: O_4  and  C_12 
REMARK    4  A    between atoms: O_5  and  C_13 
REMARK    5  A    between atoms: O_6  and  C_15 
REMARK    6  A    between atoms: O_6  and  C_22 
REMARK    7  A    between atoms: O_7  and  C_14 
REMARK    8  A    between atoms: O_8  and  C_18 
REMARK    9  A    between atoms: O_9  and  C_19 
REMARK   10  A    between atoms: O_10  and  C_20 
REMARK   11  A    between atoms: C_11  and  C_16 
REMARK   12  A    between atoms: C_22  and  C_23 
REMARK   13  A    between atoms: C_24  and  C_25 
ROOT
HETATM    1  O   UNK     0       7.981  43.677  19.958  0.00  0.00    -0.348 OA
HETATM    2  C   UNK     0       6.620  44.066  19.766  0.00  0.00     0.180 C 
HETATM    3  C   UNK     0       6.557  45.357  18.946  0.00  0.00     0.180 C 
HETATM    4  C   UNK     0       7.376  46.463  19.611  0.00  0.00     0.183 C 
HETATM    5  C   UNK     0       8.777  45.970  19.976  0.00  0.00     0.204 C 
HETATM    6  C   UNK     0       8.721  44.633  20.712  0.00  0.00     0.291 C 
ENDROOT
BRANCH   2   7
HETATM    7  C   UNK     0       5.906  42.915  19.063  0.00  0.00     0.205 C 
BRANCH   7   8
HETATM    8  O   UNK     0       4.662  42.700  19.703  0.00  0.00    -0.356 OA
BRANCH   8   9
HETATM    9  C   UNK     0       4.703  43.071  21.077  0.00  0.00     0.290 C 
HETATM   10  O   UNK     0       4.930  41.944  21.930  0.00  0.00    -0.356 OA
HETATM   11  C   UNK     0       3.855  41.008  21.945  0.00  0.00     0.205 C 
HETATM   12  C   UNK     0       2.576  41.667  22.444  0.00  0.00     0.173 C 
HETATM   13  C   UNK     0       2.214  42.872  21.573  0.00  0.00     0.182 C 
HETATM   14  C   UNK     0       3.415  43.817  21.456  0.00  0.00     0.204 C 
BRANCH  12  15
HETATM   15  O   UNK     0       1.505  40.734  22.444  0.00  0.00    -0.391 OA
HETATM   16  H   UNK     0       0.682  41.231  22.590  0.00  0.00     0.210 HD
ENDBRANCH  12  15
BRANCH  13  17
HETATM   17  O   UNK     0       1.836  42.418  20.275  0.00  0.00    -0.390 OA
HETATM   18  H   UNK     0       0.947  42.767  20.090  0.00  0.00     0.210 HD
ENDBRANCH  13  17
BRANCH  14  19
HETATM   19  O   UNK     0       3.632  44.463  22.709  0.00  0.00    -0.388 OA
HETATM   20  H   UNK     0       4.313  45.146  22.588  0.00  0.00     0.210 HD
ENDBRANCH  14  19
ENDBRANCH   8   9
ENDBRANCH   7   8
ENDBRANCH   2   7
BRANCH   6  21
HETATM   21  O   UNK     0      10.060  44.173  20.891  0.00  0.00    -0.355 OA
BRANCH  21  22
HETATM   22  C   UNK     0      10.443  43.280  19.857  0.00  0.00     0.198 C 
BRANCH  22  23
HETATM   23  C   UNK     0      11.853  42.844  20.095  0.00  0.00     0.000 C 
HETATM   24  C   UNK     0      12.213  42.031  21.099  0.00  0.00     0.009 C 
BRANCH  24  25
HETATM   25  C   UNK     0      13.585  41.563  21.364  0.00  0.00    -0.036 A 
HETATM   26  C   UNK     0      13.796  40.584  22.322  0.00  0.00     0.011 A 
HETATM   27  C   UNK     0      15.095  40.141  22.573  0.00  0.00     0.001 A 
HETATM   28  C   UNK     0      16.165  40.683  21.861  0.00  0.00     0.000 A 
HETATM   29  C   UNK     0      15.937  41.667  20.900  0.00  0.00     0.001 A 
HETATM   30  C   UNK     0      14.638  42.111  20.649  0.00  0.00     0.011 A 
ENDBRANCH  24  25
ENDBRANCH  22  23
ENDBRANCH  21  22
ENDBRANCH   6  21
BRANCH   3  31
HETATM   31  O   UNK     0       5.200  45.778  18.832  0.00  0.00    -0.390 OA
HETATM   32  H   UNK     0       5.017  46.399  19.559  0.00  0.00     0.210 HD
ENDBRANCH   3  31
BRANCH   5  33
HETATM   33  O   UNK     0       9.407  46.926  20.829  0.00  0.00    -0.388 OA
HETATM   34  H   UNK     0       8.943  46.919  21.684  0.00  0.00     0.210 HD
ENDBRANCH   5  33
BRANCH   4  35
HETATM   35  O   UNK     0       7.479  47.551  18.691  0.00  0.00    -0.390 OA
HETATM   36  H   UNK     0       6.807  48.207  18.940  0.00  0.00     0.210 HD
ENDBRANCH   4  35
TORSDOF 13
ENDMDL
MODEL 5
REMARK VINA RESULT:      -7.6      2.553      4.283
REMARK  13 active torsions:
REMARK  status: ('A' for Active; 'I' for Inactive)
REMARK    1  A    between atoms: O_2  and  C_16 
REMARK    2  A    between atoms: O_2  and  C_17 
REMARK    3  A    between atoms: O_4  and  C_12 
REMARK    4  A    between atoms: O_5  and  C_13 
REMARK    5  A    between atoms: O_6  and  C_15 
REMARK    6  A    between atoms: O_6  and  C_22 
REMARK    7  A    between atoms: O_7  and  C_14 
REMARK    8  A    between atoms: O_8  and  C_18 
REMARK    9  A    between atoms: O_9  and  C_19 
REMARK   10  A    between atoms: O_10  and  C_20 
REMARK   11  A    between atoms: C_11  and  C_16 
REMARK   12  A    between atoms: C_22  and  C_23 
REMARK   13  A    between atoms: C_24  and  C_25 
ROOT
HETATM    1  O   UNK     0       7.030  43.243  20.338  0.00  0.00    -0.348 OA
HETATM    2  C   UNK     0       8.349  43.778  20.214  0.00  0.00     0.180 C 
HETATM    3  C   UNK     0       8.279  45.284  19.948  0.00  0.00     0.180 C 
HETATM    4  C   UNK     0       7.428  45.578  18.714  0.00  0.00     0.183 C 
HETATM    5  C   UNK     0       6.086  44.848  18.780  0.00  0.00     0.204 C 
HETATM    6  C   UNK     0       6.272  43.374  19.139  0.00  0.00     0.291 C 
ENDROOT
BRANCH   2   7
HETATM    7  C   UNK     0       9.096  43.466  21.507  0.00  0.00     0.205 C 
BRANCH   7   8
HETATM    8  O   UNK     0       8.187  42.885  22.424  0.00  0.00    -0.356 OA
BRANCH   8   9
HETATM    9  C   UNK     0       8.409  43.346  23.752  0.00  0.00     0.290 C 
HETATM   10  O   UNK     0       7.705  42.559  24.719  0.00  0.00    -0.356 OA
HETATM   11  C   UNK     0       6.287  42.678  24.634  0.00  0.00     0.205 C 
HETATM   12  C   UNK     0       5.854  44.120  24.866  0.00  0.00     0.173 C 
HETATM   13  C   UNK     0       6.523  45.053  23.854  0.00  0.00     0.182 C 
HETATM   14  C   UNK     0       8.040  44.834  23.858  0.00  0.00     0.204 C 
BRANCH  12  15
HETATM   15  O   UNK     0       4.442  44.235  24.767  0.00  0.00    -0.391 OA
HETATM   16  H   UNK     0       4.066  43.987  25.630  0.00  0.00     0.210 HD
ENDBRANCH  12  15
BRANCH  13  17
HETATM   17  O   UNK     0       6.005  44.785  22.552  0.00  0.00    -0.390 OA
HETATM   18  H   UNK     0       6.763  44.674  21.953  0.00  0.00     0.210 HD
ENDBRANCH  13  17
BRANCH  14  19
HETATM   19  O   UNK     0       8.588  45.340  25.073  0.00  0.00    -0.388 OA
HETATM   20  H   UNK     0       9.216  44.686  25.422  0.00  0.00     0.210 HD
ENDBRANCH  14  19
ENDBRANCH   8   9
ENDBRANCH   7   8
ENDBRANCH   2   7
BRANCH   6  21
HETATM   21  O   UNK     0       4.978  42.799  19.321  0.00  0.00    -0.355 OA
BRANCH  21  22
HETATM   22  C   UNK     0       4.187  43.577  20.207  0.00  0.00     0.198 C 
BRANCH  22  23
HETATM   23  C   UNK     0       3.316  42.660  21.004  0.00  0.00     0.000 C 
HETATM   24  C   UNK     0       3.790  41.820  21.937  0.00  0.00     0.009 C 
BRANCH  24  25
HETATM   25  C   UNK     0       2.970  40.910  22.756  0.00  0.00    -0.036 A 
HETATM   26  C   UNK     0       2.448  39.763  22.181  0.00  0.00     0.011 A 
HETATM   27  C   UNK     0       1.671  38.901  22.956  0.00  0.00     0.001 A 
HETATM   28  C   UNK     0       1.428  39.199  24.296  0.00  0.00     0.000 A 
HETATM   29  C   UNK     0       1.960  40.357  24.862  0.00  0.00     0.001 A 
HETATM   30  C   UNK     0       2.737  41.219  24.087  0.00  0.00     0.011 A 
ENDBRANCH  24  25
ENDBRANCH  22  23
ENDBRANCH  21  22
ENDBRANCH   6  21
BRANCH   3  31
HETATM   31  O   UNK     0       9.597  45.788  19.744  0.00  0.00    -0.390 OA
HETATM   32  H   UNK     0       9.594  46.309  18.922  0.00  0.00     0.210 HD
ENDBRANCH   3  31
BRANCH   5  33
HETATM   33  O   UNK     0       5.443  44.922  17.508  0.00  0.00    -0.388 OA
HETATM   34  H   UNK     0       5.872  44.281  16.916  0.00  0.00     0.210 HD
ENDBRANCH   5  33
BRANCH   4  35
HETATM   35  O   UNK     0       7.201  46.987  18.659  0.00  0.00    -0.390 OA
HETATM   36  H   UNK     0       6.694  47.231  19.452  0.00  0.00     0.210 HD
ENDBRANCH   4  35
TORSDOF 13
ENDMDL
MODEL 6
REMARK VINA RESULT:      -7.6      1.958      3.058
REMARK  13 active torsions:
REMARK  status: ('A' for Active; 'I' for Inactive)
REMARK    1  A    between atoms: O_2  and  C_16 
REMARK    2  A    between atoms: O_2  and  C_17 
REMARK    3  A    between atoms: O_4  and  C_12 
REMARK    4  A    between atoms: O_5  and  C_13 
REMARK    5  A    between atoms: O_6  and  C_15 
REMARK    6  A    between atoms: O_6  and  C_22 
REMARK    7  A    between atoms: O_7  and  C_14 
REMARK    8  A    between atoms: O_8  and  C_18 
REMARK    9  A    between atoms: O_9  and  C_19 
REMARK   10  A    between atoms: O_10  and  C_20 
REMARK   11  A    between atoms: C_11  and  C_16 
REMARK   12  A    between atoms: C_22  and  C_23 
REMARK   13  A    between atoms: C_24  and  C_25 
ROOT
HETATM    1  O   UNK     0       8.079  44.189  21.119  0.00  0.00    -0.348 OA
HETATM    2  C   UNK     0       8.912  43.194  20.521  0.00  0.00     0.180 C 
HETATM    3  C   UNK     0       9.986  43.862  19.658  0.00  0.00     0.180 C 
HETATM    4  C   UNK     0       9.349  44.776  18.611  0.00  0.00     0.183 C 
HETATM    5  C   UNK     0       8.322  45.714  19.245  0.00  0.00     0.204 C 
HETATM    6  C   UNK     0       7.359  44.951  20.154  0.00  0.00     0.291 C 
ENDROOT
BRANCH   2   7
HETATM    7  C   UNK     0       9.525  42.369  21.648  0.00  0.00     0.205 C 
BRANCH   7   8
HETATM    8  O   UNK     0       9.443  43.115  22.848  0.00  0.00    -0.356 OA
BRANCH   8   9
HETATM    9  C   UNK     0      10.674  43.099  23.565  0.00  0.00     0.290 C 
HETATM   10  O   UNK     0      10.499  43.463  24.939  0.00  0.00    -0.356 OA
HETATM   11  C   UNK     0      10.104  44.820  25.128  0.00  0.00     0.205 C 
HETATM   12  C   UNK     0      11.156  45.768  24.568  0.00  0.00     0.173 C 
HETATM   13  C   UNK     0      11.396  45.491  23.083  0.00  0.00     0.182 C 
HETATM   14  C   UNK     0      11.698  44.005  22.866  0.00  0.00     0.204 C 
BRANCH  12  15
HETATM   15  O   UNK     0      10.752  47.118  24.748  0.00  0.00    -0.391 OA
HETATM   16  H   UNK     0       9.785  47.123  24.862  0.00  0.00     0.210 HD
ENDBRANCH  12  15
BRANCH  13  17
HETATM   17  O   UNK     0      10.233  45.856  22.342  0.00  0.00    -0.390 OA
HETATM   18  H   UNK     0      10.204  46.827  22.302  0.00  0.00     0.210 HD
ENDBRANCH  13  17
BRANCH  14  19
HETATM   19  O   UNK     0      12.988  43.702  23.395  0.00  0.00    -0.388 OA
HETATM   20  H   UNK     0      13.241  44.410  24.011  0.00  0.00     0.210 HD
ENDBRANCH  14  19
ENDBRANCH   8   9
ENDBRANCH   7   8
ENDBRANCH   2   7
BRANCH   6  21
HETATM   21  O   UNK     0       6.529  45.906  20.814  0.00  0.00    -0.355 OA
BRANCH  21  22
HETATM   22  C   UNK     0       5.159  45.703  20.503  0.00  0.00     0.198 C 
BRANCH  22  23
HETATM   23  C   UNK     0       4.656  44.534  21.288  0.00  0.00     0.000 C 
HETATM   24  C   UNK     0       4.247  44.625  22.563  0.00  0.00     0.009 C 
BRANCH  24  25
HETATM   25  C   UNK     0       3.730  43.507  23.371  0.00  0.00    -0.036 A 
HETATM   26  C   UNK     0       2.904  42.566  22.778  0.00  0.00     0.011 A 
HETATM   27  C   UNK     0       2.414  41.506  23.543  0.00  0.00     0.001 A 
HETATM   28  C   UNK     0       2.758  41.404  24.891  0.00  0.00     0.000 A 
HETATM   29  C   UNK     0       3.590  42.359  25.474  0.00  0.00     0.001 A 
HETATM   30  C   UNK     0       4.080  43.418  24.709  0.00  0.00     0.011 A 
ENDBRANCH  24  25
ENDBRANCH  22  23
ENDBRANCH  21  22
ENDBRANCH   6  21
BRANCH   3  31
HETATM   31  O   UNK     0      10.756  42.858  19.003  0.00  0.00    -0.390 OA
HETATM   32  H   UNK     0      10.140  42.227  18.593  0.00  0.00     0.210 HD
ENDBRANCH   3  31
BRANCH   5  33
HETATM   33  O   UNK     0       7.562  46.348  18.217  0.00  0.00    -0.388 OA
HETATM   34  H   UNK     0       8.021  47.167  17.964  0.00  0.00     0.210 HD
ENDBRANCH   5  33
BRANCH   4  35
HETATM   35  O   UNK     0      10.390  45.547  18.007  0.00  0.00    -0.390 OA
HETATM   36  H   UNK     0      10.868  46.000  18.721  0.00  0.00     0.210 HD
ENDBRANCH   4  35
TORSDOF 13
ENDMDL
MODEL 7
REMARK VINA RESULT:      -7.5      2.350      3.813
REMARK  13 active torsions:
REMARK  status: ('A' for Active; 'I' for Inactive)
REMARK    1  A    between atoms: O_2  and  C_16 
REMARK    2  A    between atoms: O_2  and  C_17 
REMARK    3  A    between atoms: O_4  and  C_12 
REMARK    4  A    between atoms: O_5  and  C_13 
REMARK    5  A    between atoms: O_6  and  C_15 
REMARK    6  A    between atoms: O_6  and  C_22 
REMARK    7  A    between atoms: O_7  and  C_14 
REMARK    8  A    between atoms: O_8  and  C_18 
REMARK    9  A    between atoms: O_9  and  C_19 
REMARK   10  A    between atoms: O_10  and  C_20 
REMARK   11  A    between atoms: C_11  and  C_16 
REMARK   12  A    between atoms: C_22  and  C_23 
REMARK   13  A    between atoms: C_24  and  C_25 
ROOT
HETATM    1  O   UNK     0       8.198  46.499  20.629  0.00  0.00    -0.348 OA
HETATM    2  C   UNK     0       9.234  45.621  21.073  0.00  0.00     0.180 C 
HETATM    3  C   UNK     0      10.048  45.126  19.875  0.00  0.00     0.180 C 
HETATM    4  C   UNK     0       9.141  44.459  18.841  0.00  0.00     0.183 C 
HETATM    5  C   UNK     0       7.936  45.340  18.512  0.00  0.00     0.204 C 
HETATM    6  C   UNK     0       7.255  45.848  19.782  0.00  0.00     0.291 C 
ENDROOT
BRANCH   2   7
HETATM    7  C   UNK     0      10.099  46.394  22.064  0.00  0.00     0.205 C 
BRANCH   7   8
HETATM    8  O   UNK     0       9.901  45.848  23.355  0.00  0.00    -0.356 OA
BRANCH   8   9
HETATM    9  C   UNK     0      11.080  45.222  23.851  0.00  0.00     0.290 C 
HETATM   10  O   UNK     0      11.303  43.943  23.245  0.00  0.00    -0.356 OA
HETATM   11  C   UNK     0      10.324  42.966  23.588  0.00  0.00     0.205 C 
HETATM   12  C   UNK     0      10.309  42.726  25.093  0.00  0.00     0.173 C 
HETATM   13  C   UNK     0      10.037  44.030  25.844  0.00  0.00     0.182 C 
HETATM   14  C   UNK     0      11.013  45.118  25.382  0.00  0.00     0.204 C 
BRANCH  12  15
HETATM   15  O   UNK     0       9.323  41.761  25.430  0.00  0.00    -0.391 OA
HETATM   16  H   UNK     0       9.782  40.923  25.615  0.00  0.00     0.210 HD
ENDBRANCH  12  15
BRANCH  13  17
HETATM   17  O   UNK     0       8.698  44.451  25.590  0.00  0.00    -0.390 OA
HETATM   18  H   UNK     0       8.177  43.657  25.377  0.00  0.00     0.210 HD
ENDBRANCH  13  17
BRANCH  14  19
HETATM   19  O   UNK     0      12.321  44.814  25.861  0.00  0.00    -0.388 OA
HETATM   20  H   UNK     0      12.272  44.675  26.822  0.00  0.00     0.210 HD
ENDBRANCH  14  19
ENDBRANCH   8   9
ENDBRANCH   7   8
ENDBRANCH   2   7
BRANCH   6  21
HETATM   21  O   UNK     0       6.236  46.770  19.396  0.00  0.00    -0.355 OA
BRANCH  21  22
HETATM   22  C   UNK     0       5.270  46.931  20.423  0.00  0.00     0.198 C 
BRANCH  22  23
HETATM   23  C   UNK     0       4.893  45.581  20.945  0.00  0.00     0.000 C 
HETATM   24  C   UNK     0       3.822  45.365  21.723  0.00  0.00     0.009 C 
BRANCH  24  25
HETATM   25  C   UNK     0       3.404  44.054  22.248  0.00  0.00    -0.036 A 
HETATM   26  C   UNK     0       2.458  43.315  21.555  0.00  0.00     0.011 A 
HETATM   27  C   UNK     0       2.061  42.073  22.052  0.00  0.00     0.001 A 
HETATM   28  C   UNK     0       2.618  41.586  23.234  0.00  0.00     0.000 A 
HETATM   29  C   UNK     0       3.569  42.340  23.921  0.00  0.00     0.001 A 
HETATM   30  C   UNK     0       3.965  43.582  23.424  0.00  0.00     0.011 A 
ENDBRANCH  24  25
ENDBRANCH  22  23
ENDBRANCH  21  22
ENDBRANCH   6  21
BRANCH   3  31
HETATM   31  O   UNK     0      11.023  44.188  20.323  0.00  0.00    -0.390 OA
HETATM   32  H   UNK     0      11.836  44.679  20.535  0.00  0.00     0.210 HD
ENDBRANCH   3  31
BRANCH   5  33
HETATM   33  O   UNK     0       6.984  44.580  17.766  0.00  0.00    -0.388 OA
HETATM   34  H   UNK     0       6.154  45.084  17.734  0.00  0.00     0.210 HD
ENDBRANCH   5  33
BRANCH   4  35
HETATM   35  O   UNK     0       9.909  44.240  17.656  0.00  0.00    -0.390 OA
HETATM   36  H   UNK     0      10.397  43.408  17.776  0.00  0.00     0.210 HD
ENDBRANCH   4  35
TORSDOF 13
ENDMDL
MODEL 8
REMARK VINA RESULT:      -7.4      2.783      3.865
REMARK  13 active torsions:
REMARK  status: ('A' for Active; 'I' for Inactive)
REMARK    1  A    between atoms: O_2  and  C_16 
REMARK    2  A    between atoms: O_2  and  C_17 
REMARK    3  A    between atoms: O_4  and  C_12 
REMARK    4  A    between atoms: O_5  and  C_13 
REMARK    5  A    between atoms: O_6  and  C_15 
REMARK    6  A    between atoms: O_6  and  C_22 
REMARK    7  A    between atoms: O_7  and  C_14 
REMARK    8  A    between atoms: O_8  and  C_18 
REMARK    9  A    between atoms: O_9  and  C_19 
REMARK   10  A    between atoms: O_10  and  C_20 
REMARK   11  A    between atoms: C_11  and  C_16 
REMARK   12  A    between atoms: C_22  and  C_23 
REMARK   13  A    between atoms: C_24  and  C_25 
ROOT
HETATM    1  O   UNK     0       6.372  44.610  21.549  0.00  0.00    -0.348 OA
HETATM    2  C   UNK     0       7.774  44.801  21.352  0.00  0.00     0.180 C 
HETATM    3  C   UNK     0       8.028  46.166  20.706  0.00  0.00     0.180 C 
HETATM    4  C   UNK     0       7.247  46.301  19.400  0.00  0.00     0.183 C 
HETATM    5  C   UNK     0       5.779  45.915  19.590  0.00  0.00     0.204 C 
HETATM    6  C   UNK     0       5.646  44.581  20.323  0.00  0.00     0.291 C 
ENDROOT
BRANCH   2   7
HETATM    7  C   UNK     0       8.450  44.686  22.715  0.00  0.00     0.205 C 
BRANCH   7   8
HETATM    8  O   UNK     0       7.707  43.782  23.511  0.00  0.00    -0.356 OA
BRANCH   8   9
HETATM    9  C   UNK     0       8.311  43.581  24.785  0.00  0.00     0.290 C 
HETATM   10  O   UNK     0       9.535  42.844  24.688  0.00  0.00    -0.356 OA
HETATM   11  C   UNK     0       9.361  41.494  24.265  0.00  0.00     0.205 C 
HETATM   12  C   UNK     0       8.484  40.732  25.250  0.00  0.00     0.173 C 
HETATM   13  C   UNK     0       7.124  41.416  25.403  0.00  0.00     0.182 C 
HETATM   14  C   UNK     0       7.315  42.900  25.735  0.00  0.00     0.204 C 
BRANCH  12  15
HETATM   15  O   UNK     0       8.303  39.391  24.817  0.00  0.00    -0.391 OA
HETATM   16  H   UNK     0       8.971  39.210  24.133  0.00  0.00     0.210 HD
ENDBRANCH  12  15
BRANCH  13  17
HETATM   17  O   UNK     0       6.394  41.290  24.184  0.00  0.00    -0.390 OA
HETATM   18  H   UNK     0       5.457  41.168  24.415  0.00  0.00     0.210 HD
ENDBRANCH  13  17
BRANCH  14  19
HETATM   19  O   UNK     0       7.816  43.026  27.065  0.00  0.00    -0.388 OA
HETATM   20  H   UNK     0       8.623  42.490  27.140  0.00  0.00     0.210 HD
ENDBRANCH  14  19
ENDBRANCH   8   9
ENDBRANCH   7   8
ENDBRANCH   2   7
BRANCH   6  21
HETATM   21  O   UNK     0       4.261  44.361  20.587  0.00  0.00    -0.355 OA
BRANCH  21  22
HETATM   22  C   UNK     0       3.889  43.021  20.307  0.00  0.00     0.198 C 
BRANCH  22  23
HETATM   23  C   UNK     0       3.786  42.271  21.596  0.00  0.00     0.000 C 
HETATM   24  C   UNK     0       2.741  42.383  22.432  0.00  0.00     0.009 C 
BRANCH  24  25
HETATM   25  C   UNK     0       2.589  41.655  23.703  0.00  0.00    -0.036 A 
HETATM   26  C   UNK     0       1.832  40.495  23.735  0.00  0.00     0.011 A 
HETATM   27  C   UNK     0       1.687  39.805  24.939  0.00  0.00     0.001 A 
HETATM   28  C   UNK     0       2.304  40.284  26.095  0.00  0.00     0.000 A 
HETATM   29  C   UNK     0       3.063  41.453  26.048  0.00  0.00     0.001 A 
HETATM   30  C   UNK     0       3.207  42.143  24.844  0.00  0.00     0.011 A 
ENDBRANCH  24  25
ENDBRANCH  22  23
ENDBRANCH  21  22
ENDBRANCH   6  21
BRANCH   3  31
HETATM   31  O   UNK     0       9.421  46.308  20.440  0.00  0.00    -0.390 OA
HETATM   32  H   UNK     0       9.575  46.069  19.509  0.00  0.00     0.210 HD
ENDBRANCH   3  31
BRANCH   5  33
HETATM   33  O   UNK     0       5.154  45.790  18.313  0.00  0.00    -0.388 OA
HETATM   34  H   UNK     0       4.389  46.388  18.291  0.00  0.00     0.210 HD
ENDBRANCH   5  33
BRANCH   4  35
HETATM   35  O   UNK     0       7.330  47.663  18.975  0.00  0.00    -0.390 OA
HETATM   36  H   UNK     0       8.198  47.784  18.554  0.00  0.00     0.210 HD
ENDBRANCH   4  35
TORSDOF 13
ENDMDL
MODEL 9
REMARK VINA RESULT:      -7.3      2.954      5.814
REMARK  13 active torsions:
REMARK  status: ('A' for Active; 'I' for Inactive)
REMARK    1  A    between atoms: O_2  and  C_16 
REMARK    2  A    between atoms: O_2  and  C_17 
REMARK    3  A    between atoms: O_4  and  C_12 
REMARK    4  A    between atoms: O_5  and  C_13 
REMARK    5  A    between atoms: O_6  and  C_15 
REMARK    6  A    between atoms: O_6  and  C_22 
REMARK    7  A    between atoms: O_7  and  C_14 
REMARK    8  A    between atoms: O_8  and  C_18 
REMARK    9  A    between atoms: O_9  and  C_19 
REMARK   10  A    between atoms: O_10  and  C_20 
REMARK   11  A    between atoms: C_11  and  C_16 
REMARK   12  A    between atoms: C_22  and  C_23 
REMARK   13  A    between atoms: C_24  and  C_25 
ROOT
HETATM    1  O   UNK     0       8.853  44.335  23.238  0.00  0.00    -0.348 OA
HETATM    2  C   UNK     0       9.180  45.661  22.820  0.00  0.00     0.180 C 
HETATM    3  C   UNK     0      10.629  45.984  23.192  0.00  0.00     0.180 C 
HETATM    4  C   UNK     0      10.861  45.786  24.690  0.00  0.00     0.183 C 
HETATM    5  C   UNK     0      10.338  44.427  25.157  0.00  0.00     0.204 C 
HETATM    6  C   UNK     0       8.917  44.176  24.653  0.00  0.00     0.291 C 
ENDROOT
BRANCH   2   7
HETATM    7  C   UNK     0       8.953  45.738  21.313  0.00  0.00     0.205 C 
BRANCH   7   8
HETATM    8  O   UNK     0       7.564  45.877  21.074  0.00  0.00    -0.356 OA
BRANCH   8   9
HETATM    9  C   UNK     0       7.299  46.322  19.747  0.00  0.00     0.290 C 
HETATM   10  O   UNK     0       5.931  46.709  19.574  0.00  0.00    -0.356 OA
HETATM   11  C   UNK     0       5.011  45.625  19.675  0.00  0.00     0.205 C 
HETATM   12  C   UNK     0       5.294  44.578  18.606  0.00  0.00     0.173 C 
HETATM   13  C   UNK     0       6.730  44.063  18.722  0.00  0.00     0.182 C 
HETATM   14  C   UNK     0       7.712  45.238  18.739  0.00  0.00     0.204 C 
BRANCH  12  15
HETATM   15  O   UNK     0       4.383  43.495  18.719  0.00  0.00    -0.391 OA
HETATM   16  H   UNK     0       4.553  42.888  17.977  0.00  0.00     0.210 HD
ENDBRANCH  12  15
BRANCH  13  17
HETATM   17  O   UNK     0       6.864  43.311  19.927  0.00  0.00    -0.390 OA
HETATM   18  H   UNK     0       7.644  43.650  20.399  0.00  0.00     0.210 HD
ENDBRANCH  13  17
BRANCH  14  19
HETATM   19  O   UNK     0       7.759  45.835  17.445  0.00  0.00    -0.388 OA
HETATM   20  H   UNK     0       7.026  46.468  17.372  0.00  0.00     0.210 HD
ENDBRANCH  14  19
ENDBRANCH   8   9
ENDBRANCH   7   8
ENDBRANCH   2   7
BRANCH   6  21
HETATM   21  O   UNK     0       8.555  42.841  25.005  0.00  0.00    -0.355 OA
BRANCH  21  22
HETATM   22  C   UNK     0       7.328  42.810  25.718  0.00  0.00     0.198 C 
BRANCH  22  23
HETATM   23  C   UNK     0       6.225  42.490  24.761  0.00  0.00     0.000 C 
HETATM   24  C   UNK     0       5.075  43.179  24.705  0.00  0.00     0.009 C 
BRANCH  24  25
HETATM   25  C   UNK     0       3.968  42.911  23.771  0.00  0.00    -0.036 A 
HETATM   26  C   UNK     0       3.104  41.858  24.026  0.00  0.00     0.011 A 
HETATM   27  C   UNK     0       2.055  41.603  23.142  0.00  0.00     0.001 A 
HETATM   28  C   UNK     0       1.885  42.406  22.014  0.00  0.00     0.000 A 
HETATM   29  C   UNK     0       2.762  43.462  21.770  0.00  0.00     0.001 A 
HETATM   30  C   UNK     0       3.810  43.717  22.655  0.00  0.00     0.011 A 
ENDBRANCH  24  25
ENDBRANCH  22  23
ENDBRANCH  21  22
ENDBRANCH   6  21
BRANCH   3  31
HETATM   31  O   UNK     0      10.915  47.336  22.845  0.00  0.00    -0.390 OA
HETATM   32  H   UNK     0      11.738  47.594  23.296  0.00  0.00     0.210 HD
ENDBRANCH   3  31
BRANCH   5  33
HETATM   33  O   UNK     0      10.320  44.392  26.584  0.00  0.00    -0.388 OA
HETATM   34  H   UNK     0      10.010  43.513  26.860  0.00  0.00     0.210 HD
ENDBRANCH   5  33
BRANCH   4  35
HETATM   35  O   UNK     0      12.267  45.864  24.933  0.00  0.00    -0.390 OA
HETATM   36  H   UNK     0      12.712  45.363  24.228  0.00  0.00     0.210 HD
ENDBRANCH   4  35
TORSDOF 13
ENDMDL
