MODEL 1
REMARK VINA RESULT:      -8.0      0.000      0.000
REMARK  10 active torsions:
REMARK  status: ('A' for Active; 'I' for Inactive)
REMARK    1  A    between atoms: O_2  and  C_12 
REMARK    2  A    between atoms: O_2  and  C_14 
REMARK    3  A    between atoms: O_3  and  C_8 
REMARK    4  A    between atoms: O_4  and  C_9 
REMARK    5  A    between atoms: O_5  and  C_10 
REMARK    6  A    between atoms: O_6  and  C_13 
REMARK    7  A    between atoms: O_7  and  C_21 
REMARK    8  A    between atoms: C_11  and  C_13 
REMARK    9  A    between atoms: C_14  and  C_15 
REMARK   10  A    between atoms: C_15  and  C_16 
ROOT
HETATM    1  O   UNK     0     189.557 175.337 180.219  0.00  0.00    -0.348 OA
HETATM    2  C   UNK     0     191.758 176.621 178.894  0.00  0.00     0.183 C 
HETATM    3  C   UNK     0     191.016 177.266 180.064  0.00  0.00     0.180 C 
HETATM    4  C   UNK     0     190.893 175.566 178.204  0.00  0.00     0.204 C 
HETATM    5  C   UNK     0     190.408 176.199 180.977  0.00  0.00     0.179 C 
HETATM    6  C   UNK     0     190.267 174.610 179.218  0.00  0.00     0.291 C 
ENDROOT
BRANCH   5   7
HETATM    7  C   UNK     0     189.563 176.817 182.085  0.00  0.00     0.198 C 
BRANCH   7   8
HETATM    8  O   UNK     0     189.434 178.204 181.835  0.00  0.00    -0.398 OA
HETATM    9  H   UNK     0     189.569 178.345 180.882  0.00  0.00     0.209 HD
ENDBRANCH   7   8
ENDBRANCH   5   7
BRANCH   6  10
HETATM   10  O   UNK     0     189.368 173.753 178.516  0.00  0.00    -0.358 OA
BRANCH  10  11
HETATM   11  C   UNK     0     188.100 173.701 179.154  0.00  0.00     0.175 C 
BRANCH  11  12
HETATM   12  C   UNK     0     187.004 174.034 178.150  0.00  0.00     0.065 C 
BRANCH  12  13
HETATM   13  C   UNK     0     186.445 175.422 178.349  0.00  0.00    -0.056 A 
HETATM   14  C   UNK     0     187.167 176.516 177.901  0.00  0.00     0.010 A 
HETATM   15  C   UNK     0     186.651 177.799 178.086  0.00  0.00     0.037 A 
HETATM   16  C   UNK     0     185.418 177.970 178.718  0.00  0.00     0.065 A 
HETATM   17  C   UNK     0     184.703 176.859 179.164  0.00  0.00     0.037 A 
HETATM   18  C   UNK     0     185.220 175.577 178.979  0.00  0.00     0.010 A 
BRANCH  16  19
HETATM   19  O   UNK     0     184.915 179.222 178.898  0.00  0.00    -0.361 OA
HETATM   20  H   UNK     0     185.570 179.872 178.591  0.00  0.00     0.217 HD
ENDBRANCH  16  19
ENDBRANCH  12  13
ENDBRANCH  11  12
ENDBRANCH  10  11
ENDBRANCH   6  10
BRANCH   3  21
HETATM   21  O   UNK     0     191.925 178.066 180.816  0.00  0.00    -0.390 OA
HETATM   22  H   UNK     0     192.628 178.368 180.215  0.00  0.00     0.210 HD
ENDBRANCH   3  21
BRANCH   4  23
HETATM   23  O   UNK     0     191.701 174.803 177.308  0.00  0.00    -0.388 OA
HETATM   24  H   UNK     0     192.269 174.218 177.838  0.00  0.00     0.210 HD
ENDBRANCH   4  23
BRANCH   2  25
HETATM   25  O   UNK     0     192.090 177.650 177.960  0.00  0.00    -0.390 OA
HETATM   26  H   UNK     0     193.026 177.875 178.095  0.00  0.00     0.210 HD
ENDBRANCH   2  25
TORSDOF 10
ENDMDL
MODEL 2
REMARK VINA RESULT:      -7.4      1.661      3.648
REMARK  10 active torsions:
REMARK  status: ('A' for Active; 'I' for Inactive)
REMARK    1  A    between atoms: O_2  and  C_12 
REMARK    2  A    between atoms: O_2  and  C_14 
REMARK    3  A    between atoms: O_3  and  C_8 
REMARK    4  A    between atoms: O_4  and  C_9 
REMARK    5  A    between atoms: O_5  and  C_10 
REMARK    6  A    between atoms: O_6  and  C_13 
REMARK    7  A    between atoms: O_7  and  C_21 
REMARK    8  A    between atoms: C_11  and  C_13 
REMARK    9  A    between atoms: C_14  and  C_15 
REMARK   10  A    between atoms: C_15  and  C_16 
ROOT
HETATM    1  O   UNK     0     188.784 175.686 179.576  0.00  0.00    -0.348 OA
HETATM    2  C   UNK     0     191.545 176.460 179.425  0.00  0.00     0.183 C 
HETATM    3  C   UNK     0     191.004 175.211 178.729  0.00  0.00     0.180 C 
HETATM    4  C   UNK     0     190.640 176.884 180.583  0.00  0.00     0.204 C 
HETATM    5  C   UNK     0     189.520 175.377 178.392  0.00  0.00     0.179 C 
HETATM    6  C   UNK     0     189.174 176.930 180.155  0.00  0.00     0.291 C 
ENDROOT
BRANCH   5   7
HETATM    7  C   UNK     0     188.929 174.101 177.804  0.00  0.00     0.198 C 
BRANCH   7   8
HETATM    8  O   UNK     0     189.711 173.001 178.231  0.00  0.00    -0.398 OA
HETATM    9  H   UNK     0     190.610 173.328 178.403  0.00  0.00     0.209 HD
ENDBRANCH   7   8
ENDBRANCH   5   7
BRANCH   6  10
HETATM   10  O   UNK     0     188.386 177.189 181.316  0.00  0.00    -0.358 OA
BRANCH  10  11
HETATM   11  C   UNK     0     187.357 178.128 181.042  0.00  0.00     0.175 C 
BRANCH  11  12
HETATM   12  C   UNK     0     185.998 177.442 181.122  0.00  0.00     0.065 C 
BRANCH  12  13
HETATM   13  C   UNK     0     185.169 177.664 179.881  0.00  0.00    -0.056 A 
HETATM   14  C   UNK     0     183.804 177.864 180.002  0.00  0.00     0.010 A 
HETATM   15  C   UNK     0     183.038 178.070 178.855  0.00  0.00     0.037 A 
HETATM   16  C   UNK     0     183.648 178.071 177.600  0.00  0.00     0.065 A 
HETATM   17  C   UNK     0     185.023 177.869 177.493  0.00  0.00     0.037 A 
HETATM   18  C   UNK     0     185.789 177.664 178.641  0.00  0.00     0.010 A 
BRANCH  16  19
HETATM   19  O   UNK     0     182.900 178.272 176.481  0.00  0.00    -0.361 OA
HETATM   20  H   UNK     0     183.029 177.521 175.877  0.00  0.00     0.217 HD
ENDBRANCH  16  19
ENDBRANCH  12  13
ENDBRANCH  11  12
ENDBRANCH  10  11
ENDBRANCH   6  10
BRANCH   3  21
HETATM   21  O   UNK     0     191.737 174.987 177.527  0.00  0.00    -0.390 OA
HETATM   22  H   UNK     0     191.525 175.706 176.907  0.00  0.00     0.210 HD
ENDBRANCH   3  21
BRANCH   4  23
HETATM   23  O   UNK     0     191.018 178.187 181.026  0.00  0.00    -0.388 OA
HETATM   24  H   UNK     0     191.571 178.087 181.820  0.00  0.00     0.210 HD
ENDBRANCH   4  23
BRANCH   2  25
HETATM   25  O   UNK     0     192.848 176.158 179.925  0.00  0.00    -0.390 OA
HETATM   26  H   UNK     0     193.449 176.111 179.162  0.00  0.00     0.210 HD
ENDBRANCH   2  25
TORSDOF 10
ENDMDL
MODEL 3
REMARK VINA RESULT:      -7.4      3.230      7.828
REMARK  10 active torsions:
REMARK  status: ('A' for Active; 'I' for Inactive)
REMARK    1  A    between atoms: O_2  and  C_12 
REMARK    2  A    between atoms: O_2  and  C_14 
REMARK    3  A    between atoms: O_3  and  C_8 
REMARK    4  A    between atoms: O_4  and  C_9 
REMARK    5  A    between atoms: O_5  and  C_10 
REMARK    6  A    between atoms: O_6  and  C_13 
REMARK    7  A    between atoms: O_7  and  C_21 
REMARK    8  A    between atoms: C_11  and  C_13 
REMARK    9  A    between atoms: C_14  and  C_15 
REMARK   10  A    between atoms: C_15  and  C_16 
ROOT
HETATM    1  O   UNK     0     182.280 176.198 179.148  0.00  0.00    -0.348 OA
HETATM    2  C   UNK     0     181.679 178.357 177.352  0.00  0.00     0.183 C 
HETATM    3  C   UNK     0     180.984 176.998 177.263  0.00  0.00     0.180 C 
HETATM    4  C   UNK     0     183.023 178.245 178.074  0.00  0.00     0.204 C 
HETATM    5  C   UNK     0     180.954 176.313 178.630  0.00  0.00     0.179 C 
HETATM    6  C   UNK     0     182.888 177.466 179.382  0.00  0.00     0.291 C 
ENDROOT
BRANCH   5   7
HETATM    7  C   UNK     0     180.371 174.906 178.545  0.00  0.00     0.198 C 
BRANCH   7   8
HETATM    8  O   UNK     0     180.477 174.454 177.208  0.00  0.00    -0.398 OA
HETATM    9  H   UNK     0     181.417 174.280 177.029  0.00  0.00     0.209 HD
ENDBRANCH   7   8
ENDBRANCH   5   7
BRANCH   6  10
HETATM   10  O   UNK     0     184.197 177.282 179.919  0.00  0.00    -0.358 OA
BRANCH  10  11
HETATM   11  C   UNK     0     184.992 176.466 179.072  0.00  0.00     0.175 C 
BRANCH  11  12
HETATM   12  C   UNK     0     186.283 177.196 178.717  0.00  0.00     0.065 C 
BRANCH  12  13
HETATM   13  C   UNK     0     187.341 176.262 178.182  0.00  0.00    -0.056 A 
HETATM   14  C   UNK     0     188.674 176.633 178.256  0.00  0.00     0.010 A 
HETATM   15  C   UNK     0     189.652 175.770 177.762  0.00  0.00     0.037 A 
HETATM   16  C   UNK     0     189.283 174.547 177.200  0.00  0.00     0.065 A 
HETATM   17  C   UNK     0     187.938 174.188 177.133  0.00  0.00     0.037 A 
HETATM   18  C   UNK     0     186.960 175.051 177.627  0.00  0.00     0.010 A 
BRANCH  16  19
HETATM   19  O   UNK     0     190.238 173.705 176.718  0.00  0.00    -0.361 OA
HETATM   20  H   UNK     0     190.536 173.122 177.437  0.00  0.00     0.217 HD
ENDBRANCH  16  19
ENDBRANCH  12  13
ENDBRANCH  11  12
ENDBRANCH  10  11
ENDBRANCH   6  10
BRANCH   3  21
HETATM   21  O   UNK     0     179.650 177.181 176.798  0.00  0.00    -0.390 OA
HETATM   22  H   UNK     0     179.075 177.300 177.573  0.00  0.00     0.210 HD
ENDBRANCH   3  21
BRANCH   4  23
HETATM   23  O   UNK     0     183.507 179.553 178.379  0.00  0.00    -0.388 OA
HETATM   24  H   UNK     0     183.846 179.543 179.291  0.00  0.00     0.210 HD
ENDBRANCH   4  23
BRANCH   2  25
HETATM   25  O   UNK     0     181.891 178.833 176.022  0.00  0.00    -0.390 OA
HETATM   26  H   UNK     0     181.833 178.067 175.426  0.00  0.00     0.210 HD
ENDBRANCH   2  25
TORSDOF 10
ENDMDL
MODEL 4
REMARK VINA RESULT:      -7.3      2.658      4.140
REMARK  10 active torsions:
REMARK  status: ('A' for Active; 'I' for Inactive)
REMARK    1  A    between atoms: O_2  and  C_12 
REMARK    2  A    between atoms: O_2  and  C_14 
REMARK    3  A    between atoms: O_3  and  C_8 
REMARK    4  A    between atoms: O_4  and  C_9 
REMARK    5  A    between atoms: O_5  and  C_10 
REMARK    6  A    between atoms: O_6  and  C_13 
REMARK    7  A    between atoms: O_7  and  C_21 
REMARK    8  A    between atoms: C_11  and  C_13 
REMARK    9  A    between atoms: C_14  and  C_15 
REMARK   10  A    between atoms: C_15  and  C_16 
ROOT
HETATM    1  O   UNK     0     188.096 175.336 178.994  0.00  0.00    -0.348 OA
HETATM    2  C   UNK     0     190.217 176.823 177.753  0.00  0.00     0.183 C 
HETATM    3  C   UNK     0     190.411 175.401 178.283  0.00  0.00     0.180 C 
HETATM    4  C   UNK     0     189.027 177.506 178.428  0.00  0.00     0.204 C 
HETATM    5  C   UNK     0     189.092 174.627 178.256  0.00  0.00     0.179 C 
HETATM    6  C   UNK     0     187.791 176.606 178.421  0.00  0.00     0.291 C 
ENDROOT
BRANCH   5   7
HETATM    7  C   UNK     0     189.235 173.246 178.888  0.00  0.00     0.198 C 
BRANCH   7   8
HETATM    8  O   UNK     0     190.308 173.280 179.811  0.00  0.00    -0.398 OA
HETATM    9  H   UNK     0     189.945 173.088 180.692  0.00  0.00     0.209 HD
ENDBRANCH   7   8
ENDBRANCH   5   7
BRANCH   6  10
HETATM   10  O   UNK     0     186.775 177.250 179.188  0.00  0.00    -0.358 OA
BRANCH  10  11
HETATM   11  C   UNK     0     185.614 177.491 178.408  0.00  0.00     0.175 C 
BRANCH  11  12
HETATM   12  C   UNK     0     184.422 177.745 179.323  0.00  0.00     0.065 C 
BRANCH  12  13
HETATM   13  C   UNK     0     183.104 177.603 178.601  0.00  0.00    -0.056 A 
HETATM   14  C   UNK     0     182.873 178.345 177.456  0.00  0.00     0.010 A 
HETATM   15  C   UNK     0     181.655 178.213 176.789  0.00  0.00     0.037 A 
HETATM   16  C   UNK     0     180.683 177.340 177.278  0.00  0.00     0.065 A 
HETATM   17  C   UNK     0     180.930 176.599 178.433  0.00  0.00     0.037 A 
HETATM   18  C   UNK     0     182.148 176.731 179.099  0.00  0.00     0.010 A 
BRANCH  16  19
HETATM   19  O   UNK     0     179.494 177.212 176.627  0.00  0.00    -0.361 OA
HETATM   20  H   UNK     0     179.277 176.267 176.550  0.00  0.00     0.217 HD
ENDBRANCH  16  19
ENDBRANCH  12  13
ENDBRANCH  11  12
ENDBRANCH  10  11
ENDBRANCH   6  10
BRANCH   3  21
HETATM   21  O   UNK     0     191.371 174.725 177.475  0.00  0.00    -0.390 OA
HETATM   22  H   UNK     0     191.428 173.804 177.782  0.00  0.00     0.210 HD
ENDBRANCH   3  21
BRANCH   4  23
HETATM   23  O   UNK     0     188.709 178.707 177.725  0.00  0.00    -0.388 OA
HETATM   24  H   UNK     0     188.021 179.178 178.226  0.00  0.00     0.210 HD
ENDBRANCH   4  23
BRANCH   2  25
HETATM   25  O   UNK     0     191.408 177.562 178.026  0.00  0.00    -0.390 OA
HETATM   26  H   UNK     0     191.406 177.778 178.975  0.00  0.00     0.210 HD
ENDBRANCH   2  25
TORSDOF 10
ENDMDL
MODEL 5
REMARK VINA RESULT:      -7.2      1.718      5.912
REMARK  10 active torsions:
REMARK  status: ('A' for Active; 'I' for Inactive)
REMARK    1  A    between atoms: O_2  and  C_12 
REMARK    2  A    between atoms: O_2  and  C_14 
REMARK    3  A    between atoms: O_3  and  C_8 
REMARK    4  A    between atoms: O_4  and  C_9 
REMARK    5  A    between atoms: O_5  and  C_10 
REMARK    6  A    between atoms: O_6  and  C_13 
REMARK    7  A    between atoms: O_7  and  C_21 
REMARK    8  A    between atoms: C_11  and  C_13 
REMARK    9  A    between atoms: C_14  and  C_15 
REMARK   10  A    between atoms: C_15  and  C_16 
ROOT
HETATM    1  O   UNK     0     187.997 176.660 178.781  0.00  0.00    -0.348 OA
HETATM    2  C   UNK     0     185.706 178.328 179.248  0.00  0.00     0.183 C 
HETATM    3  C   UNK     0     185.750 177.289 178.127  0.00  0.00     0.180 C 
HETATM    4  C   UNK     0     187.116 178.737 179.679  0.00  0.00     0.204 C 
HETATM    5  C   UNK     0     186.698 176.143 178.485  0.00  0.00     0.179 C 
HETATM    6  C   UNK     0     187.999 177.514 179.923  0.00  0.00     0.291 C 
ENDROOT
BRANCH   5   7
HETATM    7  C   UNK     0     186.849 175.154 177.334  0.00  0.00     0.198 C 
BRANCH   7   8
HETATM    8  O   UNK     0     186.099 173.992 177.636  0.00  0.00    -0.398 OA
HETATM    9  H   UNK     0     186.488 173.253 177.138  0.00  0.00     0.209 HD
ENDBRANCH   7   8
ENDBRANCH   5   7
BRANCH   6  10
HETATM   10  O   UNK     0     189.325 177.974 180.178  0.00  0.00    -0.358 OA
BRANCH  10  11
HETATM   11  C   UNK     0     189.848 177.408 181.370  0.00  0.00     0.175 C 
BRANCH  11  12
HETATM   12  C   UNK     0     191.079 176.569 181.046  0.00  0.00     0.065 C 
BRANCH  12  13
HETATM   13  C   UNK     0     190.849 175.640 179.878  0.00  0.00    -0.056 A 
HETATM   14  C   UNK     0     190.142 174.465 180.074  0.00  0.00     0.010 A 
HETATM   15  C   UNK     0     189.930 173.607 178.995  0.00  0.00     0.037 A 
HETATM   16  C   UNK     0     190.428 173.936 177.734  0.00  0.00     0.065 A 
HETATM   17  C   UNK     0     191.137 175.123 177.552  0.00  0.00     0.037 A 
HETATM   18  C   UNK     0     191.349 175.980 178.631  0.00  0.00     0.010 A 
BRANCH  16  19
HETATM   19  O   UNK     0     190.220 173.099 176.681  0.00  0.00    -0.361 OA
HETATM   20  H   UNK     0     189.773 172.296 177.000  0.00  0.00     0.217 HD
ENDBRANCH  16  19
ENDBRANCH  12  13
ENDBRANCH  11  12
ENDBRANCH  10  11
ENDBRANCH   6  10
BRANCH   3  21
HETATM   21  O   UNK     0     184.440 176.768 177.917  0.00  0.00    -0.390 OA
HETATM   22  H   UNK     0     183.846 177.174 178.571  0.00  0.00     0.210 HD
ENDBRANCH   3  21
BRANCH   4  23
HETATM   23  O   UNK     0     187.042 179.485 180.892  0.00  0.00    -0.388 OA
HETATM   24  H   UNK     0     187.845 179.300 181.410  0.00  0.00     0.210 HD
ENDBRANCH   4  23
BRANCH   2  25
HETATM   25  O   UNK     0     185.007 179.474 178.762  0.00  0.00    -0.390 OA
HETATM   26  H   UNK     0     184.842 180.059 179.521  0.00  0.00     0.210 HD
ENDBRANCH   2  25
TORSDOF 10
ENDMDL
MODEL 6
REMARK VINA RESULT:      -7.1      1.627      3.237
REMARK  10 active torsions:
REMARK  status: ('A' for Active; 'I' for Inactive)
REMARK    1  A    between atoms: O_2  and  C_12 
REMARK    2  A    between atoms: O_2  and  C_14 
REMARK    3  A    between atoms: O_3  and  C_8 
REMARK    4  A    between atoms: O_4  and  C_9 
REMARK    5  A    between atoms: O_5  and  C_10 
REMARK    6  A    between atoms: O_6  and  C_13 
REMARK    7  A    between atoms: O_7  and  C_21 
REMARK    8  A    between atoms: C_11  and  C_13 
REMARK    9  A    between atoms: C_14  and  C_15 
REMARK   10  A    between atoms: C_15  and  C_16 
ROOT
HETATM    1  O   UNK     0     189.924 175.598 180.142  0.00  0.00    -0.348 OA
HETATM    2  C   UNK     0     189.786 173.820 177.891  0.00  0.00     0.183 C 
HETATM    3  C   UNK     0     190.618 175.103 177.873  0.00  0.00     0.180 C 
HETATM    4  C   UNK     0     188.679 173.893 178.943  0.00  0.00     0.204 C 
HETATM    5  C   UNK     0     191.062 175.481 179.288  0.00  0.00     0.179 C 
HETATM    6  C   UNK     0     189.222 174.365 180.291  0.00  0.00     0.291 C 
ENDROOT
BRANCH   5   7
HETATM    7  C   UNK     0     191.793 176.819 179.311  0.00  0.00     0.198 C 
BRANCH   7   8
HETATM    8  O   UNK     0     191.540 177.493 178.093  0.00  0.00    -0.398 OA
HETATM    9  H   UNK     0     190.576 177.577 177.997  0.00  0.00     0.209 HD
ENDBRANCH   7   8
ENDBRANCH   5   7
BRANCH   6  10
HETATM   10  O   UNK     0     188.114 174.544 181.172  0.00  0.00    -0.358 OA
BRANCH  10  11
HETATM   11  C   UNK     0     187.804 175.920 181.338  0.00  0.00     0.175 C 
BRANCH  11  12
HETATM   12  C   UNK     0     186.302 176.090 181.534  0.00  0.00     0.065 C 
BRANCH  12  13
HETATM   13  C   UNK     0     185.635 176.716 180.334  0.00  0.00    -0.056 A 
HETATM   14  C   UNK     0     184.252 176.772 180.277  0.00  0.00     0.010 A 
HETATM   15  C   UNK     0     183.635 177.351 179.168  0.00  0.00     0.037 A 
HETATM   16  C   UNK     0     184.411 177.865 178.129  0.00  0.00     0.065 A 
HETATM   17  C   UNK     0     185.802 177.802 178.199  0.00  0.00     0.037 A 
HETATM   18  C   UNK     0     186.418 177.223 179.309  0.00  0.00     0.010 A 
BRANCH  16  19
HETATM   19  O   UNK     0     183.809 178.430 177.046  0.00  0.00    -0.361 OA
HETATM   20  H   UNK     0     182.854 178.251 177.088  0.00  0.00     0.217 HD
ENDBRANCH  16  19
ENDBRANCH  12  13
ENDBRANCH  11  12
ENDBRANCH  10  11
ENDBRANCH   6  10
BRANCH   3  21
HETATM   21  O   UNK     0     191.768 174.907 177.054  0.00  0.00    -0.390 OA
HETATM   22  H   UNK     0     191.970 173.956 177.041  0.00  0.00     0.210 HD
ENDBRANCH   3  21
BRANCH   4  23
HETATM   23  O   UNK     0     188.108 172.596 179.120  0.00  0.00    -0.388 OA
HETATM   24  H   UNK     0     187.916 172.478 180.067  0.00  0.00     0.210 HD
ENDBRANCH   4  23
BRANCH   2  25
HETATM   25  O   UNK     0     189.204 173.653 176.597  0.00  0.00    -0.390 OA
HETATM   26  H   UNK     0     189.931 173.610 175.954  0.00  0.00     0.210 HD
ENDBRANCH   2  25
TORSDOF 10
ENDMDL
MODEL 7
REMARK VINA RESULT:      -7.1     34.352     38.189
REMARK  10 active torsions:
REMARK  status: ('A' for Active; 'I' for Inactive)
REMARK    1  A    between atoms: O_2  and  C_12 
REMARK    2  A    between atoms: O_2  and  C_14 
REMARK    3  A    between atoms: O_3  and  C_8 
REMARK    4  A    between atoms: O_4  and  C_9 
REMARK    5  A    between atoms: O_5  and  C_10 
REMARK    6  A    between atoms: O_6  and  C_13 
REMARK    7  A    between atoms: O_7  and  C_21 
REMARK    8  A    between atoms: C_11  and  C_13 
REMARK    9  A    between atoms: C_14  and  C_15 
REMARK   10  A    between atoms: C_15  and  C_16 
ROOT
HETATM    1  O   UNK     0     157.825 186.748 158.856  0.00  0.00    -0.348 OA
HETATM    2  C   UNK     0     155.258 185.651 158.182  0.00  0.00     0.183 C 
HETATM    3  C   UNK     0     156.056 185.184 159.400  0.00  0.00     0.180 C 
HETATM    4  C   UNK     0     156.169 186.296 157.138  0.00  0.00     0.204 C 
HETATM    5  C   UNK     0     156.972 186.298 159.909  0.00  0.00     0.179 C 
HETATM    6  C   UNK     0     157.100 187.329 157.774  0.00  0.00     0.291 C 
ENDROOT
BRANCH   5   7
HETATM    7  C   UNK     0     157.864 185.820 161.050  0.00  0.00     0.198 C 
BRANCH   7   8
HETATM    8  O   UNK     0     159.078 185.339 160.503  0.00  0.00    -0.398 OA
HETATM    9  H   UNK     0     159.243 185.826 159.678  0.00  0.00     0.209 HD
ENDBRANCH   7   8
ENDBRANCH   5   7
BRANCH   6  10
HETATM   10  O   UNK     0     158.009 187.777 156.770  0.00  0.00    -0.358 OA
BRANCH  10  11
HETATM   11  C   UNK     0     159.000 188.635 157.316  0.00  0.00     0.175 C 
BRANCH  11  12
HETATM   12  C   UNK     0     160.387 188.105 156.972  0.00  0.00     0.065 C 
BRANCH  12  13
HETATM   13  C   UNK     0     161.232 187.869 158.201  0.00  0.00    -0.056 A 
HETATM   14  C   UNK     0     160.779 188.310 159.432  0.00  0.00     0.010 A 
HETATM   15  C   UNK     0     161.559 188.092 160.567  0.00  0.00     0.037 A 
HETATM   16  C   UNK     0     162.785 187.435 160.454  0.00  0.00     0.065 A 
HETATM   17  C   UNK     0     163.229 186.995 159.207  0.00  0.00     0.037 A 
HETATM   18  C   UNK     0     162.447 187.214 158.073  0.00  0.00     0.010 A 
BRANCH  16  19
HETATM   19  O   UNK     0     163.547 187.222 161.562  0.00  0.00    -0.361 OA
HETATM   20  H   UNK     0     163.153 186.500 162.082  0.00  0.00     0.217 HD
ENDBRANCH  16  19
ENDBRANCH  12  13
ENDBRANCH  11  12
ENDBRANCH  10  11
ENDBRANCH   6  10
BRANCH   3  21
HETATM   21  O   UNK     0     155.155 184.804 160.437  0.00  0.00    -0.390 OA
HETATM   22  H   UNK     0     155.627 184.869 161.284  0.00  0.00     0.210 HD
ENDBRANCH   3  21
BRANCH   4  23
HETATM   23  O   UNK     0     155.371 186.958 156.157  0.00  0.00    -0.388 OA
HETATM   24  H   UNK     0     154.553 186.445 156.038  0.00  0.00     0.210 HD
ENDBRANCH   4  23
BRANCH   2  25
HETATM   25  O   UNK     0     154.614 184.511 157.612  0.00  0.00    -0.390 OA
HETATM   26  H   UNK     0     155.070 184.305 156.778  0.00  0.00     0.210 HD
ENDBRANCH   2  25
TORSDOF 10
ENDMDL
MODEL 8
REMARK VINA RESULT:      -7.0      5.002      9.502
REMARK  10 active torsions:
REMARK  status: ('A' for Active; 'I' for Inactive)
REMARK    1  A    between atoms: O_2  and  C_12 
REMARK    2  A    between atoms: O_2  and  C_14 
REMARK    3  A    between atoms: O_3  and  C_8 
REMARK    4  A    between atoms: O_4  and  C_9 
REMARK    5  A    between atoms: O_5  and  C_10 
REMARK    6  A    between atoms: O_6  and  C_13 
REMARK    7  A    between atoms: O_7  and  C_21 
REMARK    8  A    between atoms: C_11  and  C_13 
REMARK    9  A    between atoms: C_14  and  C_15 
REMARK   10  A    between atoms: C_15  and  C_16 
ROOT
HETATM    1  O   UNK     0     179.727 177.693 179.689  0.00  0.00    -0.348 OA
HETATM    2  C   UNK     0     178.681 177.224 177.056  0.00  0.00     0.183 C 
HETATM    3  C   UNK     0     177.782 177.540 178.252  0.00  0.00     0.180 C 
HETATM    4  C   UNK     0     180.030 176.665 177.511  0.00  0.00     0.204 C 
HETATM    5  C   UNK     0     178.534 178.372 179.293  0.00  0.00     0.179 C 
HETATM    6  C   UNK     0     180.647 177.527 178.612  0.00  0.00     0.291 C 
ENDROOT
BRANCH   5   7
HETATM    7  C   UNK     0     177.697 178.600 180.547  0.00  0.00     0.198 C 
BRANCH   7   8
HETATM    8  O   UNK     0     176.723 179.587 180.266  0.00  0.00    -0.398 OA
HETATM    9  H   UNK     0     176.356 179.397 179.386  0.00  0.00     0.209 HD
ENDBRANCH   7   8
ENDBRANCH   5   7
BRANCH   6  10
HETATM   10  O   UNK     0     181.822 176.867 179.079  0.00  0.00    -0.358 OA
BRANCH  10  11
HETATM   11  C   UNK     0     182.896 177.780 179.245  0.00  0.00     0.175 C 
BRANCH  11  12
HETATM   12  C   UNK     0     183.747 177.811 177.981  0.00  0.00     0.065 C 
BRANCH  12  13
HETATM   13  C   UNK     0     185.225 177.797 178.284  0.00  0.00    -0.056 A 
HETATM   14  C   UNK     0     185.797 178.881 178.929  0.00  0.00     0.010 A 
HETATM   15  C   UNK     0     187.163 178.868 179.209  0.00  0.00     0.037 A 
HETATM   16  C   UNK     0     187.940 177.770 178.838  0.00  0.00     0.065 A 
HETATM   17  C   UNK     0     187.351 176.686 178.189  0.00  0.00     0.037 A 
HETATM   18  C   UNK     0     185.985 176.699 177.910  0.00  0.00     0.010 A 
BRANCH  16  19
HETATM   19  O   UNK     0     189.274 177.758 179.112  0.00  0.00    -0.361 OA
HETATM   20  H   UNK     0     189.402 177.510 180.043  0.00  0.00     0.217 HD
ENDBRANCH  16  19
ENDBRANCH  12  13
ENDBRANCH  11  12
ENDBRANCH  10  11
ENDBRANCH   6  10
BRANCH   3  21
HETATM   21  O   UNK     0     176.641 178.266 177.804  0.00  0.00    -0.390 OA
HETATM   22  H   UNK     0     175.921 177.631 177.649  0.00  0.00     0.210 HD
ENDBRANCH   3  21
BRANCH   4  23
HETATM   23  O   UNK     0     180.931 176.643 176.403  0.00  0.00    -0.388 OA
HETATM   24  H   UNK     0     180.540 177.171 175.686  0.00  0.00     0.210 HD
ENDBRANCH   4  23
BRANCH   2  25
HETATM   25  O   UNK     0     178.014 176.257 176.245  0.00  0.00    -0.390 OA
HETATM   26  H   UNK     0     178.255 175.377 176.582  0.00  0.00     0.210 HD
ENDBRANCH   2  25
TORSDOF 10
ENDMDL
MODEL 9
REMARK VINA RESULT:      -7.0      3.407      7.978
REMARK  10 active torsions:
REMARK  status: ('A' for Active; 'I' for Inactive)
REMARK    1  A    between atoms: O_2  and  C_12 
REMARK    2  A    between atoms: O_2  and  C_14 
REMARK    3  A    between atoms: O_3  and  C_8 
REMARK    4  A    between atoms: O_4  and  C_9 
REMARK    5  A    between atoms: O_5  and  C_10 
REMARK    6  A    between atoms: O_6  and  C_13 
REMARK    7  A    between atoms: O_7  and  C_21 
REMARK    8  A    between atoms: C_11  and  C_13 
REMARK    9  A    between atoms: C_14  and  C_15 
REMARK   10  A    between atoms: C_15  and  C_16 
ROOT
HETATM    1  O   UNK     0     182.871 177.190 178.895  0.00  0.00    -0.348 OA
HETATM    2  C   UNK     0     180.428 177.473 177.412  0.00  0.00     0.183 C 
HETATM    3  C   UNK     0     180.610 176.414 178.500  0.00  0.00     0.180 C 
HETATM    4  C   UNK     0     181.777 177.935 176.859  0.00  0.00     0.204 C 
HETATM    5  C   UNK     0     181.636 176.872 179.538  0.00  0.00     0.179 C 
HETATM    6  C   UNK     0     182.750 178.282 177.986  0.00  0.00     0.291 C 
ENDROOT
BRANCH   5   7
HETATM    7  C   UNK     0     181.921 175.785 180.568  0.00  0.00     0.198 C 
BRANCH   7   8
HETATM    8  O   UNK     0     180.969 175.889 181.610  0.00  0.00    -0.398 OA
HETATM    9  H   UNK     0     180.166 176.290 181.237  0.00  0.00     0.209 HD
ENDBRANCH   7   8
ENDBRANCH   5   7
BRANCH   6  10
HETATM   10  O   UNK     0     184.019 178.563 177.398  0.00  0.00    -0.358 OA
BRANCH  10  11
HETATM   11  C   UNK     0     184.961 177.541 177.690  0.00  0.00     0.175 C 
BRANCH  11  12
HETATM   12  C   UNK     0     186.158 178.137 178.422  0.00  0.00     0.065 C 
BRANCH  12  13
HETATM   13  C   UNK     0     187.427 177.358 178.175  0.00  0.00    -0.056 A 
HETATM   14  C   UNK     0     188.633 178.033 178.093  0.00  0.00     0.010 A 
HETATM   15  C   UNK     0     189.806 177.314 177.865  0.00  0.00     0.037 A 
HETATM   16  C   UNK     0     189.756 175.927 177.722  0.00  0.00     0.065 A 
HETATM   17  C   UNK     0     188.535 175.260 177.807  0.00  0.00     0.037 A 
HETATM   18  C   UNK     0     187.362 175.981 178.035  0.00  0.00     0.010 A 
BRANCH  16  19
HETATM   19  O   UNK     0     190.901 175.225 177.499  0.00  0.00    -0.361 OA
HETATM   20  H   UNK     0     191.059 174.632 178.254  0.00  0.00     0.217 HD
ENDBRANCH  16  19
ENDBRANCH  12  13
ENDBRANCH  11  12
ENDBRANCH  10  11
ENDBRANCH   6  10
BRANCH   3  21
HETATM   21  O   UNK     0     179.360 176.181 179.144  0.00  0.00    -0.390 OA
HETATM   22  H   UNK     0     179.442 176.461 180.071  0.00  0.00     0.210 HD
ENDBRANCH   3  21
BRANCH   4  23
HETATM   23  O   UNK     0     181.586 179.101 176.058  0.00  0.00    -0.388 OA
HETATM   24  H   UNK     0     180.630 179.229 175.935  0.00  0.00     0.210 HD
ENDBRANCH   4  23
BRANCH   2  25
HETATM   25  O   UNK     0     179.655 176.896 176.359  0.00  0.00    -0.390 OA
HETATM   26  H   UNK     0     179.858 175.945 176.335  0.00  0.00     0.210 HD
ENDBRANCH   2  25
TORSDOF 10
ENDMDL
