REMARK VINA RESULT:      -6.5      4.795      7.734
REMARK  6 active torsions:
REMARK  status: ('A' for Active; 'I' for Inactive)
REMARK    1  A    between atoms: O_2  and  C_9 
REMARK    2  A    between atoms: O_4  and  C_14 
REMARK    3  A    between atoms: O_5  and  C_19 
REMARK    4  A    between atoms: O_6  and  C_20 
REMARK    5  A    between atoms: O_7  and  C_22 
REMARK    6  A    between atoms: C_8  and  C_10 
ROOT
HETATM    1  O   UNK     0     187.260 183.573 171.268  0.00  0.00    -0.337 OA
HETATM    2  O   UNK     0     188.616 187.404 171.838  0.00  0.00    -0.289 OA
HETATM    3  C   UNK     0     187.610 184.413 170.156  0.00  0.00     0.198 C 
HETATM    4  C   UNK     0     188.734 185.381 170.526  0.00  0.00     0.227 C 
HETATM    5  C   UNK     0     188.276 186.236 171.688  0.00  0.00     0.196 C 
HETATM    6  C   UNK     0     187.409 185.561 172.673  0.00  0.00     0.079 A 
HETATM    7  C   UNK     0     186.965 184.263 172.413  0.00  0.00     0.089 A 
HETATM    8  C   UNK     0     187.061 186.201 173.865  0.00  0.00     0.085 A 
HETATM    9  C   UNK     0     186.198 183.590 173.366  0.00  0.00     0.074 A 
HETATM   10  C   UNK     0     186.278 185.531 174.805  0.00  0.00     0.074 A 
HETATM   11  C   UNK     0     185.851 184.226 174.559  0.00  0.00     0.071 A 
ENDROOT
BRANCH   3  12
HETATM   12  C   UNK     0     188.007 183.500 169.012  0.00  0.00    -0.023 A 
HETATM   13  C   UNK     0     189.165 182.731 169.107  0.00  0.00     0.049 A 
HETATM   14  C   UNK     0     189.531 181.892 168.054  0.00  0.00     0.099 A 
HETATM   15  C   UNK     0     188.739 181.825 166.908  0.00  0.00     0.098 A 
HETATM   16  C   UNK     0     187.579 182.596 166.815  0.00  0.00     0.040 A 
HETATM   17  C   UNK     0     187.214 183.435 167.868  0.00  0.00     0.013 A 
BRANCH  14  18
HETATM   18  O   UNK     0     190.664 181.144 168.156  0.00  0.00    -0.358 OA
HETATM   19  H   UNK     0     191.431 181.733 168.049  0.00  0.00     0.217 HD
ENDBRANCH  14  18
BRANCH  15  20
HETATM   20  O   UNK     0     189.085 181.009 165.873  0.00  0.00    -0.358 OA
HETATM   21  H   UNK     0     190.053 180.922 165.849  0.00  0.00     0.217 HD
ENDBRANCH  15  20
ENDBRANCH   3  12
BRANCH   4  22
HETATM   22  O   UNK     0     189.020 186.238 169.433  0.00  0.00    -0.385 OA
HETATM   23  H   UNK     0     189.663 185.783 168.864  0.00  0.00     0.210 HD
ENDBRANCH   4  22
BRANCH   8  24
HETATM   24  O   UNK     0     187.464 187.468 174.166  0.00  0.00    -0.360 OA
HETATM   25  H   UNK     0     187.047 187.774 174.985  0.00  0.00     0.217 HD
ENDBRANCH   8  24
BRANCH  11  26
HETATM   26  O   UNK     0     185.095 183.573 175.482  0.00  0.00    -0.361 OA
HETATM   27  H   UNK     0     185.604 183.490 176.307  0.00  0.00     0.217 HD
ENDBRANCH  11  26
TORSDOF 6
