REMARK VINA RESULT:      -6.7     11.894     13.685
REMARK  6 active torsions:
REMARK  status: ('A' for Active; 'I' for Inactive)
REMARK    1  A    between atoms: O_2  and  C_9 
REMARK    2  A    between atoms: O_4  and  C_14 
REMARK    3  A    between atoms: O_5  and  C_19 
REMARK    4  A    between atoms: O_6  and  C_20 
REMARK    5  A    between atoms: O_7  and  C_22 
REMARK    6  A    between atoms: C_8  and  C_10 
ROOT
HETATM    1  O   UNK     0     190.767 186.751 183.976  0.00  0.00    -0.337 OA
HETATM    2  O   UNK     0     191.221 185.965 179.973  0.00  0.00    -0.289 OA
HETATM    3  C   UNK     0     190.595 187.781 182.990  0.00  0.00     0.198 C 
HETATM    4  C   UNK     0     190.052 187.209 181.680  0.00  0.00     0.227 C 
HETATM    5  C   UNK     0     191.021 186.167 181.165  0.00  0.00     0.196 C 
HETATM    6  C   UNK     0     191.700 185.363 182.200  0.00  0.00     0.079 A 
HETATM    7  C   UNK     0     191.521 185.692 183.546  0.00  0.00     0.089 A 
HETATM    8  C   UNK     0     192.489 184.267 181.840  0.00  0.00     0.085 A 
HETATM    9  C   UNK     0     192.106 184.900 184.535  0.00  0.00     0.074 A 
HETATM   10  C   UNK     0     193.087 183.492 182.833  0.00  0.00     0.074 A 
HETATM   11  C   UNK     0     192.892 183.804 184.178  0.00  0.00     0.071 A 
ENDROOT
BRANCH   3  12
HETATM   12  C   UNK     0     189.660 188.818 183.582  0.00  0.00    -0.023 A 
HETATM   13  C   UNK     0     188.431 188.424 184.107  0.00  0.00     0.049 A 
HETATM   14  C   UNK     0     187.570 189.377 184.652  0.00  0.00     0.099 A 
HETATM   15  C   UNK     0     187.940 190.722 184.669  0.00  0.00     0.098 A 
HETATM   16  C   UNK     0     189.171 191.114 184.143  0.00  0.00     0.040 A 
HETATM   17  C   UNK     0     190.031 190.161 183.598  0.00  0.00     0.013 A 
BRANCH  14  18
HETATM   18  O   UNK     0     186.371 188.983 185.164  0.00  0.00    -0.358 OA
HETATM   19  H   UNK     0     186.121 189.604 185.870  0.00  0.00     0.217 HD
ENDBRANCH  14  18
BRANCH  15  20
HETATM   20  O   UNK     0     187.108 191.663 185.199  0.00  0.00    -0.358 OA
HETATM   21  H   UNK     0     187.105 192.444 184.620  0.00  0.00     0.217 HD
ENDBRANCH  15  20
ENDBRANCH   3  12
BRANCH   4  22
HETATM   22  O   UNK     0     189.947 188.233 180.705  0.00  0.00    -0.385 OA
HETATM   23  H   UNK     0     190.842 188.576 180.543  0.00  0.00     0.210 HD
ENDBRANCH   4  22
BRANCH   8  24
HETATM   24  O   UNK     0     192.700 183.906 180.543  0.00  0.00    -0.360 OA
HETATM   25  H   UNK     0     193.581 184.181 180.249  0.00  0.00     0.217 HD
ENDBRANCH   8  24
BRANCH  11  26
HETATM   26  O   UNK     0     193.471 183.039 185.144  0.00  0.00    -0.361 OA
HETATM   27  H   UNK     0     194.298 183.464 185.431  0.00  0.00     0.217 HD
ENDBRANCH  11  26
TORSDOF 6
