REMARK VINA RESULT:      -6.5      8.150     10.582
REMARK  6 active torsions:
REMARK  status: ('A' for Active; 'I' for Inactive)
REMARK    1  A    between atoms: O_2  and  C_9 
REMARK    2  A    between atoms: O_4  and  C_14 
REMARK    3  A    between atoms: O_5  and  C_19 
REMARK    4  A    between atoms: O_6  and  C_20 
REMARK    5  A    between atoms: O_7  and  C_22 
REMARK    6  A    between atoms: C_8  and  C_10 
ROOT
HETATM    1  O   UNK     0     177.679 176.346 169.221  0.00  0.00    -0.337 OA
HETATM    2  O   UNK     0     175.230 173.164 170.073  0.00  0.00    -0.289 OA
HETATM    3  C   UNK     0     178.064 175.343 170.174  0.00  0.00     0.198 C 
HETATM    4  C   UNK     0     177.488 173.976 169.805  0.00  0.00     0.227 C 
HETATM    5  C   UNK     0     175.979 174.081 169.756  0.00  0.00     0.196 C 
HETATM    6  C   UNK     0     175.446 175.365 169.261  0.00  0.00     0.079 A 
HETATM    7  C   UNK     0     176.328 176.417 169.007  0.00  0.00     0.089 A 
HETATM    8  C   UNK     0     174.077 175.517 169.021  0.00  0.00     0.085 A 
HETATM    9  C   UNK     0     175.843 177.614 168.477  0.00  0.00     0.074 A 
HETATM   10  C   UNK     0     173.597 176.722 168.510  0.00  0.00     0.074 A 
HETATM   11  C   UNK     0     174.478 177.767 168.233  0.00  0.00     0.071 A 
ENDROOT
BRANCH   3  12
HETATM   12  C   UNK     0     179.580 175.322 170.216  0.00  0.00    -0.023 A 
HETATM   13  C   UNK     0     180.246 175.633 171.400  0.00  0.00     0.049 A 
HETATM   14  C   UNK     0     181.640 175.614 171.440  0.00  0.00     0.099 A 
HETATM   15  C   UNK     0     182.365 175.285 170.295  0.00  0.00     0.098 A 
HETATM   16  C   UNK     0     181.697 174.973 169.110  0.00  0.00     0.040 A 
HETATM   17  C   UNK     0     180.303 174.993 169.071  0.00  0.00     0.013 A 
BRANCH  14  18
HETATM   18  O   UNK     0     182.282 175.919 172.601  0.00  0.00    -0.358 OA
HETATM   19  H   UNK     0     182.341 176.888 172.674  0.00  0.00     0.217 HD
ENDBRANCH  14  18
BRANCH  15  20
HETATM   20  O   UNK     0     183.728 175.262 170.320  0.00  0.00    -0.358 OA
HETATM   21  H   UNK     0     184.044 175.925 170.958  0.00  0.00     0.217 HD
ENDBRANCH  15  20
ENDBRANCH   3  12
BRANCH   4  22
HETATM   22  O   UNK     0     177.832 173.017 170.791  0.00  0.00    -0.385 OA
HETATM   23  H   UNK     0     177.039 172.485 170.971  0.00  0.00     0.210 HD
ENDBRANCH   4  22
BRANCH   8  24
HETATM   24  O   UNK     0     173.174 174.524 169.254  0.00  0.00    -0.360 OA
HETATM   25  H   UNK     0     172.927 174.084 168.427  0.00  0.00     0.217 HD
ENDBRANCH   8  24
BRANCH  11  26
HETATM   26  O   UNK     0     174.005 178.939 167.727  0.00  0.00    -0.361 OA
HETATM   27  H   UNK     0     174.406 179.679 168.216  0.00  0.00     0.217 HD
ENDBRANCH  11  26
TORSDOF 6
