MODEL 1
REMARK VINA RESULT:      -9.2      0.000      0.000
REMARK  Name = 5280637
REMARK                            x       y       z     vdW  Elec       q    Type
REMARK                         _______ _______ _______ _____ _____    ______ ____
ROOT
ATOM     13  C   LIG    1        4.128  44.115  21.859  0.00  0.00    +0.131 A 
ATOM     14  C   LIG    1        3.297  43.204  21.207  0.00  0.00    +0.092 A 
ATOM     15  C   LIG    1        2.678  42.181  21.927  0.00  0.00    +0.135 A 
ATOM     16  C   LIG    1        2.896  42.077  23.303  0.00  0.00    +0.105 A 
ATOM     17  C   LIG    1        2.259  41.009  24.088  0.00  0.00    +0.197 A 
ATOM     18  C   LIG    1        2.558  40.995  25.534  0.00  0.00    +0.098 A 
ATOM     19  C   LIG    1        3.371  41.933  26.047  0.00  0.00    +0.139 A 
ATOM     30  O   LIG    1        3.977  42.933  25.303  0.00  0.00    -0.454 OA
ATOM     31  O   LIG    1        1.522  40.176  23.580  0.00  0.00    -0.287 OA
ATOM     32  C   LIG    1        3.726  42.988  23.955  0.00  0.00    +0.146 A 
ATOM     35  C   LIG    1        4.344  44.009  23.233  0.00  0.00    +0.093 A 
ENDROOT
BRANCH  19  20
ATOM     20  C   LIG    1        3.713  41.963  27.484  0.00  0.00    +0.021 A 
ATOM     21  C   LIG    1        2.828  41.435  28.426  0.00  0.00    +0.015 A 
ATOM     22  C   LIG    1        3.151  41.465  29.783  0.00  0.00    +0.050 A 
ATOM     23  C   LIG    1        4.359  42.023  30.201  0.00  0.00    +0.158 A 
ATOM     24  C   LIG    1        5.244  42.552  29.261  0.00  0.00    +0.159 A 
ATOM     29  C   LIG    1        4.922  42.522  27.905  0.00  0.00    +0.060 A 
BRANCH  24  25
ATOM     25  O   LIG    1        6.428  43.097  29.659  0.00  0.00    -0.503 OA
ATOM     26  H   LIG    1        6.239  43.915  30.148  0.00  0.00    +0.292 HD
ENDBRANCH  24  25
BRANCH  23  27
ATOM     27  O   LIG    1        4.662  42.047  31.529  0.00  0.00    -0.503 OA
ATOM     28  H   LIG    1        4.092  41.411  31.995  0.00  0.00    +0.292 HD
ENDBRANCH  23  27
ENDBRANCH  19  20
BRANCH  15  33
ATOM     33  O   LIG    1        1.876  41.316  21.245  0.00  0.00    -0.506 OA
ATOM     34  H   LIG    1        1.352  41.789  20.581  0.00  0.00    +0.292 HD
ENDBRANCH  15  33
BRANCH  13  12
ATOM     12  O   LIG    1        4.732  45.113  21.150  0.00  0.00    -0.461 OA
BRANCH  12   2
ATOM      1  O   LIG    1        7.018  45.540  21.325  0.00  0.00    -0.331 OA
ATOM      2  C   LIG    1        6.018  44.822  20.607  0.00  0.00    +0.339 C 
ATOM      3  C   LIG    1        6.012  45.237  19.136  0.00  0.00    +0.214 C 
ATOM      4  C   LIG    1        7.402  45.099  18.513  0.00  0.00    +0.180 C 
ATOM      5  C   LIG    1        8.471  45.744  19.395  0.00  0.00    +0.177 C 
ATOM     36  C   LIG    1        8.337  45.271  20.844  0.00  0.00    +0.179 C 
BRANCH   5   6
ATOM      6  O   LIG    1        9.762  45.396  18.902  0.00  0.00    -0.386 OA
ATOM      7  H   LIG    1       10.100  46.148  18.387  0.00  0.00    +0.210 HD
ENDBRANCH   5   6
BRANCH   4   8
ATOM      8  O   LIG    1        7.421  45.753  17.243  0.00  0.00    -0.386 OA
ATOM      9  H   LIG    1        6.762  46.468  17.274  0.00  0.00    +0.210 HD
ENDBRANCH   4   8
BRANCH   3  10
ATOM     10  O   LIG    1        5.094  44.397  18.437  0.00  0.00    -0.383 OA
ATOM     11  H   LIG    1        4.263  44.372  18.942  0.00  0.00    +0.210 HD
ENDBRANCH   3  10
BRANCH  36  37
ATOM     37  C   LIG    1        9.318  45.991  21.765  0.00  0.00    +0.190 C 
BRANCH  37  38
ATOM     38  O   LIG    1        9.878  47.084  21.060  0.00  0.00    -0.392 OA
ATOM     39  H   LIG    1       10.357  47.635  21.703  0.00  0.00    +0.210 HD
ENDBRANCH  37  38
ENDBRANCH  36  37
ENDBRANCH  12   2
ENDBRANCH  13  12
TORSDOF 11
ENDMDL
MODEL 2
REMARK VINA RESULT:      -9.0      1.996      8.314
REMARK  Name = 5280637
REMARK                            x       y       z     vdW  Elec       q    Type
REMARK                         _______ _______ _______ _____ _____    ______ ____
ROOT
ATOM     13  C   LIG    1        2.638  41.038  25.880  0.00  0.00    +0.131 A 
ATOM     14  C   LIG    1        1.932  40.018  25.242  0.00  0.00    +0.092 A 
ATOM     15  C   LIG    1        1.789  40.026  23.854  0.00  0.00    +0.135 A 
ATOM     16  C   LIG    1        2.357  41.062  23.109  0.00  0.00    +0.105 A 
ATOM     17  C   LIG    1        2.221  41.099  21.645  0.00  0.00    +0.197 A 
ATOM     18  C   LIG    1        2.863  42.239  20.959  0.00  0.00    +0.098 A 
ATOM     19  C   LIG    1        3.522  43.157  21.683  0.00  0.00    +0.139 A 
ATOM     30  O   LIG    1        3.641  43.124  23.064  0.00  0.00    -0.454 OA
ATOM     31  O   LIG    1        1.613  40.240  21.023  0.00  0.00    -0.287 OA
ATOM     32  C   LIG    1        3.063  42.082  23.745  0.00  0.00    +0.146 A 
ATOM     35  C   LIG    1        3.205  42.072  25.133  0.00  0.00    +0.093 A 
ENDROOT
BRANCH  19  20
ATOM     20  C   LIG    1        4.176  44.322  21.053  0.00  0.00    +0.021 A 
ATOM     21  C   LIG    1        4.215  45.549  21.718  0.00  0.00    +0.015 A 
ATOM     22  C   LIG    1        4.831  46.649  21.122  0.00  0.00    +0.050 A 
ATOM     23  C   LIG    1        5.410  46.525  19.859  0.00  0.00    +0.158 A 
ATOM     24  C   LIG    1        5.371  45.301  19.191  0.00  0.00    +0.159 A 
ATOM     29  C   LIG    1        4.755  44.200  19.788  0.00  0.00    +0.060 A 
BRANCH  24  25
ATOM     25  O   LIG    1        5.935  45.168  17.958  0.00  0.00    -0.503 OA
ATOM     26  H   LIG    1        6.862  44.901  18.073  0.00  0.00    +0.292 HD
ENDBRANCH  24  25
BRANCH  23  27
ATOM     27  O   LIG    1        6.007  47.607  19.287  0.00  0.00    -0.503 OA
ATOM     28  H   LIG    1        5.946  47.529  18.319  0.00  0.00    +0.292 HD
ENDBRANCH  23  27
ENDBRANCH  19  20
BRANCH  15  33
ATOM     33  O   LIG    1        1.090  39.008  23.279  0.00  0.00    -0.506 OA
ATOM     34  H   LIG    1        0.504  38.589  23.927  0.00  0.00    +0.292 HD
ENDBRANCH  15  33
BRANCH  13  12
ATOM     12  O   LIG    1        2.775  41.026  27.237  0.00  0.00    -0.461 OA
BRANCH  12   2
ATOM      1  O   LIG    1        5.051  41.523  27.357  0.00  0.00    -0.331 OA
ATOM      2  C   LIG    1        3.749  41.911  27.788  0.00  0.00    +0.339 C 
ATOM      3  C   LIG    1        3.644  41.835  29.312  0.00  0.00    +0.214 C 
ATOM      4  C   LIG    1        4.755  42.641  29.987  0.00  0.00    +0.180 C 
ATOM      5  C   LIG    1        6.121  42.313  29.384  0.00  0.00    +0.177 C 
ATOM     36  C   LIG    1        6.074  42.388  27.856  0.00  0.00    +0.179 C 
BRANCH   5   6
ATOM      6  O   LIG    1        7.087  43.240  29.872  0.00  0.00    -0.386 OA
ATOM      7  H   LIG    1        7.263  43.027  30.805  0.00  0.00    +0.210 HD
ENDBRANCH   5   6
BRANCH   4   8
ATOM      8  O   LIG    1        4.796  42.321  31.378  0.00  0.00    -0.386 OA
ATOM      9  H   LIG    1        4.003  41.795  31.579  0.00  0.00    +0.210 HD
ENDBRANCH   4   8
BRANCH   3  10
ATOM     10  O   LIG    1        2.375  42.360  29.701  0.00  0.00    -0.383 OA
ATOM     11  H   LIG    1        2.152  43.088  29.095  0.00  0.00    +0.210 HD
ENDBRANCH   3  10
BRANCH  36  37
ATOM     37  C   LIG    1        7.393  41.951  27.228  0.00  0.00    +0.190 C 
BRANCH  37  38
ATOM     38  O   LIG    1        8.241  43.080  27.130  0.00  0.00    -0.392 OA
ATOM     39  H   LIG    1        8.434  43.224  26.187  0.00  0.00    +0.210 HD
ENDBRANCH  37  38
ENDBRANCH  36  37
ENDBRANCH  12   2
ENDBRANCH  13  12
TORSDOF 11
ENDMDL
MODEL 3
REMARK VINA RESULT:      -8.9      2.114      4.921
REMARK  Name = 5280637
REMARK                            x       y       z     vdW  Elec       q    Type
REMARK                         _______ _______ _______ _____ _____    ______ ____
ROOT
ATOM     13  C   LIG    1        4.382  44.263  22.148  0.00  0.00    +0.131 A 
ATOM     14  C   LIG    1        4.704  44.689  23.436  0.00  0.00    +0.092 A 
ATOM     15  C   LIG    1        4.319  43.930  24.542  0.00  0.00    +0.135 A 
ATOM     16  C   LIG    1        3.610  42.742  24.350  0.00  0.00    +0.105 A 
ATOM     17  C   LIG    1        3.190  41.922  25.496  0.00  0.00    +0.197 A 
ATOM     18  C   LIG    1        2.448  40.686  25.177  0.00  0.00    +0.098 A 
ATOM     19  C   LIG    1        2.203  40.379  23.893  0.00  0.00    +0.139 A 
ATOM     30  O   LIG    1        2.594  41.158  22.815  0.00  0.00    -0.454 OA
ATOM     31  O   LIG    1        3.436  42.239  26.652  0.00  0.00    -0.287 OA
ATOM     32  C   LIG    1        3.288  42.315  23.063  0.00  0.00    +0.146 A 
ATOM     35  C   LIG    1        3.673  43.075  21.959  0.00  0.00    +0.093 A 
ENDROOT
BRANCH  19  20
ATOM     20  C   LIG    1        1.458  39.160  23.514  0.00  0.00    +0.021 A 
ATOM     21  C   LIG    1        0.383  38.726  24.292  0.00  0.00    +0.015 A 
ATOM     22  C   LIG    1       -0.320  37.575  23.934  0.00  0.00    +0.050 A 
ATOM     23  C   LIG    1        0.052  36.855  22.798  0.00  0.00    +0.158 A 
ATOM     24  C   LIG    1        1.127  37.287  22.021  0.00  0.00    +0.159 A 
ATOM     29  C   LIG    1        1.829  38.438  22.378  0.00  0.00    +0.060 A 
BRANCH  24  25
ATOM     25  O   LIG    1        1.496  36.592  20.908  0.00  0.00    -0.503 OA
ATOM     26  H   LIG    1        1.851  35.731  21.188  0.00  0.00    +0.292 HD
ENDBRANCH  24  25
BRANCH  23  27
ATOM     27  O   LIG    1       -0.641  35.732  22.461  0.00  0.00    -0.503 OA
ATOM     28  H   LIG    1       -1.020  35.340  23.266  0.00  0.00    +0.292 HD
ENDBRANCH  23  27
ENDBRANCH  19  20
BRANCH  15  33
ATOM     33  O   LIG    1        4.657  44.390  25.779  0.00  0.00    -0.506 OA
ATOM     34  H   LIG    1        4.544  43.694  26.444  0.00  0.00    +0.292 HD
ENDBRANCH  15  33
BRANCH  13  12
ATOM     12  O   LIG    1        4.759  45.008  21.069  0.00  0.00    -0.461 OA
BRANCH  12   2
ATOM      1  O   LIG    1        7.032  45.496  21.264  0.00  0.00    -0.331 OA
ATOM      2  C   LIG    1        6.058  44.750  20.539  0.00  0.00    +0.339 C 
ATOM      3  C   LIG    1        6.054  45.162  19.066  0.00  0.00    +0.214 C 
ATOM      4  C   LIG    1        7.453  45.059  18.456  0.00  0.00    +0.180 C 
ATOM      5  C   LIG    1        8.496  45.735  19.347  0.00  0.00    +0.177 C 
ATOM     36  C   LIG    1        8.362  45.262  20.796  0.00  0.00    +0.179 C 
BRANCH   5   6
ATOM      6  O   LIG    1        9.801  45.420  18.867  0.00  0.00    -0.386 OA
ATOM      7  H   LIG    1        9.922  44.458  18.935  0.00  0.00    +0.210 HD
ENDBRANCH   5   6
BRANCH   4   8
ATOM      8  O   LIG    1        7.467  45.711  17.185  0.00  0.00    -0.386 OA
ATOM      9  H   LIG    1        7.040  45.113  16.547  0.00  0.00    +0.210 HD
ENDBRANCH   4   8
BRANCH   3  10
ATOM     10  O   LIG    1        5.166  44.297  18.361  0.00  0.00    -0.383 OA
ATOM     11  H   LIG    1        5.642  43.473  18.161  0.00  0.00    +0.210 HD
ENDBRANCH   3  10
BRANCH  36  37
ATOM     37  C   LIG    1        9.315  46.009  21.724  0.00  0.00    +0.190 C 
BRANCH  37  38
ATOM     38  O   LIG    1        9.878  47.095  21.011  0.00  0.00    -0.392 OA
ATOM     39  H   LIG    1        9.806  47.886  21.573  0.00  0.00    +0.210 HD
ENDBRANCH  37  38
ENDBRANCH  36  37
ENDBRANCH  12   2
ENDBRANCH  13  12
TORSDOF 11
ENDMDL
MODEL 4
REMARK VINA RESULT:      -8.8      3.073      5.618
REMARK  Name = 5280637
REMARK                            x       y       z     vdW  Elec       q    Type
REMARK                         _______ _______ _______ _____ _____    ______ ____
ROOT
ATOM     13  C   LIG    1        3.685  42.888  21.576  0.00  0.00    +0.131 A 
ATOM     14  C   LIG    1        3.994  43.426  22.825  0.00  0.00    +0.092 A 
ATOM     15  C   LIG    1        3.583  42.776  23.990  0.00  0.00    +0.135 A 
ATOM     16  C   LIG    1        2.861  41.584  23.895  0.00  0.00    +0.105 A 
ATOM     17  C   LIG    1        2.414  40.876  25.104  0.00  0.00    +0.197 A 
ATOM     18  C   LIG    1        1.660  39.625  24.887  0.00  0.00    +0.098 A 
ATOM     19  C   LIG    1        1.430  39.205  23.633  0.00  0.00    +0.139 A 
ATOM     30  O   LIG    1        1.846  39.878  22.494  0.00  0.00    -0.454 OA
ATOM     31  O   LIG    1        2.647  41.293  26.230  0.00  0.00    -0.287 OA
ATOM     32  C   LIG    1        2.552  41.045  22.647  0.00  0.00    +0.146 A 
ATOM     35  C   LIG    1        2.963  41.697  21.485  0.00  0.00    +0.093 A 
ENDROOT
BRANCH  19  20
ATOM     20  C   LIG    1        0.674  37.966  23.354  0.00  0.00    +0.021 A 
ATOM     21  C   LIG    1       -0.615  37.802  23.865  0.00  0.00    +0.015 A 
ATOM     22  C   LIG    1       -1.328  36.632  23.603  0.00  0.00    +0.050 A 
ATOM     23  C   LIG    1       -0.753  35.623  22.828  0.00  0.00    +0.158 A 
ATOM     24  C   LIG    1        0.535  35.785  22.318  0.00  0.00    +0.159 A 
ATOM     29  C   LIG    1        1.248  36.955  22.580  0.00  0.00    +0.060 A 
BRANCH  24  25
ATOM     25  O   LIG    1        1.105  34.807  21.559  0.00  0.00    -0.503 OA
ATOM     26  H   LIG    1        0.640  33.972  21.737  0.00  0.00    +0.292 HD
ENDBRANCH  24  25
BRANCH  23  27
ATOM     27  O   LIG    1       -1.459  34.485  22.581  0.00  0.00    -0.503 OA
ATOM     28  H   LIG    1       -2.004  34.275  23.358  0.00  0.00    +0.292 HD
ENDBRANCH  23  27
ENDBRANCH  19  20
BRANCH  15  33
ATOM     33  O   LIG    1        3.910  43.342  25.185  0.00  0.00    -0.506 OA
ATOM     34  H   LIG    1        4.669  43.935  25.085  0.00  0.00    +0.292 HD
ENDBRANCH  15  33
BRANCH  13  12
ATOM     12  O   LIG    1        4.088  43.528  20.441  0.00  0.00    -0.461 OA
BRANCH  12   2
ATOM      1  O   LIG    1        4.839  45.718  20.147  0.00  0.00    -0.331 OA
ATOM      2  C   LIG    1        5.206  44.406  20.566  0.00  0.00    +0.339 C 
ATOM      3  C   LIG    1        6.332  43.859  19.688  0.00  0.00    +0.214 C 
ATOM      4  C   LIG    1        7.520  44.821  19.644  0.00  0.00    +0.180 C 
ATOM      5  C   LIG    1        7.065  46.250  19.351  0.00  0.00    +0.177 C 
ATOM     36  C   LIG    1        5.912  46.653  20.272  0.00  0.00    +0.179 C 
BRANCH   5   6
ATOM      6  O   LIG    1        8.159  47.143  19.546  0.00  0.00    -0.386 OA
ATOM      7  H   LIG    1        7.809  48.050  19.545  0.00  0.00    +0.210 HD
ENDBRANCH   5   6
BRANCH   4   8
ATOM      8  O   LIG    1        8.419  44.420  18.608  0.00  0.00    -0.386 OA
ATOM      9  H   LIG    1        9.170  43.971  19.033  0.00  0.00    +0.210 HD
ENDBRANCH   4   8
BRANCH   3  10
ATOM     10  O   LIG    1        6.755  42.608  20.229  0.00  0.00    -0.383 OA
ATOM     11  H   LIG    1        7.437  42.785  20.900  0.00  0.00    +0.210 HD
ENDBRANCH   3  10
BRANCH  36  37
ATOM     37  C   LIG    1        5.363  48.032  19.919  0.00  0.00    +0.190 C 
BRANCH  37  38
ATOM     38  O   LIG    1        6.188  48.603  18.920  0.00  0.00    -0.392 OA
ATOM     39  H   LIG    1        6.268  49.554  19.111  0.00  0.00    +0.210 HD
ENDBRANCH  37  38
ENDBRANCH  36  37
ENDBRANCH  12   2
ENDBRANCH  13  12
TORSDOF 11
ENDMDL
MODEL 5
REMARK VINA RESULT:      -8.8      2.075      3.044
REMARK  Name = 5280637
REMARK                            x       y       z     vdW  Elec       q    Type
REMARK                         _______ _______ _______ _____ _____    ______ ____
ROOT
ATOM     13  C   LIG    1        6.119  44.213  20.640  0.00  0.00    +0.131 A 
ATOM     14  C   LIG    1        5.267  43.903  19.580  0.00  0.00    +0.092 A 
ATOM     15  C   LIG    1        4.104  43.165  19.807  0.00  0.00    +0.135 A 
ATOM     16  C   LIG    1        3.801  42.739  21.102  0.00  0.00    +0.105 A 
ATOM     17  C   LIG    1        2.584  41.959  21.373  0.00  0.00    +0.197 A 
ATOM     18  C   LIG    1        2.362  41.563  22.779  0.00  0.00    +0.098 A 
ATOM     19  C   LIG    1        3.254  41.928  23.714  0.00  0.00    +0.139 A 
ATOM     30  O   LIG    1        4.404  42.657  23.454  0.00  0.00    -0.454 OA
ATOM     31  O   LIG    1        1.796  41.650  20.490  0.00  0.00    -0.287 OA
ATOM     32  C   LIG    1        4.652  43.049  22.163  0.00  0.00    +0.146 A 
ATOM     35  C   LIG    1        5.813  43.786  21.933  0.00  0.00    +0.093 A 
ENDROOT
BRANCH  19  20
ATOM     20  C   LIG    1        3.088  41.553  25.133  0.00  0.00    +0.021 A 
ATOM     21  C   LIG    1        2.321  40.439  25.480  0.00  0.00    +0.015 A 
ATOM     22  C   LIG    1        2.164  40.087  26.820  0.00  0.00    +0.050 A 
ATOM     23  C   LIG    1        2.774  40.847  27.818  0.00  0.00    +0.158 A 
ATOM     24  C   LIG    1        3.540  41.962  27.474  0.00  0.00    +0.159 A 
ATOM     29  C   LIG    1        3.697  42.314  26.134  0.00  0.00    +0.060 A 
BRANCH  24  25
ATOM     25  O   LIG    1        4.141  42.711  28.441  0.00  0.00    -0.503 OA
ATOM     26  H   LIG    1        4.321  42.137  29.205  0.00  0.00    +0.292 HD
ENDBRANCH  24  25
BRANCH  23  27
ATOM     27  O   LIG    1        2.612  40.493  29.123  0.00  0.00    -0.503 OA
ATOM     28  H   LIG    1        1.661  40.440  29.321  0.00  0.00    +0.292 HD
ENDBRANCH  23  27
ENDBRANCH  19  20
BRANCH  15  33
ATOM     33  O   LIG    1        3.306  42.888  18.739  0.00  0.00    -0.506 OA
ATOM     34  H   LIG    1        3.836  42.790  17.934  0.00  0.00    +0.292 HD
ENDBRANCH  15  33
BRANCH  13  12
ATOM     12  O   LIG    1        7.254  44.934  20.412  0.00  0.00    -0.461 OA
BRANCH  12   2
ATOM      1  O   LIG    1        9.246  43.775  20.777  0.00  0.00    -0.331 OA
ATOM      2  C   LIG    1        8.334  44.243  19.786  0.00  0.00    +0.339 C 
ATOM      3  C   LIG    1        9.029  45.220  18.837  0.00  0.00    +0.214 C 
ATOM      4  C   LIG    1       10.294  44.606  18.235  0.00  0.00    +0.180 C 
ATOM      5  C   LIG    1       11.169  43.971  19.315  0.00  0.00    +0.177 C 
ATOM     36  C   LIG    1       10.341  43.050  20.214  0.00  0.00    +0.179 C 
BRANCH   5   6
ATOM      6  O   LIG    1       12.208  43.216  18.697  0.00  0.00    -0.386 OA
ATOM      7  H   LIG    1       11.816  42.399  18.344  0.00  0.00    +0.210 HD
ENDBRANCH   5   6
BRANCH   4   8
ATOM      8  O   LIG    1       11.057  45.626  17.589  0.00  0.00    -0.386 OA
ATOM      9  H   LIG    1       10.432  46.303  17.277  0.00  0.00    +0.210 HD
ENDBRANCH   4   8
BRANCH   3  10
ATOM     10  O   LIG    1        8.119  45.552  17.789  0.00  0.00    -0.383 OA
ATOM     11  H   LIG    1        7.526  46.251  18.115  0.00  0.00    +0.210 HD
ENDBRANCH   3  10
BRANCH  36  37
ATOM     37  C   LIG    1       11.169  42.497  21.370  0.00  0.00    +0.190 C 
BRANCH  37  38
ATOM     38  O   LIG    1       11.920  41.394  20.899  0.00  0.00    -0.392 OA
ATOM     39  H   LIG    1       12.860  41.646  20.919  0.00  0.00    +0.210 HD
ENDBRANCH  37  38
ENDBRANCH  36  37
ENDBRANCH  12   2
ENDBRANCH  13  12
TORSDOF 11
ENDMDL
MODEL 6
REMARK VINA RESULT:      -8.7      3.558      9.544
REMARK  Name = 5280637
REMARK                            x       y       z     vdW  Elec       q    Type
REMARK                         _______ _______ _______ _____ _____    ______ ____
ROOT
ATOM     13  C   LIG    1        1.786  39.664  22.900  0.00  0.00    +0.131 A 
ATOM     14  C   LIG    1        1.777  39.805  24.287  0.00  0.00    +0.092 A 
ATOM     15  C   LIG    1        2.451  40.868  24.889  0.00  0.00    +0.135 A 
ATOM     16  C   LIG    1        3.135  41.789  24.093  0.00  0.00    +0.105 A 
ATOM     17  C   LIG    1        3.856  42.919  24.698  0.00  0.00    +0.197 A 
ATOM     18  C   LIG    1        4.541  43.833  23.761  0.00  0.00    +0.098 A 
ATOM     19  C   LIG    1        4.472  43.595  22.441  0.00  0.00    +0.139 A 
ATOM     30  O   LIG    1        3.798  42.525  21.874  0.00  0.00    -0.454 OA
ATOM     31  O   LIG    1        3.891  43.100  25.907  0.00  0.00    -0.287 OA
ATOM     32  C   LIG    1        3.144  41.650  22.705  0.00  0.00    +0.146 A 
ATOM     35  C   LIG    1        2.470  40.587  22.106  0.00  0.00    +0.093 A 
ENDROOT
BRANCH  19  20
ATOM     20  C   LIG    1        5.145  44.470  21.458  0.00  0.00    +0.021 A 
ATOM     21  C   LIG    1        6.098  43.940  20.586  0.00  0.00    +0.015 A 
ATOM     22  C   LIG    1        6.734  44.765  19.659  0.00  0.00    +0.050 A 
ATOM     23  C   LIG    1        6.418  46.123  19.601  0.00  0.00    +0.158 A 
ATOM     24  C   LIG    1        5.467  46.655  20.472  0.00  0.00    +0.159 A 
ATOM     29  C   LIG    1        4.831  45.829  21.400  0.00  0.00    +0.060 A 
BRANCH  24  25
ATOM     25  O   LIG    1        5.150  47.979  20.423  0.00  0.00    -0.503 OA
ATOM     26  H   LIG    1        4.812  48.180  19.534  0.00  0.00    +0.292 HD
ENDBRANCH  24  25
BRANCH  23  27
ATOM     27  O   LIG    1        7.047  46.919  18.692  0.00  0.00    -0.503 OA
ATOM     28  H   LIG    1        7.876  46.491  18.417  0.00  0.00    +0.292 HD
ENDBRANCH  23  27
ENDBRANCH  19  20
BRANCH  15  33
ATOM     33  O   LIG    1        2.413  40.960  26.248  0.00  0.00    -0.506 OA
ATOM     34  H   LIG    1        1.611  41.421  26.535  0.00  0.00    +0.292 HD
ENDBRANCH  15  33
BRANCH  13  12
ATOM     12  O   LIG    1        1.126  38.623  22.316  0.00  0.00    -0.461 OA
BRANCH  12   2
ATOM      1  O   LIG    1        1.927  36.665  23.300  0.00  0.00    -0.331 OA
ATOM      2  C   LIG    1        0.796  37.522  23.162  0.00  0.00    +0.339 C 
ATOM      3  C   LIG    1       -0.371  36.771  22.522  0.00  0.00    +0.214 C 
ATOM      4  C   LIG    1       -0.693  35.486  23.287  0.00  0.00    +0.180 C 
ATOM      5  C   LIG    1        0.572  34.671  23.556  0.00  0.00    +0.177 C 
ATOM     36  C   LIG    1        1.669  35.552  24.158  0.00  0.00    +0.179 C 
BRANCH   5   6
ATOM      6  O   LIG    1        0.268  33.612  24.460  0.00  0.00    -0.386 OA
ATOM      7  H   LIG    1        0.228  32.785  23.951  0.00  0.00    +0.210 HD
ENDBRANCH   5   6
BRANCH   4   8
ATOM      8  O   LIG    1       -1.583  34.681  22.512  0.00  0.00    -0.386 OA
ATOM      9  H   LIG    1       -1.050  33.986  22.088  0.00  0.00    +0.210 HD
ENDBRANCH   4   8
BRANCH   3  10
ATOM     10  O   LIG    1       -1.514  37.626  22.532  0.00  0.00    -0.383 OA
ATOM     11  H   LIG    1       -1.755  37.796  23.459  0.00  0.00    +0.210 HD
ENDBRANCH   3  10
BRANCH  36  37
ATOM     37  C   LIG    1        2.978  34.787  24.326  0.00  0.00    +0.190 C 
BRANCH  37  38
ATOM     38  O   LIG    1        3.127  33.903  23.230  0.00  0.00    -0.392 OA
ATOM     39  H   LIG    1        3.753  33.207  23.495  0.00  0.00    +0.210 HD
ENDBRANCH  37  38
ENDBRANCH  36  37
ENDBRANCH  12   2
ENDBRANCH  13  12
TORSDOF 11
ENDMDL
MODEL 7
REMARK VINA RESULT:      -8.5      1.914      9.426
REMARK  Name = 5280637
REMARK                            x       y       z     vdW  Elec       q    Type
REMARK                         _______ _______ _______ _____ _____    ______ ____
ROOT
ATOM     13  C   LIG    1        3.799  42.610  26.022  0.00  0.00    +0.131 A 
ATOM     14  C   LIG    1        2.977  41.616  25.490  0.00  0.00    +0.092 A 
ATOM     15  C   LIG    1        2.758  41.549  24.114  0.00  0.00    +0.135 A 
ATOM     16  C   LIG    1        3.367  42.483  23.273  0.00  0.00    +0.105 A 
ATOM     17  C   LIG    1        3.154  42.439  21.819  0.00  0.00    +0.197 A 
ATOM     18  C   LIG    1        3.849  43.475  21.026  0.00  0.00    +0.098 A 
ATOM     19  C   LIG    1        4.620  44.376  21.653  0.00  0.00    +0.139 A 
ATOM     30  O   LIG    1        4.812  44.420  23.025  0.00  0.00    -0.454 OA
ATOM     31  O   LIG    1        2.444  41.597  21.287  0.00  0.00    -0.287 OA
ATOM     32  C   LIG    1        4.189  43.477  23.803  0.00  0.00    +0.146 A 
ATOM     35  C   LIG    1        4.406  43.542  25.179  0.00  0.00    +0.093 A 
ENDROOT
BRANCH  19  20
ATOM     20  C   LIG    1        5.331  45.439  20.914  0.00  0.00    +0.021 A 
ATOM     21  C   LIG    1        4.719  46.677  20.705  0.00  0.00    +0.015 A 
ATOM     22  C   LIG    1        5.390  47.680  20.005  0.00  0.00    +0.050 A 
ATOM     23  C   LIG    1        6.675  47.448  19.513  0.00  0.00    +0.158 A 
ATOM     24  C   LIG    1        7.288  46.212  19.720  0.00  0.00    +0.159 A 
ATOM     29  C   LIG    1        6.617  45.209  20.420  0.00  0.00    +0.060 A 
BRANCH  24  25
ATOM     25  O   LIG    1        8.543  45.975  19.245  0.00  0.00    -0.503 OA
ATOM     26  H   LIG    1        8.481  45.323  18.528  0.00  0.00    +0.292 HD
ENDBRANCH  24  25
BRANCH  23  27
ATOM     27  O   LIG    1        7.319  48.435  18.831  0.00  0.00    -0.503 OA
ATOM     28  H   LIG    1        8.163  48.089  18.494  0.00  0.00    +0.292 HD
ENDBRANCH  23  27
ENDBRANCH  19  20
BRANCH  15  33
ATOM     33  O   LIG    1        1.947  40.560  23.645  0.00  0.00    -0.506 OA
ATOM     34  H   LIG    1        2.219  40.291  22.754  0.00  0.00    +0.292 HD
ENDBRANCH  15  33
BRANCH  13  12
ATOM     12  O   LIG    1        4.009  42.671  27.369  0.00  0.00    -0.461 OA
BRANCH  12   2
ATOM      1  O   LIG    1        2.621  42.096  29.153  0.00  0.00    -0.331 OA
ATOM      2  C   LIG    1        3.493  41.591  28.145  0.00  0.00    +0.339 C 
ATOM      3  C   LIG    1        4.677  40.860  28.778  0.00  0.00    +0.214 C 
ATOM      4  C   LIG    1        4.207  39.777  29.750  0.00  0.00    +0.180 C 
ATOM      5  C   LIG    1        3.151  40.319  30.714  0.00  0.00    +0.177 C 
ATOM     36  C   LIG    1        2.049  41.059  29.952  0.00  0.00    +0.179 C 
BRANCH   5   6
ATOM      6  O   LIG    1        2.576  39.236  31.441  0.00  0.00    -0.386 OA
ATOM      7  H   LIG    1        1.764  38.964  30.982  0.00  0.00    +0.210 HD
ENDBRANCH   5   6
BRANCH   4   8
ATOM      8  O   LIG    1        5.317  39.317  30.522  0.00  0.00    -0.386 OA
ATOM      9  H   LIG    1        4.958  38.865  31.306  0.00  0.00    +0.210 HD
ENDBRANCH   4   8
BRANCH   3  10
ATOM     10  O   LIG    1        5.443  40.259  27.734  0.00  0.00    -0.383 OA
ATOM     11  H   LIG    1        4.868  40.163  26.956  0.00  0.00    +0.210 HD
ENDBRANCH   3  10
BRANCH  36  37
ATOM     37  C   LIG    1        1.046  41.709  30.901  0.00  0.00    +0.190 C 
BRANCH  37  38
ATOM     38  O   LIG    1        1.762  42.374  31.925  0.00  0.00    -0.392 OA
ATOM     39  H   LIG    1        1.186  43.072  32.282  0.00  0.00    +0.210 HD
ENDBRANCH  37  38
ENDBRANCH  36  37
ENDBRANCH  12   2
ENDBRANCH  13  12
TORSDOF 11
ENDMDL
MODEL 8
REMARK VINA RESULT:      -8.5      1.525      2.131
REMARK  Name = 5280637
REMARK                            x       y       z     vdW  Elec       q    Type
REMARK                         _______ _______ _______ _____ _____    ______ ____
ROOT
ATOM     13  C   LIG    1        5.955  42.094  21.841  0.00  0.00    +0.131 A 
ATOM     14  C   LIG    1        4.799  41.675  21.183  0.00  0.00    +0.092 A 
ATOM     15  C   LIG    1        3.658  41.342  21.913  0.00  0.00    +0.135 A 
ATOM     16  C   LIG    1        3.681  41.432  23.307  0.00  0.00    +0.105 A 
ATOM     17  C   LIG    1        2.495  41.087  24.104  0.00  0.00    +0.197 A 
ATOM     18  C   LIG    1        2.631  41.221  25.569  0.00  0.00    +0.098 A 
ATOM     19  C   LIG    1        3.796  41.642  26.085  0.00  0.00    +0.139 A 
ATOM     30  O   LIG    1        4.916  41.959  25.331  0.00  0.00    -0.454 OA
ATOM     31  O   LIG    1        1.451  40.709  23.592  0.00  0.00    -0.287 OA
ATOM     32  C   LIG    1        4.836  41.853  23.966  0.00  0.00    +0.146 A 
ATOM     35  C   LIG    1        5.976  42.184  23.233  0.00  0.00    +0.093 A 
ENDROOT
BRANCH  19  20
ATOM     20  C   LIG    1        3.994  41.787  27.542  0.00  0.00    +0.021 A 
ATOM     21  C   LIG    1        3.002  41.363  28.429  0.00  0.00    +0.015 A 
ATOM     22  C   LIG    1        3.188  41.501  29.805  0.00  0.00    +0.050 A 
ATOM     23  C   LIG    1        4.366  42.062  30.297  0.00  0.00    +0.158 A 
ATOM     24  C   LIG    1        5.358  42.488  29.413  0.00  0.00    +0.159 A 
ATOM     29  C   LIG    1        5.172  42.350  28.037  0.00  0.00    +0.060 A 
BRANCH  24  25
ATOM     25  O   LIG    1        6.513  43.036  29.883  0.00  0.00    -0.503 OA
ATOM     26  H   LIG    1        6.646  42.732  30.797  0.00  0.00    +0.292 HD
ENDBRANCH  24  25
BRANCH  23  27
ATOM     27  O   LIG    1        4.535  42.192  31.642  0.00  0.00    -0.503 OA
ATOM     28  H   LIG    1        5.379  42.644  31.814  0.00  0.00    +0.292 HD
ENDBRANCH  23  27
ENDBRANCH  19  20
BRANCH  15  33
ATOM     33  O   LIG    1        2.555  40.937  21.224  0.00  0.00    -0.506 OA
ATOM     34  H   LIG    1        2.727  40.946  20.270  0.00  0.00    +0.292 HD
ENDBRANCH  15  33
BRANCH  13  12
ATOM     12  O   LIG    1        7.069  42.418  21.122  0.00  0.00    -0.461 OA
BRANCH  12   2
ATOM      1  O   LIG    1        6.244  44.554  20.675  0.00  0.00    -0.331 OA
ATOM      2  C   LIG    1        7.398  43.804  21.045  0.00  0.00    +0.339 C 
ATOM      3  C   LIG    1        8.501  43.967  19.998  0.00  0.00    +0.214 C 
ATOM      4  C   LIG    1        8.811  45.443  19.742  0.00  0.00    +0.180 C 
ATOM      5  C   LIG    1        7.530  46.245  19.509  0.00  0.00    +0.177 C 
ATOM     36  C   LIG    1        6.501  45.958  20.605  0.00  0.00    +0.179 C 
BRANCH   5   6
ATOM      6  O   LIG    1        7.839  47.636  19.505  0.00  0.00    -0.386 OA
ATOM      7  H   LIG    1        8.779  47.734  19.274  0.00  0.00    +0.210 HD
ENDBRANCH   5   6
BRANCH   4   8
ATOM      8  O   LIG    1        9.627  45.562  18.576  0.00  0.00    -0.386 OA
ATOM      9  H   LIG    1        9.033  45.709  17.820  0.00  0.00    +0.210 HD
ENDBRANCH   4   8
BRANCH   3  10
ATOM     10  O   LIG    1        9.675  43.314  20.479  0.00  0.00    -0.383 OA
ATOM     11  H   LIG    1        9.469  42.923  21.345  0.00  0.00    +0.210 HD
ENDBRANCH   3  10
BRANCH  36  37
ATOM     37  C   LIG    1        5.173  46.656  20.329  0.00  0.00    +0.190 C 
BRANCH  37  38
ATOM     38  O   LIG    1        5.348  48.048  20.520  0.00  0.00    -0.392 OA
ATOM     39  H   LIG    1        5.084  48.494  19.697  0.00  0.00    +0.210 HD
ENDBRANCH  37  38
ENDBRANCH  36  37
ENDBRANCH  12   2
ENDBRANCH  13  12
TORSDOF 11
ENDMDL
MODEL 9
REMARK VINA RESULT:      -8.2      3.199      6.503
REMARK  Name = 5280637
REMARK                            x       y       z     vdW  Elec       q    Type
REMARK                         _______ _______ _______ _____ _____    ______ ____
ROOT
ATOM     13  C   LIG    1        9.391  44.578  19.979  0.00  0.00    +0.131 A 
ATOM     14  C   LIG    1        9.058  45.848  19.508  0.00  0.00    +0.092 A 
ATOM     15  C   LIG    1        7.772  46.354  19.706  0.00  0.00    +0.135 A 
ATOM     16  C   LIG    1        6.823  45.580  20.378  0.00  0.00    +0.105 A 
ATOM     17  C   LIG    1        5.460  46.086  20.600  0.00  0.00    +0.197 A 
ATOM     18  C   LIG    1        4.540  45.185  21.323  0.00  0.00    +0.098 A 
ATOM     19  C   LIG    1        4.981  43.985  21.733  0.00  0.00    +0.139 A 
ATOM     30  O   LIG    1        6.264  43.508  21.515  0.00  0.00    -0.454 OA
ATOM     31  O   LIG    1        5.101  47.188  20.211  0.00  0.00    -0.287 OA
ATOM     32  C   LIG    1        7.156  44.311  20.849  0.00  0.00    +0.146 A 
ATOM     35  C   LIG    1        8.440  43.807  20.650  0.00  0.00    +0.093 A 
ENDROOT
BRANCH  19  20
ATOM     20  C   LIG    1        4.103  43.039  22.452  0.00  0.00    +0.021 A 
ATOM     21  C   LIG    1        4.015  43.085  23.845  0.00  0.00    +0.015 A 
ATOM     22  C   LIG    1        3.187  42.191  24.524  0.00  0.00    +0.050 A 
ATOM     23  C   LIG    1        2.445  41.249  23.812  0.00  0.00    +0.158 A 
ATOM     24  C   LIG    1        2.532  41.200  22.421  0.00  0.00    +0.159 A 
ATOM     29  C   LIG    1        3.360  42.094  21.742  0.00  0.00    +0.060 A 
BRANCH  24  25
ATOM     25  O   LIG    1        1.810  40.284  21.716  0.00  0.00    -0.503 OA
ATOM     26  H   LIG    1        1.276  40.758  21.056  0.00  0.00    +0.292 HD
ENDBRANCH  24  25
BRANCH  23  27
ATOM     27  O   LIG    1        1.641  40.381  24.487  0.00  0.00    -0.503 OA
ATOM     28  H   LIG    1        1.178  40.862  25.194  0.00  0.00    +0.292 HD
ENDBRANCH  23  27
ENDBRANCH  19  20
BRANCH  15  33
ATOM     33  O   LIG    1        7.497  47.599  19.227  0.00  0.00    -0.506 OA
ATOM     34  H   LIG    1        8.167  47.872  18.583  0.00  0.00    +0.292 HD
ENDBRANCH  15  33
BRANCH  13  12
ATOM     12  O   LIG    1       10.649  44.087  19.782  0.00  0.00    -0.461 OA
BRANCH  12   2
ATOM      1  O   LIG    1       11.598  44.405  21.889  0.00  0.00    -0.331 OA
ATOM      2  C   LIG    1       11.262  43.440  20.896  0.00  0.00    +0.339 C 
ATOM      3  C   LIG    1       12.520  42.730  20.392  0.00  0.00    +0.214 C 
ATOM      4  C   LIG    1       13.323  42.134  21.549  0.00  0.00    +0.180 C 
ATOM      5  C   LIG    1       13.523  43.156  22.668  0.00  0.00    +0.177 C 
ATOM     36  C   LIG    1       12.196  43.816  23.046  0.00  0.00    +0.179 C 
BRANCH   5   6
ATOM      6  O   LIG    1       14.067  42.502  23.812  0.00  0.00    -0.386 OA
ATOM      7  H   LIG    1       13.399  41.882  24.149  0.00  0.00    +0.210 HD
ENDBRANCH   5   6
BRANCH   4   8
ATOM      8  O   LIG    1       14.611  41.735  21.078  0.00  0.00    -0.386 OA
ATOM      9  H   LIG    1       15.272  42.111  21.684  0.00  0.00    +0.210 HD
ENDBRANCH   4   8
BRANCH   3  10
ATOM     10  O   LIG    1       12.120  41.685  19.506  0.00  0.00    -0.383 OA
ATOM     11  H   LIG    1       11.725  40.973  20.038  0.00  0.00    +0.210 HD
ENDBRANCH   3  10
BRANCH  36  37
ATOM     37  C   LIG    1       12.389  44.923  24.078  0.00  0.00    +0.190 C 
BRANCH  37  38
ATOM     38  O   LIG    1       13.703  45.434  23.949  0.00  0.00    -0.392 OA
ATOM     39  H   LIG    1       14.247  44.747  23.527  0.00  0.00    +0.210 HD
ENDBRANCH  37  38
ENDBRANCH  36  37
ENDBRANCH  12   2
ENDBRANCH  13  12
TORSDOF 11
ENDMDL
