MODEL 1
REMARK VINA RESULT:      -8.9      0.000      0.000
REMARK  11 active torsions:
REMARK  status: ('A' for Active; 'I' for Inactive)
REMARK    1  A    between atoms: O_1  and  C_9 
REMARK    2  A    between atoms: O_2  and  C_19 
REMARK    3  A    between atoms: O_3  and  C_26 
REMARK    4  A    between atoms: O_4  and  C_27 
REMARK    5  A    between atoms: O_6  and  C_28 
REMARK    6  A    between atoms: O_7  and  C_32 
REMARK    7  A    between atoms: C_10  and  C_19 
REMARK    8  A    between atoms: C_19  and  C_27 
REMARK    9  A    between atoms: C_27  and  C_30 
REMARK   10  A    between atoms: C_30  and  C_31 
REMARK   11  A    between atoms: C_31  and  C_32 
ROOT
HETATM    1  O   UNK     0      72.492   5.849  11.836  0.00  0.00    -0.384 OA
HETATM    2  H   UNK     0      71.974   5.038  11.690  0.00  0.00     0.211 HD
ENDROOT
BRANCH   1   3
HETATM    3  C   UNK     0      72.024   6.847  10.900  0.00  0.00     0.089 C 
HETATM    4  C   UNK     0      72.967   8.077  10.946  0.00  0.00    -0.002 C 
HETATM    5  C   UNK     0      72.730   8.569  12.397  0.00  0.00     0.034 C 
HETATM    6  C   UNK     0      74.406   7.602  10.676  0.00  0.00     0.014 C 
HETATM    7  C   UNK     0      72.578   9.176   9.920  0.00  0.00     0.019 C 
HETATM    8  C   UNK     0      71.209   8.386  12.604  0.00  0.00     0.012 C 
HETATM    9  C   UNK     0      70.729   7.407  11.510  0.00  0.00     0.044 C 
HETATM   10  C   UNK     0      74.511   6.913   9.306  0.00  0.00     0.011 C 
HETATM   11  C   UNK     0      73.448   5.803   9.038  0.00  0.00     0.027 C 
HETATM   12  C   UNK     0      73.459   5.309   7.538  0.00  0.00    -0.023 C 
HETATM   13  C   UNK     0      72.046   6.176   9.544  0.00  0.00    -0.037 C 
HETATM   14  C   UNK     0      72.258   4.357   7.282  0.00  0.00     0.071 C 
HETATM   15  C   UNK     0      74.772   4.550   7.195  0.00  0.00     0.044 C 
HETATM   16  C   UNK     0      73.350   6.498   6.545  0.00  0.00     0.016 C 
HETATM   17  C   UNK     0      72.391   2.996   7.988  0.00  0.00     0.047 C 
HETATM   18  C   UNK     0      70.947   5.007   7.682  0.00  0.00     0.154 C 
HETATM   19  C   UNK     0      73.696   2.293   7.619  0.00  0.00     0.147 C 
HETATM   20  C   UNK     0      74.900   3.194   7.898  0.00  0.00     0.147 C 
HETATM   21  O   UNK     0      69.905   4.794   7.065  0.00  0.00    -0.293 OA
HETATM   22  C   UNK     0      70.915   5.853   8.896  0.00  0.00     0.057 C 
BRANCH   5  23
HETATM   23  C   UNK     0      73.204   9.980  12.724  0.00  0.00     0.084 C 
HETATM   24  C   UNK     0      72.141  11.001  12.287  0.00  0.00     0.049 C 
BRANCH  23  25
HETATM   25  O   UNK     0      73.346  10.092  14.146  0.00  0.00    -0.387 OA
HETATM   26  H   UNK     0      73.698  10.973  14.359  0.00  0.00     0.210 HD
ENDBRANCH  23  25
BRANCH  23  27
HETATM   27  C   UNK     0      74.576  10.304  12.073  0.00  0.00     0.152 C 
BRANCH  27  28
HETATM   28  O   UNK     0      75.626  10.042  13.011  0.00  0.00    -0.393 OA
HETATM   29  H   UNK     0      75.258  10.175  13.902  0.00  0.00     0.210 HD
ENDBRANCH  27  28
BRANCH  27  30
HETATM   30  C   UNK     0      74.716  11.758  11.582  0.00  0.00     0.037 C 
BRANCH  30  31
HETATM   31  C   UNK     0      75.002  11.832  10.070  0.00  0.00     0.040 C 
BRANCH  31  32
HETATM   32  C   UNK     0      74.775  13.223   9.444  0.00  0.00     0.051 C 
HETATM   33  C   UNK     0      76.107  13.773   8.921  0.00  0.00     0.045 C 
HETATM   34  C   UNK     0      73.743  13.198   8.315  0.00  0.00     0.045 C 
BRANCH  32  35
HETATM   35  O   UNK     0      74.308  14.106  10.466  0.00  0.00    -0.391 OA
HETATM   36  H   UNK     0      74.070  13.568  11.239  0.00  0.00     0.210 HD
ENDBRANCH  32  35
ENDBRANCH  31  32
ENDBRANCH  30  31
ENDBRANCH  27  30
ENDBRANCH  23  27
ENDBRANCH   5  23
BRANCH  19  37
HETATM   37  O   UNK     0      73.671   1.957   6.231  0.00  0.00    -0.393 OA
HETATM   38  H   UNK     0      72.803   1.564   6.040  0.00  0.00     0.210 HD
ENDBRANCH  19  37
BRANCH  20  39
HETATM   39  O   UNK     0      76.085   2.536   7.455  0.00  0.00    -0.393 OA
HETATM   40  H   UNK     0      76.793   3.201   7.419  0.00  0.00     0.210 HD
ENDBRANCH  20  39
ENDBRANCH   1   3
TORSDOF 11
ENDMDL
MODEL 2
REMARK VINA RESULT:      -8.9     19.019     23.295
REMARK  11 active torsions:
REMARK  status: ('A' for Active; 'I' for Inactive)
REMARK    1  A    between atoms: O_1  and  C_9 
REMARK    2  A    between atoms: O_2  and  C_19 
REMARK    3  A    between atoms: O_3  and  C_26 
REMARK    4  A    between atoms: O_4  and  C_27 
REMARK    5  A    between atoms: O_6  and  C_28 
REMARK    6  A    between atoms: O_7  and  C_32 
REMARK    7  A    between atoms: C_10  and  C_19 
REMARK    8  A    between atoms: C_19  and  C_27 
REMARK    9  A    between atoms: C_27  and  C_30 
REMARK   10  A    between atoms: C_30  and  C_31 
REMARK   11  A    between atoms: C_31  and  C_32 
ROOT
HETATM    1  O   UNK     0      61.857  18.336  27.601  0.00  0.00    -0.384 OA
HETATM    2  H   UNK     0      61.239  18.099  28.315  0.00  0.00     0.211 HD
ENDROOT
BRANCH   1   3
HETATM    3  C   UNK     0      61.080  18.859  26.500  0.00  0.00     0.089 C 
HETATM    4  C   UNK     0      61.468  18.114  25.196  0.00  0.00    -0.002 C 
HETATM    5  C   UNK     0      62.948  18.549  25.044  0.00  0.00     0.034 C 
HETATM    6  C   UNK     0      61.282  16.602  25.422  0.00  0.00     0.014 C 
HETATM    7  C   UNK     0      60.630  18.565  23.969  0.00  0.00     0.019 C 
HETATM    8  C   UNK     0      62.937  20.039  25.455  0.00  0.00     0.012 C 
HETATM    9  C   UNK     0      61.629  20.271  26.242  0.00  0.00     0.044 C 
HETATM   10  C   UNK     0      59.828  16.276  25.799  0.00  0.00     0.011 C 
HETATM   11  C   UNK     0      59.232  17.137  26.955  0.00  0.00     0.027 C 
HETATM   12  C   UNK     0      57.678  16.920  27.127  0.00  0.00    -0.023 C 
HETATM   13  C   UNK     0      59.632  18.619  26.872  0.00  0.00    -0.037 C 
HETATM   14  C   UNK     0      57.107  17.942  28.150  0.00  0.00     0.071 C 
HETATM   15  C   UNK     0      57.352  15.485  27.630  0.00  0.00     0.044 C 
HETATM   16  C   UNK     0      56.922  17.111  25.784  0.00  0.00     0.016 C 
HETATM   17  C   UNK     0      57.552  17.675  29.599  0.00  0.00     0.047 C 
HETATM   18  C   UNK     0      57.468  19.364  27.764  0.00  0.00     0.154 C 
HETATM   19  C   UNK     0      57.212  16.254  30.042  0.00  0.00     0.147 C 
HETATM   20  C   UNK     0      57.795  15.224  29.074  0.00  0.00     0.147 C 
HETATM   21  O   UNK     0      56.704  20.304  27.976  0.00  0.00    -0.293 OA
HETATM   22  C   UNK     0      58.808  19.627  27.195  0.00  0.00     0.057 C 
BRANCH   5  23
HETATM   23  C   UNK     0      63.590  18.316  23.682  0.00  0.00     0.084 C 
HETATM   24  C   UNK     0      63.404  19.562  22.799  0.00  0.00     0.049 C 
BRANCH  23  25
HETATM   25  O   UNK     0      64.999  18.131  23.870  0.00  0.00    -0.387 OA
HETATM   26  H   UNK     0      65.463  18.935  23.584  0.00  0.00     0.210 HD
ENDBRANCH  23  25
BRANCH  23  27
HETATM   27  C   UNK     0      63.025  17.054  22.975  0.00  0.00     0.152 C 
BRANCH  27  28
HETATM   28  O   UNK     0      63.684  15.888  23.479  0.00  0.00    -0.393 OA
HETATM   29  H   UNK     0      64.454  15.719  22.907  0.00  0.00     0.210 HD
ENDBRANCH  27  28
BRANCH  27  30
HETATM   30  C   UNK     0      63.173  17.069  21.441  0.00  0.00     0.037 C 
BRANCH  30  31
HETATM   31  C   UNK     0      64.031  15.896  20.932  0.00  0.00     0.040 C 
BRANCH  31  32
HETATM   32  C   UNK     0      65.449  16.292  20.472  0.00  0.00     0.051 C 
HETATM   33  C   UNK     0      65.490  17.795  20.175  0.00  0.00     0.045 C 
HETATM   34  C   UNK     0      66.521  15.936  21.504  0.00  0.00     0.045 C 
BRANCH  32  35
HETATM   35  O   UNK     0      65.739  15.597  19.258  0.00  0.00    -0.391 OA
HETATM   36  H   UNK     0      66.425  14.935  19.450  0.00  0.00     0.210 HD
ENDBRANCH  32  35
ENDBRANCH  31  32
ENDBRANCH  30  31
ENDBRANCH  27  30
ENDBRANCH  23  27
ENDBRANCH   5  23
BRANCH  19  37
HETATM   37  O   UNK     0      55.792  16.105  30.089  0.00  0.00    -0.393 OA
HETATM   38  H   UNK     0      55.595  15.340  30.655  0.00  0.00     0.210 HD
ENDBRANCH  19  37
BRANCH  20  39
HETATM   39  O   UNK     0      57.377  13.921  29.475  0.00  0.00    -0.393 OA
HETATM   40  H   UNK     0      57.429  13.344  28.693  0.00  0.00     0.210 HD
ENDBRANCH  20  39
ENDBRANCH   1   3
TORSDOF 11
ENDMDL
MODEL 3
REMARK VINA RESULT:      -8.8     17.547     22.000
REMARK  11 active torsions:
REMARK  status: ('A' for Active; 'I' for Inactive)
REMARK    1  A    between atoms: O_1  and  C_9 
REMARK    2  A    between atoms: O_2  and  C_19 
REMARK    3  A    between atoms: O_3  and  C_26 
REMARK    4  A    between atoms: O_4  and  C_27 
REMARK    5  A    between atoms: O_6  and  C_28 
REMARK    6  A    between atoms: O_7  and  C_32 
REMARK    7  A    between atoms: C_10  and  C_19 
REMARK    8  A    between atoms: C_19  and  C_27 
REMARK    9  A    between atoms: C_27  and  C_30 
REMARK   10  A    between atoms: C_30  and  C_31 
REMARK   11  A    between atoms: C_31  and  C_32 
ROOT
HETATM    1  O   UNK     0      61.115  19.013  22.899  0.00  0.00    -0.384 OA
HETATM    2  H   UNK     0      61.014  18.560  22.044  0.00  0.00     0.211 HD
ENDROOT
BRANCH   1   3
HETATM    3  C   UNK     0      61.985  18.207  23.727  0.00  0.00     0.089 C 
HETATM    4  C   UNK     0      63.229  19.040  24.130  0.00  0.00    -0.002 C 
HETATM    5  C   UNK     0      63.887  19.265  22.744  0.00  0.00     0.034 C 
HETATM    6  C   UNK     0      62.752  20.336  24.811  0.00  0.00     0.014 C 
HETATM    7  C   UNK     0      64.188  18.273  25.080  0.00  0.00     0.019 C 
HETATM    8  C   UNK     0      63.702  17.910  22.025  0.00  0.00     0.012 C 
HETATM    9  C   UNK     0      62.590  17.154  22.785  0.00  0.00     0.044 C 
HETATM   10  C   UNK     0      61.905  20.024  26.056  0.00  0.00     0.011 C 
HETATM   11  C   UNK     0      60.751  18.998  25.833  0.00  0.00     0.027 C 
HETATM   12  C   UNK     0      60.081  18.544  27.189  0.00  0.00    -0.023 C 
HETATM   13  C   UNK     0      61.156  17.820  24.933  0.00  0.00    -0.037 C 
HETATM   14  C   UNK     0      59.082  17.382  26.927  0.00  0.00     0.071 C 
HETATM   15  C   UNK     0      59.310  19.713  27.867  0.00  0.00     0.044 C 
HETATM   16  C   UNK     0      61.139  18.047  28.211  0.00  0.00     0.016 C 
HETATM   17  C   UNK     0      57.819  17.818  26.164  0.00  0.00     0.047 C 
HETATM   18  C   UNK     0      59.751  16.241  26.185  0.00  0.00     0.154 C 
HETATM   19  C   UNK     0      57.101  18.968  26.869  0.00  0.00     0.147 C 
HETATM   20  C   UNK     0      58.051  20.142  27.105  0.00  0.00     0.147 C 
HETATM   21  O   UNK     0      59.446  15.067  26.394  0.00  0.00    -0.293 OA
HETATM   22  C   UNK     0      60.736  16.561  25.128  0.00  0.00     0.057 C 
BRANCH   5  23
HETATM   23  C   UNK     0      65.336  19.738  22.748  0.00  0.00     0.084 C 
HETATM   24  C   UNK     0      65.496  20.932  21.791  0.00  0.00     0.049 C 
BRANCH  23  25
HETATM   25  O   UNK     0      65.659  20.200  24.066  0.00  0.00    -0.387 OA
HETATM   26  H   UNK     0      66.505  20.676  24.035  0.00  0.00     0.210 HD
ENDBRANCH  23  25
BRANCH  23  27
HETATM   27  C   UNK     0      66.326  18.601  22.377  0.00  0.00     0.152 C 
BRANCH  27  28
HETATM   28  O   UNK     0      67.262  18.413  23.444  0.00  0.00    -0.393 OA
HETATM   29  H   UNK     0      67.050  17.564  23.870  0.00  0.00     0.210 HD
ENDBRANCH  27  28
BRANCH  27  30
HETATM   30  C   UNK     0      67.116  18.849  21.078  0.00  0.00     0.037 C 
BRANCH  30  31
HETATM   31  C   UNK     0      67.052  17.641  20.124  0.00  0.00     0.040 C 
BRANCH  31  32
HETATM   32  C   UNK     0      68.425  17.146  19.625  0.00  0.00     0.051 C 
HETATM   33  C   UNK     0      69.537  17.795  20.457  0.00  0.00     0.045 C 
HETATM   34  C   UNK     0      68.556  15.622  19.680  0.00  0.00     0.045 C 
BRANCH  32  35
HETATM   35  O   UNK     0      68.590  17.566  18.269  0.00  0.00    -0.391 OA
HETATM   36  H   UNK     0      68.723  18.529  18.269  0.00  0.00     0.210 HD
ENDBRANCH  32  35
ENDBRANCH  31  32
ENDBRANCH  30  31
ENDBRANCH  27  30
ENDBRANCH  23  27
ENDBRANCH   5  23
BRANCH  19  37
HETATM   37  O   UNK     0      56.599  18.508  28.125  0.00  0.00    -0.393 OA
HETATM   38  H   UNK     0      57.363  18.342  28.703  0.00  0.00     0.210 HD
ENDBRANCH  19  37
BRANCH  20  39
HETATM   39  O   UNK     0      57.367  21.152  27.844  0.00  0.00    -0.393 OA
HETATM   40  H   UNK     0      56.828  20.705  28.519  0.00  0.00     0.210 HD
ENDBRANCH  20  39
ENDBRANCH   1   3
TORSDOF 11
ENDMDL
MODEL 4
REMARK VINA RESULT:      -8.8     14.758     19.553
REMARK  11 active torsions:
REMARK  status: ('A' for Active; 'I' for Inactive)
REMARK    1  A    between atoms: O_1  and  C_9 
REMARK    2  A    between atoms: O_2  and  C_19 
REMARK    3  A    between atoms: O_3  and  C_26 
REMARK    4  A    between atoms: O_4  and  C_27 
REMARK    5  A    between atoms: O_6  and  C_28 
REMARK    6  A    between atoms: O_7  and  C_32 
REMARK    7  A    between atoms: C_10  and  C_19 
REMARK    8  A    between atoms: C_19  and  C_27 
REMARK    9  A    between atoms: C_27  and  C_30 
REMARK   10  A    between atoms: C_30  and  C_31 
REMARK   11  A    between atoms: C_31  and  C_32 
ROOT
HETATM    1  O   UNK     0      63.964  18.251  20.370  0.00  0.00    -0.384 OA
HETATM    2  H   UNK     0      63.938  17.812  19.503  0.00  0.00     0.211 HD
ENDROOT
BRANCH   1   3
HETATM    3  C   UNK     0      64.563  17.333  21.313  0.00  0.00     0.089 C 
HETATM    4  C   UNK     0      66.073  17.654  21.457  0.00  0.00    -0.002 C 
HETATM    5  C   UNK     0      66.574  17.334  20.025  0.00  0.00     0.034 C 
HETATM    6  C   UNK     0      66.224  19.134  21.853  0.00  0.00     0.014 C 
HETATM    7  C   UNK     0      66.786  16.757  22.505  0.00  0.00     0.019 C 
HETATM    8  C   UNK     0      65.790  16.060  19.637  0.00  0.00     0.012 C 
HETATM    9  C   UNK     0      64.587  15.971  20.602  0.00  0.00     0.044 C 
HETATM   10  C   UNK     0      65.498  19.426  23.177  0.00  0.00     0.011 C 
HETATM   11  C   UNK     0      64.021  18.929  23.248  0.00  0.00     0.027 C 
HETATM   12  C   UNK     0      63.418  19.043  24.703  0.00  0.00    -0.023 C 
HETATM   13  C   UNK     0      63.820  17.543  22.615  0.00  0.00    -0.037 C 
HETATM   14  C   UNK     0      62.025  18.354  24.758  0.00  0.00     0.071 C 
HETATM   15  C   UNK     0      63.251  20.527  25.139  0.00  0.00     0.044 C 
HETATM   16  C   UNK     0      64.333  18.362  25.756  0.00  0.00     0.016 C 
HETATM   17  C   UNK     0      60.934  19.111  23.981  0.00  0.00     0.047 C 
HETATM   18  C   UNK     0      62.101  16.924  24.258  0.00  0.00     0.154 C 
HETATM   19  C   UNK     0      60.813  20.562  24.445  0.00  0.00     0.147 C 
HETATM   20  C   UNK     0      62.162  21.277  24.365  0.00  0.00     0.147 C 
HETATM   21  O   UNK     0      61.402  16.034  24.739  0.00  0.00    -0.293 OA
HETATM   22  C   UNK     0      62.982  16.619  23.108  0.00  0.00     0.057 C 
BRANCH   5  23
HETATM   23  C   UNK     0      68.080  17.177  19.850  0.00  0.00     0.084 C 
HETATM   24  C   UNK     0      68.499  15.741  20.207  0.00  0.00     0.049 C 
BRANCH  23  25
HETATM   25  O   UNK     0      68.400  17.385  18.468  0.00  0.00    -0.387 OA
HETATM   26  H   UNK     0      67.606  17.701  18.005  0.00  0.00     0.210 HD
ENDBRANCH  23  25
BRANCH  23  27
HETATM   27  C   UNK     0      68.880  18.207  20.693  0.00  0.00     0.152 C 
BRANCH  27  28
HETATM   28  O   UNK     0      69.179  19.354  19.891  0.00  0.00    -0.393 OA
HETATM   29  H   UNK     0      68.479  20.011  20.050  0.00  0.00     0.210 HD
ENDBRANCH  27  28
BRANCH  27  30
HETATM   30  C   UNK     0      70.200  17.662  21.271  0.00  0.00     0.037 C 
BRANCH  30  31
HETATM   31  C   UNK     0      70.277  17.836  22.799  0.00  0.00     0.040 C 
BRANCH  31  32
HETATM   32  C   UNK     0      71.413  17.042  23.477  0.00  0.00     0.051 C 
HETATM   33  C   UNK     0      72.406  18.016  24.121  0.00  0.00     0.045 C 
HETATM   34  C   UNK     0      70.895  16.057  24.527  0.00  0.00     0.045 C 
BRANCH  32  35
HETATM   35  O   UNK     0      72.111  16.307  22.470  0.00  0.00    -0.391 OA
HETATM   36  H   UNK     0      71.855  16.668  21.605  0.00  0.00     0.210 HD
ENDBRANCH  32  35
ENDBRANCH  31  32
ENDBRANCH  30  31
ENDBRANCH  27  30
ENDBRANCH  23  27
ENDBRANCH   5  23
BRANCH  19  37
HETATM   37  O   UNK     0      60.347  20.584  25.795  0.00  0.00    -0.393 OA
HETATM   38  H   UNK     0      60.124  21.504  26.014  0.00  0.00     0.210 HD
ENDBRANCH  19  37
BRANCH  20  39
HETATM   39  O   UNK     0      62.021  22.594  24.891  0.00  0.00    -0.393 OA
HETATM   40  H   UNK     0      62.392  23.212  24.238  0.00  0.00     0.210 HD
ENDBRANCH  20  39
ENDBRANCH   1   3
TORSDOF 11
ENDMDL
MODEL 5
REMARK VINA RESULT:      -8.6     16.690     20.854
REMARK  11 active torsions:
REMARK  status: ('A' for Active; 'I' for Inactive)
REMARK    1  A    between atoms: O_1  and  C_9 
REMARK    2  A    between atoms: O_2  and  C_19 
REMARK    3  A    between atoms: O_3  and  C_26 
REMARK    4  A    between atoms: O_4  and  C_27 
REMARK    5  A    between atoms: O_6  and  C_28 
REMARK    6  A    between atoms: O_7  and  C_32 
REMARK    7  A    between atoms: C_10  and  C_19 
REMARK    8  A    between atoms: C_19  and  C_27 
REMARK    9  A    between atoms: C_27  and  C_30 
REMARK   10  A    between atoms: C_30  and  C_31 
REMARK   11  A    between atoms: C_31  and  C_32 
ROOT
HETATM    1  O   UNK     0      64.058  16.176  25.002  0.00  0.00    -0.384 OA
HETATM    2  H   UNK     0      64.497  16.852  25.547  0.00  0.00     0.211 HD
ENDROOT
BRANCH   1   3
HETATM    3  C   UNK     0      63.453  16.843  23.871  0.00  0.00     0.089 C 
HETATM    4  C   UNK     0      63.046  18.283  24.280  0.00  0.00    -0.002 C 
HETATM    5  C   UNK     0      61.964  17.984  25.350  0.00  0.00     0.034 C 
HETATM    6  C   UNK     0      64.288  19.005  24.834  0.00  0.00     0.014 C 
HETATM    7  C   UNK     0      62.448  19.100  23.102  0.00  0.00     0.019 C 
HETATM    8  C   UNK     0      61.187  16.785  24.761  0.00  0.00     0.012 C 
HETATM    9  C   UNK     0      62.090  16.164  23.673  0.00  0.00     0.044 C 
HETATM   10  C   UNK     0      65.409  19.057  23.783  0.00  0.00     0.011 C 
HETATM   11  C   UNK     0      65.753  17.691  23.112  0.00  0.00     0.027 C 
HETATM   12  C   UNK     0      66.734  17.855  21.885  0.00  0.00    -0.023 C 
HETATM   13  C   UNK     0      64.511  16.848  22.788  0.00  0.00    -0.037 C 
HETATM   14  C   UNK     0      66.883  16.500  21.138  0.00  0.00     0.071 C 
HETATM   15  C   UNK     0      68.145  18.326  22.338  0.00  0.00     0.044 C 
HETATM   16  C   UNK     0      66.209  18.908  20.871  0.00  0.00     0.016 C 
HETATM   17  C   UNK     0      67.664  15.441  21.935  0.00  0.00     0.047 C 
HETATM   18  C   UNK     0      65.529  15.939  20.745  0.00  0.00     0.154 C 
HETATM   19  C   UNK     0      69.041  15.953  22.357  0.00  0.00     0.147 C 
HETATM   20  C   UNK     0      68.922  17.268  23.130  0.00  0.00     0.147 C 
HETATM   21  O   UNK     0      65.370  15.305  19.703  0.00  0.00    -0.293 OA
HETATM   22  C   UNK     0      64.396  16.092  21.685  0.00  0.00     0.057 C 
BRANCH   5  23
HETATM   23  C   UNK     0      61.055  19.143  25.740  0.00  0.00     0.084 C 
HETATM   24  C   UNK     0      60.880  19.176  27.268  0.00  0.00     0.049 C 
BRANCH  23  25
HETATM   25  O   UNK     0      61.692  20.368  25.356  0.00  0.00    -0.387 OA
HETATM   26  H   UNK     0      62.482  20.161  24.830  0.00  0.00     0.210 HD
ENDBRANCH  23  25
BRANCH  23  27
HETATM   27  C   UNK     0      59.675  19.071  25.031  0.00  0.00     0.152 C 
BRANCH  27  28
HETATM   28  O   UNK     0      59.496  20.232  24.213  0.00  0.00    -0.393 OA
HETATM   29  H   UNK     0      60.332  20.730  24.228  0.00  0.00     0.210 HD
ENDBRANCH  27  28
BRANCH  27  30
HETATM   30  C   UNK     0      58.475  18.965  25.992  0.00  0.00     0.037 C 
BRANCH  30  31
HETATM   31  C   UNK     0      57.738  17.620  25.849  0.00  0.00     0.040 C 
BRANCH  31  32
HETATM   32  C   UNK     0      56.801  17.276  27.026  0.00  0.00     0.051 C 
HETATM   33  C   UNK     0      56.246  15.859  26.842  0.00  0.00     0.045 C 
HETATM   34  C   UNK     0      57.496  17.392  28.383  0.00  0.00     0.045 C 
BRANCH  32  35
HETATM   35  O   UNK     0      55.698  18.185  27.002  0.00  0.00    -0.391 OA
HETATM   36  H   UNK     0      55.695  18.673  27.843  0.00  0.00     0.210 HD
ENDBRANCH  32  35
ENDBRANCH  31  32
ENDBRANCH  30  31
ENDBRANCH  27  30
ENDBRANCH  23  27
ENDBRANCH   5  23
BRANCH  19  37
HETATM   37  O   UNK     0      69.840  16.162  21.192  0.00  0.00    -0.393 OA
HETATM   38  H   UNK     0      69.704  17.080  20.903  0.00  0.00     0.210 HD
ENDBRANCH  19  37
BRANCH  20  39
HETATM   39  O   UNK     0      70.229  17.754  23.422  0.00  0.00    -0.393 OA
HETATM   40  H   UNK     0      70.845  17.005  23.338  0.00  0.00     0.210 HD
ENDBRANCH  20  39
ENDBRANCH   1   3
TORSDOF 11
ENDMDL
MODEL 6
REMARK VINA RESULT:      -8.6     18.893     23.268
REMARK  11 active torsions:
REMARK  status: ('A' for Active; 'I' for Inactive)
REMARK    1  A    between atoms: O_1  and  C_9 
REMARK    2  A    between atoms: O_2  and  C_19 
REMARK    3  A    between atoms: O_3  and  C_26 
REMARK    4  A    between atoms: O_4  and  C_27 
REMARK    5  A    between atoms: O_6  and  C_28 
REMARK    6  A    between atoms: O_7  and  C_32 
REMARK    7  A    between atoms: C_10  and  C_19 
REMARK    8  A    between atoms: C_19  and  C_27 
REMARK    9  A    between atoms: C_27  and  C_30 
REMARK   10  A    between atoms: C_30  and  C_31 
REMARK   11  A    between atoms: C_31  and  C_32 
ROOT
HETATM    1  O   UNK     0      62.334  16.947  27.099  0.00  0.00    -0.384 OA
HETATM    2  H   UNK     0      61.866  16.172  26.741  0.00  0.00     0.211 HD
ENDROOT
BRANCH   1   3
HETATM    3  C   UNK     0      61.760  18.128  26.494  0.00  0.00     0.089 C 
HETATM    4  C   UNK     0      61.403  17.828  25.016  0.00  0.00    -0.002 C 
HETATM    5  C   UNK     0      62.812  17.570  24.424  0.00  0.00     0.034 C 
HETATM    6  C   UNK     0      60.476  16.599  24.975  0.00  0.00     0.014 C 
HETATM    7  C   UNK     0      60.715  19.024  24.304  0.00  0.00     0.019 C 
HETATM    8  C   UNK     0      63.699  18.635  25.109  0.00  0.00     0.012 C 
HETATM    9  C   UNK     0      62.922  19.123  26.352  0.00  0.00     0.044 C 
HETATM   10  C   UNK     0      59.192  16.851  25.783  0.00  0.00     0.011 C 
HETATM   11  C   UNK     0      59.414  17.393  27.229  0.00  0.00     0.027 C 
HETATM   12  C   UNK     0      58.066  17.854  27.911  0.00  0.00    -0.023 C 
HETATM   13  C   UNK     0      60.528  18.448  27.314  0.00  0.00    -0.037 C 
HETATM   14  C   UNK     0      58.368  18.565  29.261  0.00  0.00     0.071 C 
HETATM   15  C   UNK     0      57.124  16.648  28.189  0.00  0.00     0.044 C 
HETATM   16  C   UNK     0      57.280  18.845  27.011  0.00  0.00     0.016 C 
HETATM   17  C   UNK     0      58.883  17.613  30.355  0.00  0.00     0.047 C 
HETATM   18  C   UNK     0      59.356  19.700  29.073  0.00  0.00     0.154 C 
HETATM   19  C   UNK     0      57.923  16.447  30.587  0.00  0.00     0.147 C 
HETATM   20  C   UNK     0      57.638  15.705  29.281  0.00  0.00     0.147 C 
HETATM   21  O   UNK     0      59.290  20.731  29.741  0.00  0.00    -0.293 OA
HETATM   22  C   UNK     0      60.473  19.520  28.119  0.00  0.00     0.057 C 
BRANCH   5  23
HETATM   23  C   UNK     0      62.928  17.594  22.905  0.00  0.00     0.084 C 
HETATM   24  C   UNK     0      62.623  16.198  22.336  0.00  0.00     0.049 C 
BRANCH  23  25
HETATM   25  O   UNK     0      61.937  18.493  22.389  0.00  0.00    -0.387 OA
HETATM   26  H   UNK     0      61.079  18.037  22.370  0.00  0.00     0.210 HD
ENDBRANCH  23  25
BRANCH  23  27
HETATM   27  C   UNK     0      64.322  18.087  22.430  0.00  0.00     0.152 C 
BRANCH  27  28
HETATM   28  O   UNK     0      64.192  18.751  21.169  0.00  0.00    -0.393 OA
HETATM   29  H   UNK     0      64.602  19.629  21.259  0.00  0.00     0.210 HD
ENDBRANCH  27  28
BRANCH  27  30
HETATM   30  C   UNK     0      65.372  16.969  22.283  0.00  0.00     0.037 C 
BRANCH  30  31
HETATM   31  C   UNK     0      66.506  17.364  21.318  0.00  0.00     0.040 C 
BRANCH  31  32
HETATM   32  C   UNK     0      66.496  16.605  19.975  0.00  0.00     0.051 C 
HETATM   33  C   UNK     0      67.890  16.032  19.700  0.00  0.00     0.045 C 
HETATM   34  C   UNK     0      65.456  15.483  19.942  0.00  0.00     0.045 C 
BRANCH  32  35
HETATM   35  O   UNK     0      66.192  17.536  18.934  0.00  0.00    -0.391 OA
HETATM   36  H   UNK     0      66.145  18.422  19.331  0.00  0.00     0.210 HD
ENDBRANCH  32  35
ENDBRANCH  31  32
ENDBRANCH  30  31
ENDBRANCH  27  30
ENDBRANCH  23  27
ENDBRANCH   5  23
BRANCH  19  37
HETATM   37  O   UNK     0      56.697  16.950  31.121  0.00  0.00    -0.393 OA
HETATM   38  H   UNK     0      56.004  16.294  30.932  0.00  0.00     0.210 HD
ENDBRANCH  19  37
BRANCH  20  39
HETATM   39  O   UNK     0      56.671  14.687  29.528  0.00  0.00    -0.393 OA
HETATM   40  H   UNK     0      57.147  13.905  29.859  0.00  0.00     0.210 HD
ENDBRANCH  20  39
ENDBRANCH   1   3
TORSDOF 11
ENDMDL
MODEL 7
REMARK VINA RESULT:      -8.6     33.391     36.175
REMARK  11 active torsions:
REMARK  status: ('A' for Active; 'I' for Inactive)
REMARK    1  A    between atoms: O_1  and  C_9 
REMARK    2  A    between atoms: O_2  and  C_19 
REMARK    3  A    between atoms: O_3  and  C_26 
REMARK    4  A    between atoms: O_4  and  C_27 
REMARK    5  A    between atoms: O_6  and  C_28 
REMARK    6  A    between atoms: O_7  and  C_32 
REMARK    7  A    between atoms: C_10  and  C_19 
REMARK    8  A    between atoms: C_19  and  C_27 
REMARK    9  A    between atoms: C_27  and  C_30 
REMARK   10  A    between atoms: C_30  and  C_31 
REMARK   11  A    between atoms: C_31  and  C_32 
ROOT
HETATM    1  O   UNK     0      74.103  32.997  30.839  0.00  0.00    -0.384 OA
HETATM    2  H   UNK     0      74.892  32.577  31.223  0.00  0.00     0.211 HD
ENDROOT
BRANCH   1   3
HETATM    3  C   UNK     0      73.245  33.405  31.929  0.00  0.00     0.089 C 
HETATM    4  C   UNK     0      74.074  33.475  33.238  0.00  0.00    -0.002 C 
HETATM    5  C   UNK     0      74.467  31.986  33.412  0.00  0.00     0.034 C 
HETATM    6  C   UNK     0      75.272  34.414  33.009  0.00  0.00     0.014 C 
HETATM    7  C   UNK     0      73.245  33.973  34.453  0.00  0.00     0.019 C 
HETATM    8  C   UNK     0      73.190  31.218  33.001  0.00  0.00     0.012 C 
HETATM    9  C   UNK     0      72.320  32.208  32.195  0.00  0.00     0.044 C 
HETATM   10  C   UNK     0      74.802  35.823  32.612  0.00  0.00     0.011 C 
HETATM   11  C   UNK     0      73.765  35.871  31.447  0.00  0.00     0.027 C 
HETATM   12  C   UNK     0      73.147  37.311  31.252  0.00  0.00    -0.023 C 
HETATM   13  C   UNK     0      72.704  34.763  31.536  0.00  0.00    -0.037 C 
HETATM   14  C   UNK     0      71.985  37.258  30.221  0.00  0.00     0.071 C 
HETATM   15  C   UNK     0      74.210  38.327  30.745  0.00  0.00     0.044 C 
HETATM   16  C   UNK     0      72.582  37.875  32.584  0.00  0.00     0.016 C 
HETATM   17  C   UNK     0      72.455  36.997  28.779  0.00  0.00     0.047 C 
HETATM   18  C   UNK     0      70.953  36.218  30.612  0.00  0.00     0.154 C 
HETATM   19  C   UNK     0      73.498  38.019  28.330  0.00  0.00     0.147 C 
HETATM   20  C   UNK     0      74.673  38.065  29.307  0.00  0.00     0.147 C 
HETATM   21  O   UNK     0      69.754  36.381  30.390  0.00  0.00    -0.293 OA
HETATM   22  C   UNK     0      71.417  34.942  31.201  0.00  0.00     0.057 C 
BRANCH   5  23
HETATM   23  C   UNK     0      74.988  31.575  34.783  0.00  0.00     0.084 C 
HETATM   24  C   UNK     0      73.808  31.362  35.746  0.00  0.00     0.049 C 
BRANCH  23  25
HETATM   25  O   UNK     0      75.666  30.318  34.653  0.00  0.00    -0.387 OA
HETATM   26  H   UNK     0      76.624  30.476  34.646  0.00  0.00     0.210 HD
ENDBRANCH  23  25
BRANCH  23  27
HETATM   27  C   UNK     0      75.991  32.608  35.365  0.00  0.00     0.152 C 
BRANCH  27  28
HETATM   28  O   UNK     0      77.323  32.250  34.983  0.00  0.00    -0.393 OA
HETATM   29  H   UNK     0      77.825  32.083  35.800  0.00  0.00     0.210 HD
ENDBRANCH  27  28
BRANCH  27  30
HETATM   30  C   UNK     0      75.946  32.738  36.899  0.00  0.00     0.037 C 
BRANCH  30  31
HETATM   31  C   UNK     0      77.089  33.619  37.438  0.00  0.00     0.040 C 
BRANCH  31  32
HETATM   32  C   UNK     0      78.178  32.851  38.215  0.00  0.00     0.051 C 
HETATM   33  C   UNK     0      78.849  33.791  39.222  0.00  0.00     0.045 C 
HETATM   34  C   UNK     0      77.625  31.621  38.938  0.00  0.00     0.045 C 
BRANCH  32  35
HETATM   35  O   UNK     0      79.174  32.420  37.285  0.00  0.00    -0.391 OA
HETATM   36  H   UNK     0      79.101  31.455  37.195  0.00  0.00     0.210 HD
ENDBRANCH  32  35
ENDBRANCH  31  32
ENDBRANCH  30  31
ENDBRANCH  27  30
ENDBRANCH  23  27
ENDBRANCH   5  23
BRANCH  19  37
HETATM   37  O   UNK     0      72.890  39.310  28.263  0.00  0.00    -0.393 OA
HETATM   38  H   UNK     0      73.071  39.764  29.103  0.00  0.00     0.210 HD
ENDBRANCH  19  37
BRANCH  20  39
HETATM   39  O   UNK     0      75.574  39.092  28.901  0.00  0.00    -0.393 OA
HETATM   40  H   UNK     0      76.394  38.662  28.602  0.00  0.00     0.210 HD
ENDBRANCH  20  39
ENDBRANCH   1   3
TORSDOF 11
ENDMDL
MODEL 8
REMARK VINA RESULT:      -8.4     18.156     22.245
REMARK  11 active torsions:
REMARK  status: ('A' for Active; 'I' for Inactive)
REMARK    1  A    between atoms: O_1  and  C_9 
REMARK    2  A    between atoms: O_2  and  C_19 
REMARK    3  A    between atoms: O_3  and  C_26 
REMARK    4  A    between atoms: O_4  and  C_27 
REMARK    5  A    between atoms: O_6  and  C_28 
REMARK    6  A    between atoms: O_7  and  C_32 
REMARK    7  A    between atoms: C_10  and  C_19 
REMARK    8  A    between atoms: C_19  and  C_27 
REMARK    9  A    between atoms: C_27  and  C_30 
REMARK   10  A    between atoms: C_30  and  C_31 
REMARK   11  A    between atoms: C_31  and  C_32 
ROOT
HETATM    1  O   UNK     0      61.184  18.848  22.994  0.00  0.00    -0.384 OA
HETATM    2  H   UNK     0      61.390  18.034  22.503  0.00  0.00     0.211 HD
ENDROOT
BRANCH   1   3
HETATM    3  C   UNK     0      61.962  18.838  24.213  0.00  0.00     0.089 C 
HETATM    4  C   UNK     0      61.527  17.636  25.091  0.00  0.00    -0.002 C 
HETATM    5  C   UNK     0      60.062  18.026  25.411  0.00  0.00     0.034 C 
HETATM    6  C   UNK     0      61.662  16.347  24.259  0.00  0.00     0.014 C 
HETATM    7  C   UNK     0      62.362  17.505  26.394  0.00  0.00     0.019 C 
HETATM    8  C   UNK     0      60.133  19.551  25.654  0.00  0.00     0.012 C 
HETATM    9  C   UNK     0      61.461  20.037  25.032  0.00  0.00     0.044 C 
HETATM   10  C   UNK     0      63.109  16.149  23.780  0.00  0.00     0.011 C 
HETATM   11  C   UNK     0      63.753  17.387  23.084  0.00  0.00     0.027 C 
HETATM   12  C   UNK     0      65.301  17.200  22.835  0.00  0.00    -0.023 C 
HETATM   13  C   UNK     0      63.406  18.716  23.773  0.00  0.00    -0.037 C 
HETATM   14  C   UNK     0      65.924  18.530  22.327  0.00  0.00     0.071 C 
HETATM   15  C   UNK     0      65.582  16.090  21.783  0.00  0.00     0.044 C 
HETATM   16  C   UNK     0      66.042  16.788  24.136  0.00  0.00     0.016 C 
HETATM   17  C   UNK     0      65.492  18.905  20.898  0.00  0.00     0.047 C 
HETATM   18  C   UNK     0      65.609  19.678  23.267  0.00  0.00     0.154 C 
HETATM   19  C   UNK     0      65.787  17.782  19.905  0.00  0.00     0.147 C 
HETATM   20  C   UNK     0      65.153  16.468  20.361  0.00  0.00     0.147 C 
HETATM   21  O   UNK     0      66.410  20.591  23.463  0.00  0.00    -0.293 OA
HETATM   22  C   UNK     0      64.271  19.734  23.896  0.00  0.00     0.057 C 
BRANCH   5  23
HETATM   23  C   UNK     0      59.391  17.276  26.555  0.00  0.00     0.084 C 
HETATM   24  C   UNK     0      58.005  16.780  26.112  0.00  0.00     0.049 C 
BRANCH  23  25
HETATM   25  O   UNK     0      60.182  16.121  26.864  0.00  0.00    -0.387 OA
HETATM   26  H   UNK     0      60.752  15.917  26.105  0.00  0.00     0.210 HD
ENDBRANCH  23  25
BRANCH  23  27
HETATM   27  C   UNK     0      59.279  18.143  27.839  0.00  0.00     0.152 C 
BRANCH  27  28
HETATM   28  O   UNK     0      60.047  17.547  28.889  0.00  0.00    -0.393 OA
HETATM   29  H   UNK     0      60.500  18.267  29.362  0.00  0.00     0.210 HD
ENDBRANCH  27  28
BRANCH  27  30
HETATM   30  C   UNK     0      57.837  18.340  28.345  0.00  0.00     0.037 C 
BRANCH  30  31
HETATM   31  C   UNK     0      57.736  19.486  29.369  0.00  0.00     0.040 C 
BRANCH  31  32
HETATM   32  C   UNK     0      57.358  20.854  28.763  0.00  0.00     0.051 C 
HETATM   33  C   UNK     0      58.570  21.790  28.818  0.00  0.00     0.045 C 
HETATM   34  C   UNK     0      56.853  20.739  27.324  0.00  0.00     0.045 C 
BRANCH  32  35
HETATM   35  O   UNK     0      56.323  21.429  29.563  0.00  0.00    -0.391 OA
HETATM   36  H   UNK     0      55.753  20.708  29.878  0.00  0.00     0.210 HD
ENDBRANCH  32  35
ENDBRANCH  31  32
ENDBRANCH  30  31
ENDBRANCH  27  30
ENDBRANCH  23  27
ENDBRANCH   5  23
BRANCH  19  37
HETATM   37  O   UNK     0      67.202  17.610  19.800  0.00  0.00    -0.393 OA
HETATM   38  H   UNK     0      67.363  16.865  19.198  0.00  0.00     0.210 HD
ENDBRANCH  19  37
BRANCH  20  39
HETATM   39  O   UNK     0      65.530  15.432  19.456  0.00  0.00    -0.393 OA
HETATM   40  H   UNK     0      66.367  15.055  19.776  0.00  0.00     0.210 HD
ENDBRANCH  20  39
ENDBRANCH   1   3
TORSDOF 11
ENDMDL
MODEL 9
REMARK VINA RESULT:      -8.1     23.777     28.395
REMARK  11 active torsions:
REMARK  status: ('A' for Active; 'I' for Inactive)
REMARK    1  A    between atoms: O_1  and  C_9 
REMARK    2  A    between atoms: O_2  and  C_19 
REMARK    3  A    between atoms: O_3  and  C_26 
REMARK    4  A    between atoms: O_4  and  C_27 
REMARK    5  A    between atoms: O_6  and  C_28 
REMARK    6  A    between atoms: O_7  and  C_32 
REMARK    7  A    between atoms: C_10  and  C_19 
REMARK    8  A    between atoms: C_19  and  C_27 
REMARK    9  A    between atoms: C_27  and  C_30 
REMARK   10  A    between atoms: C_30  and  C_31 
REMARK   11  A    between atoms: C_31  and  C_32 
ROOT
HETATM    1  O   UNK     0      58.338  19.632  30.403  0.00  0.00    -0.384 OA
HETATM    2  H   UNK     0      57.920  20.145  29.690  0.00  0.00     0.211 HD
ENDROOT
BRANCH   1   3
HETATM    3  C   UNK     0      59.765  19.635  30.172  0.00  0.00     0.089 C 
HETATM    4  C   UNK     0      60.042  19.416  28.662  0.00  0.00    -0.002 C 
HETATM    5  C   UNK     0      59.484  17.982  28.470  0.00  0.00     0.034 C 
HETATM    6  C   UNK     0      59.283  20.491  27.863  0.00  0.00     0.014 C 
HETATM    7  C   UNK     0      61.553  19.472  28.309  0.00  0.00     0.019 C 
HETATM    8  C   UNK     0      59.928  17.241  29.752  0.00  0.00     0.012 C 
HETATM    9  C   UNK     0      60.285  18.328  30.790  0.00  0.00     0.044 C 
HETATM   10  C   UNK     0      59.730  21.903  28.278  0.00  0.00     0.011 C 
HETATM   11  C   UNK     0      59.726  22.175  29.814  0.00  0.00     0.027 C 
HETATM   12  C   UNK     0      60.418  23.546  30.183  0.00  0.00    -0.023 C 
HETATM   13  C   UNK     0      60.251  20.990  30.639  0.00  0.00    -0.037 C 
HETATM   14  C   UNK     0      60.563  23.672  31.725  0.00  0.00     0.071 C 
HETATM   15  C   UNK     0      59.595  24.761  29.665  0.00  0.00     0.044 C 
HETATM   16  C   UNK     0      61.834  23.659  29.555  0.00  0.00     0.016 C 
HETATM   17  C   UNK     0      59.223  23.870  32.455  0.00  0.00     0.047 C 
HETATM   18  C   UNK     0      61.283  22.470  32.307  0.00  0.00     0.154 C 
HETATM   19  C   UNK     0      58.455  25.072  31.908  0.00  0.00     0.147 C 
HETATM   20  C   UNK     0      58.262  24.957  30.396  0.00  0.00     0.147 C 
HETATM   21  O   UNK     0      62.036  22.573  33.274  0.00  0.00    -0.293 OA
HETATM   22  C   UNK     0      60.999  21.131  31.744  0.00  0.00     0.057 C 
BRANCH   5  23
HETATM   23  C   UNK     0      59.895  17.256  27.196  0.00  0.00     0.084 C 
HETATM   24  C   UNK     0      59.950  18.250  26.024  0.00  0.00     0.049 C 
BRANCH  23  25
HETATM   25  O   UNK     0      61.219  16.736  27.378  0.00  0.00    -0.387 OA
HETATM   26  H   UNK     0      61.463  16.215  26.595  0.00  0.00     0.210 HD
ENDBRANCH  23  25
BRANCH  23  27
HETATM   27  C   UNK     0      58.950  16.069  26.865  0.00  0.00     0.152 C 
BRANCH  27  28
HETATM   28  O   UNK     0      59.700  15.016  26.250  0.00  0.00    -0.393 OA
HETATM   29  H   UNK     0      59.492  15.028  25.299  0.00  0.00     0.210 HD
ENDBRANCH  27  28
BRANCH  27  30
HETATM   30  C   UNK     0      57.776  16.434  25.936  0.00  0.00     0.037 C 
BRANCH  30  31
HETATM   31  C   UNK     0      56.686  17.235  26.672  0.00  0.00     0.040 C 
BRANCH  31  32
HETATM   32  C   UNK     0      55.687  16.371  27.470  0.00  0.00     0.051 C 
HETATM   33  C   UNK     0      55.603  14.975  26.845  0.00  0.00     0.045 C 
HETATM   34  C   UNK     0      56.060  16.258  28.950  0.00  0.00     0.045 C 
BRANCH  32  35
HETATM   35  O   UNK     0      54.394  16.973  27.373  0.00  0.00    -0.391 OA
HETATM   36  H   UNK     0      53.862  16.440  26.760  0.00  0.00     0.210 HD
ENDBRANCH  32  35
ENDBRANCH  31  32
ENDBRANCH  30  31
ENDBRANCH  27  30
ENDBRANCH  23  27
ENDBRANCH   5  23
BRANCH  19  37
HETATM   37  O   UNK     0      59.183  26.266  32.201  0.00  0.00    -0.393 OA
HETATM   38  H   UNK     0      59.237  26.785  31.381  0.00  0.00     0.210 HD
ENDBRANCH  19  37
BRANCH  20  39
HETATM   39  O   UNK     0      57.624  26.138  29.918  0.00  0.00    -0.393 OA
HETATM   40  H   UNK     0      57.552  26.061  28.951  0.00  0.00     0.210 HD
ENDBRANCH  20  39
ENDBRANCH   1   3
TORSDOF 11
ENDMDL
