REMARK VINA RESULT:      -6.7      0.000      0.000
REMARK  Name = 2520
REMARK  21 active torsions:
REMARK  status: ('A' for Active; 'I' for Inactive)
REMARK    1  A    between atoms: O_1  and  C_19
REMARK    2  A    between atoms: O_1  and  C_28
REMARK    3  A    between atoms: O_2  and  C_23
REMARK    4  A    between atoms: O_2  and  C_31
REMARK    5  A    between atoms: O_3  and  C_27
REMARK    6  A    between atoms: O_3  and  C_32
REMARK    7  A    between atoms: O_4  and  C_30
REMARK    8  A    between atoms: O_4  and  C_33
REMARK    9  A    between atoms: N_5  and  C_12
REMARK   10  A    between atoms: N_5  and  C_18
REMARK   11  A    between atoms: N_5  and  C_20
REMARK   12  A    between atoms: C_7  and  C_8
REMARK   13  A    between atoms: C_7  and  C_9
REMARK   14  A    between atoms: C_7  and  C_11
REMARK   15  A    between atoms: C_7  and  C_15
REMARK   16  A    between atoms: C_8  and  C_13
REMARK   17  A    between atoms: C_8  and  C_14
REMARK   18  A    between atoms: C_9  and  C_10
REMARK   19  A    between atoms: C_10  and  C_12
REMARK   20  A    between atoms: C_18  and  C_22
REMARK   21  A    between atoms: C_22  and  C_24
REMARK                            x       y       z     vdW  Elec       q    Type
REMARK                         _______ _______ _______ _____ _____    ______ ____
ROOT
ATOM      1  C   UNL     1     172.774 174.204 170.623  0.00  0.00    +0.028 C 
ENDROOT
BRANCH   1   2
ATOM      2  C   UNL     1     172.717 174.993 169.265  0.00  0.00    +0.085 C 
BRANCH   2   7
ATOM      3  C   UNL     1     175.782 177.083 170.232  0.00  0.00    +0.162 A 
ATOM      4  C   UNL     1     175.769 178.075 169.250  0.00  0.00    +0.162 A 
ATOM      5  C   UNL     1     174.774 178.074 168.273  0.00  0.00    +0.050 A 
ATOM      6  C   UNL     1     173.791 177.083 168.277  0.00  0.00    +0.009 A 
ATOM      7  C   UNL     1     173.805 176.092 169.259  0.00  0.00    -0.024 A 
ATOM      8  C   UNL     1     174.801 176.093 170.237  0.00  0.00    +0.054 A 
BRANCH   3   9
ATOM      9  O   UNL     1     176.750 177.073 171.192  0.00  0.00    -0.491 OA
ATOM     10  C   UNL     1     176.363 177.473 172.505  0.00  0.00    +0.277 C 
ENDBRANCH   3   9
BRANCH   4  11
ATOM     11  O   UNL     1     176.723 179.047 169.234  0.00  0.00    -0.491 OA
ATOM     12  C   UNL     1     176.328 180.349 169.661  0.00  0.00    +0.277 C 
ENDBRANCH   4  11
ENDBRANCH   2   7
BRANCH   2  13
ATOM     13  C   UNL     1     171.293 175.676 169.095  0.00  0.00    +0.007 C 
ATOM     14  C   UNL     1     170.382 174.937 168.095  0.00  0.00    +0.009 C 
ATOM     15  C   UNL     1     170.519 175.861 170.411  0.00  0.00    +0.009 C 
ENDBRANCH   2  13
BRANCH   2  16
ATOM     16  C   UNL     1     172.892 173.991 168.174  0.00  0.00    +0.074 C 
ATOM     17  N   UNL     1     173.042 173.221 167.319  0.00  0.00    -0.196 NA
ENDBRANCH   2  16
ENDBRANCH   1   2
BRANCH   1  18
ATOM     18  C   UNL     1     172.354 172.721 170.537  0.00  0.00    +0.017 C 
BRANCH  18  19
ATOM     19  C   UNL     1     173.362 171.781 171.206  0.00  0.00    +0.084 C 
BRANCH  19  20
ATOM     20  N   UNL     1     174.620 172.453 171.502  0.00  0.00    -0.305 NA
ATOM     21  C   UNL     1     174.952 172.324 172.923  0.00  0.00    +0.104 C 
BRANCH  20  22
ATOM     22  C   UNL     1     175.702 171.909 170.678  0.00  0.00    +0.088 C 
BRANCH  22  23
ATOM     23  C   UNL     1     176.368 173.009 169.852  0.00  0.00    +0.050 C 
BRANCH  23  24
ATOM     24  C   UNL     1     177.816 173.189 170.234  0.00  0.00    -0.042 A 
ATOM     25  C   UNL     1     178.802 173.193 169.247  0.00  0.00    +0.007 A 
ATOM     26  C   UNL     1     180.141 173.360 169.601  0.00  0.00    +0.049 A 
ATOM     27  C   UNL     1     180.494 173.520 170.940  0.00  0.00    +0.161 A 
ATOM     28  C   UNL     1     179.508 173.515 171.927  0.00  0.00    +0.162 A 
ATOM     29  C   UNL     1     178.169 173.350 171.574  0.00  0.00    +0.053 A 
BRANCH  28  30
ATOM     30  O   UNL     1     179.841 173.672 173.239  0.00  0.00    -0.491 OA
ATOM     31  C   UNL     1     179.665 174.971 173.802  0.00  0.00    +0.277 C 
ENDBRANCH  28  30
BRANCH  27  32
ATOM     32  O   UNL     1     181.806 173.681 171.273  0.00  0.00    -0.491 OA
ATOM     33  C   UNL     1     182.593 174.508 170.418  0.00  0.00    +0.277 C 
ENDBRANCH  27  32
ENDBRANCH  23  24
ENDBRANCH  22  23
ENDBRANCH  20  22
ENDBRANCH  19  20
ENDBRANCH  18  19
ENDBRANCH   1  18
TORSDOF 14
