REMARK VINA RESULT:      -6.4      2.981      7.792
REMARK  Name = 2520
REMARK  21 active torsions:
REMARK  status: ('A' for Active; 'I' for Inactive)
REMARK    1  A    between atoms: O_1  and  C_19
REMARK    2  A    between atoms: O_1  and  C_28
REMARK    3  A    between atoms: O_2  and  C_23
REMARK    4  A    between atoms: O_2  and  C_31
REMARK    5  A    between atoms: O_3  and  C_27
REMARK    6  A    between atoms: O_3  and  C_32
REMARK    7  A    between atoms: O_4  and  C_30
REMARK    8  A    between atoms: O_4  and  C_33
REMARK    9  A    between atoms: N_5  and  C_12
REMARK   10  A    between atoms: N_5  and  C_18
REMARK   11  A    between atoms: N_5  and  C_20
REMARK   12  A    between atoms: C_7  and  C_8
REMARK   13  A    between atoms: C_7  and  C_9
REMARK   14  A    between atoms: C_7  and  C_11
REMARK   15  A    between atoms: C_7  and  C_15
REMARK   16  A    between atoms: C_8  and  C_13
REMARK   17  A    between atoms: C_8  and  C_14
REMARK   18  A    between atoms: C_9  and  C_10
REMARK   19  A    between atoms: C_10  and  C_12
REMARK   20  A    between atoms: C_18  and  C_22
REMARK   21  A    between atoms: C_22  and  C_24
REMARK                            x       y       z     vdW  Elec       q    Type
REMARK                         _______ _______ _______ _____ _____    ______ ____
ROOT
ATOM      1  C   UNL     1     179.438 176.228 171.140  0.00  0.00    +0.028 C 
ENDROOT
BRANCH   1   2
ATOM      2  C   UNL     1     179.686 174.808 170.515  0.00  0.00    +0.085 C 
BRANCH   2   7
ATOM      3  C   UNL     1     176.669 172.797 171.761  0.00  0.00    +0.162 A 
ATOM      4  C   UNL     1     175.993 172.533 170.569  0.00  0.00    +0.162 A 
ATOM      5  C   UNL     1     176.506 173.002 169.359  0.00  0.00    +0.050 A 
ATOM      6  C   UNL     1     177.694 173.733 169.341  0.00  0.00    +0.009 A 
ATOM      7  C   UNL     1     178.369 173.997 170.534  0.00  0.00    -0.024 A 
ATOM      8  C   UNL     1     177.856 173.528 171.744  0.00  0.00    +0.054 A 
BRANCH   3   9
ATOM      9  O   UNL     1     176.178 172.345 172.949  0.00  0.00    -0.491 OA
ATOM     10  C   UNL     1     176.897 171.293 173.589  0.00  0.00    +0.277 C 
ENDBRANCH   3   9
BRANCH   4  11
ATOM     11  O   UNL     1     174.832 171.821 170.573  0.00  0.00    -0.491 OA
ATOM     12  C   UNL     1     173.616 172.564 170.549  0.00  0.00    +0.277 C 
ENDBRANCH   4  11
ENDBRANCH   2   7
BRANCH   2  13
ATOM     13  C   UNL     1     180.784 174.030 171.358  0.00  0.00    +0.007 C 
ATOM     14  C   UNL     1     181.188 172.681 170.731  0.00  0.00    +0.009 C 
ATOM     15  C   UNL     1     182.063 174.840 171.631  0.00  0.00    +0.009 C 
ENDBRANCH   2  13
BRANCH   2  16
ATOM     16  C   UNL     1     180.218 175.027 169.138  0.00  0.00    +0.074 C 
ATOM     17  N   UNL     1     180.618 175.189 168.061  0.00  0.00    -0.196 NA
ENDBRANCH   2  16
ENDBRANCH   1   2
BRANCH   1  18
ATOM     18  C   UNL     1     179.077 177.336 170.127  0.00  0.00    +0.017 C 
BRANCH  18  19
ATOM     19  C   UNL     1     177.565 177.551 169.999  0.00  0.00    +0.084 C 
BRANCH  19  20
ATOM     20  N   UNL     1     176.860 177.213 171.228  0.00  0.00    -0.305 NA
ATOM     21  C   UNL     1     176.533 178.424 171.984  0.00  0.00    +0.104 C 
BRANCH  20  22
ATOM     22  C   UNL     1     175.642 176.455 170.933  0.00  0.00    +0.088 C 
BRANCH  22  23
ATOM     23  C   UNL     1     174.727 177.235 169.990  0.00  0.00    +0.050 C 
BRANCH  23  24
ATOM     24  C   UNL     1     173.489 176.446 169.641  0.00  0.00    -0.042 A 
ATOM     25  C   UNL     1     173.338 175.915 168.360  0.00  0.00    +0.007 A 
ATOM     26  C   UNL     1     172.194 175.186 168.038  0.00  0.00    +0.049 A 
ATOM     27  C   UNL     1     171.199 174.989 168.995  0.00  0.00    +0.161 A 
ATOM     28  C   UNL     1     171.349 175.521 170.276  0.00  0.00    +0.162 A 
ATOM     29  C   UNL     1     172.495 176.249 170.599  0.00  0.00    +0.053 A 
BRANCH  28  30
ATOM     30  O   UNL     1     170.384 175.335 171.220  0.00  0.00    -0.491 OA
ATOM     31  C   UNL     1     169.829 176.505 171.818  0.00  0.00    +0.277 C 
ENDBRANCH  28  30
BRANCH  27  32
ATOM     32  O   UNL     1     170.086 174.276 168.667  0.00  0.00    -0.491 OA
ATOM     33  C   UNL     1     170.277 173.098 167.887  0.00  0.00    +0.277 C 
ENDBRANCH  27  32
ENDBRANCH  23  24
ENDBRANCH  22  23
ENDBRANCH  20  22
ENDBRANCH  19  20
ENDBRANCH  18  19
ENDBRANCH   1  18
TORSDOF 14
