MODEL 1
REMARK VINA RESULT:   -11.370      0.000      0.000
REMARK INTER + INTRA:         -31.938
REMARK INTER:                 -26.990
REMARK INTRA:                  -4.948
REMARK UNBOUND:                -4.948
REMARK  31 active torsions:
REMARK  status: ('A' for Active; 'I' for Inactive)
REMARK    1  A    between atoms: O_2  and  C_27 
REMARK    2  A    between atoms: O_2  and  C_33 
REMARK    3  A    between atoms: O_3  and  C_34 
REMARK    4  A    between atoms: O_3  and  C_28 
REMARK    5  A    between atoms: O_4  and  C_35 
REMARK    6  A    between atoms: O_4  and  C_29 
REMARK    7  A    between atoms: O_5  and  C_36 
REMARK    8  A    between atoms: O_5  and  C_31 
REMARK    9  A    between atoms: O_6  and  C_32 
REMARK   10  A    between atoms: O_6  and  C_39 
REMARK   11  A    between atoms: O_12  and  C_51 
REMARK   12  A    between atoms: O_13  and  C_52 
REMARK   13  A    between atoms: O_14  and  C_53 
REMARK   14  A    between atoms: O_15  and  C_54 
REMARK   15  A    between atoms: O_16  and  C_55 
REMARK   16  A    between atoms: O_17  and  C_56 
REMARK   17  A    between atoms: O_18  and  C_59 
REMARK   18  A    between atoms: O_19  and  C_60 
REMARK   19  A    between atoms: O_20  and  C_61 
REMARK   20  A    between atoms: O_21  and  C_62 
REMARK   21  A    between atoms: O_22  and  C_63 
REMARK   22  A    between atoms: O_23  and  C_64 
REMARK   23  A    between atoms: O_24  and  C_65 
REMARK   24  A    between atoms: O_25  and  C_66 
REMARK   25  A    between atoms: O_26  and  C_67 
REMARK   26  A    between atoms: C_30  and  C_32 
REMARK   27  A    between atoms: C_33  and  C_37 
REMARK   28  A    between atoms: C_34  and  C_38 
REMARK   29  A    between atoms: C_35  and  C_40 
REMARK   30  A    between atoms: C_36  and  C_41 
REMARK   31  A    between atoms: C_39  and  C_42 
ROOT
HETATM    1  O   UNL     1      82.938  91.160 115.580  1.00  0.00    -0.348 OA
HETATM    2  C   UNL     1      84.120  90.077 113.191  1.00  0.00     0.198 C 
HETATM    3  C   UNL     1      82.918  91.047 113.144  1.00  0.00     0.195 C 
HETATM    4  C   UNL     1      84.027  89.263 114.508  1.00  0.00     0.220 C 
HETATM    5  C   UNL     1      82.975  91.962 114.391  1.00  0.00     0.181 C 
HETATM    6  C   UNL     1      84.054  90.276 115.681  1.00  0.00     0.302 C 
ENDROOT
BRANCH   5   7
HETATM    7  C   UNL     1      81.813  92.969 114.401  1.00  0.00     0.213 C 
BRANCH   7   8
HETATM    8  O   UNL     1      80.540  92.304 114.325  1.00  0.00    -0.315 OA
BRANCH   8   9
HETATM    9  C   UNL     1      79.473  93.101 114.599  1.00  0.00     0.293 C 
HETATM   10  O   UNL     1      79.477  94.115 115.277  1.00  0.00    -0.259 OA
BRANCH   9  11
HETATM   11  C   UNL     1      78.262  92.562 113.943  1.00  0.00     0.045 A 
HETATM   12  C   UNL     1      78.357  91.714 112.825  1.00  0.00     0.057 A 
HETATM   13  C   UNL     1      77.193  91.180 112.282  1.00  0.00     0.102 A 
HETATM   14  C   UNL     1      75.955  91.491 112.835  1.00  0.00     0.132 A 
HETATM   15  C   UNL     1      75.868  92.333 113.936  1.00  0.00     0.102 A 
HETATM   16  C   UNL     1      77.015  92.868 114.505  1.00  0.00     0.057 A 
BRANCH  13  17
HETATM   17  O   UNL     1      77.214  90.330 111.212  1.00  0.00    -0.358 OA
HETATM   18  H   UNL     1      76.966  89.438 111.514  1.00  0.00     0.217 HD
ENDBRANCH  13  17
BRANCH  14  19
HETATM   19  O   UNL     1      74.807  90.964 112.310  1.00  0.00    -0.356 OA
HETATM   20  H   UNL     1      75.115  90.345 111.618  1.00  0.00     0.218 HD
ENDBRANCH  14  19
BRANCH  15  21
HETATM   21  O   UNL     1      74.652  92.634 114.474  1.00  0.00    -0.358 OA
HETATM   22  H   UNL     1      74.164  91.785 114.481  1.00  0.00     0.217 HD
ENDBRANCH  15  21
ENDBRANCH   9  11
ENDBRANCH   8   9
ENDBRANCH   7   8
ENDBRANCH   5   7
BRANCH   3  23
HETATM   23  O   UNL     1      82.941  91.872 111.959  1.00  0.00    -0.307 OA
BRANCH  23  24
HETATM   24  C   UNL     1      81.914  92.127 111.106  1.00  0.00     0.294 C 
HETATM   25  O   UNL     1      81.200  91.212 110.713  1.00  0.00    -0.259 OA
BRANCH  24  26
HETATM   26  C   UNL     1      81.585  93.515 110.699  1.00  0.00     0.045 A 
HETATM   27  C   UNL     1      80.366  93.857 110.093  1.00  0.00     0.057 A 
HETATM   28  C   UNL     1      80.166  95.160 109.647  1.00  0.00     0.102 A 
HETATM   29  C   UNL     1      81.125  96.136 109.889  1.00  0.00     0.132 A 
HETATM   30  C   UNL     1      82.286  95.818 110.578  1.00  0.00     0.102 A 
HETATM   31  C   UNL     1      82.525  94.514 110.992  1.00  0.00     0.057 A 
BRANCH  28  32
HETATM   32  O   UNL     1      79.048  95.524 108.950  1.00  0.00    -0.358 OA
HETATM   33  H   UNL     1      79.134  95.214 108.029  1.00  0.00     0.217 HD
ENDBRANCH  28  32
BRANCH  29  34
HETATM   34  O   UNL     1      80.937  97.418 109.452  1.00  0.00    -0.356 OA
HETATM   35  H   UNL     1      80.596  97.314 108.539  1.00  0.00     0.218 HD
ENDBRANCH  29  34
BRANCH  30  36
HETATM   36  O   UNL     1      83.212  96.784 110.838  1.00  0.00    -0.358 OA
HETATM   37  H   UNL     1      83.393  97.199 109.970  1.00  0.00     0.217 HD
ENDBRANCH  30  36
ENDBRANCH  24  26
ENDBRANCH  23  24
ENDBRANCH   3  23
BRANCH   6  38
HETATM   38  O   UNL     1      83.965  89.533 116.911  1.00  0.00    -0.283 OA
BRANCH  38  39
HETATM   39  C   UNL     1      84.751  89.648 118.007  1.00  0.00     0.295 C 
HETATM   40  O   UNL     1      84.376  89.194 119.083  1.00  0.00    -0.259 OA
BRANCH  39  41
HETATM   41  C   UNL     1      86.012  90.421 117.951  1.00  0.00     0.045 A 
HETATM   42  C   UNL     1      86.939  90.276 116.905  1.00  0.00     0.057 A 
HETATM   43  C   UNL     1      88.067  91.092 116.887  1.00  0.00     0.102 A 
HETATM   44  C   UNL     1      88.319  91.966 117.940  1.00  0.00     0.132 A 
HETATM   45  C   UNL     1      87.449  92.030 119.020  1.00  0.00     0.102 A 
HETATM   46  C   UNL     1      86.288  91.271 119.032  1.00  0.00     0.057 A 
BRANCH  43  47
HETATM   47  O   UNL     1      88.955  91.085 115.848  1.00  0.00    -0.358 OA
HETATM   48  H   UNL     1      88.471  91.202 115.012  1.00  0.00     0.217 HD
ENDBRANCH  43  47
BRANCH  44  49
HETATM   49  O   UNL     1      89.428  92.767 117.933  1.00  0.00    -0.356 OA
HETATM   50  H   UNL     1      89.095  93.649 117.669  1.00  0.00     0.218 HD
ENDBRANCH  44  49
BRANCH  45  51
HETATM   51  O   UNL     1      87.728  92.845 120.077  1.00  0.00    -0.358 OA
HETATM   52  H   UNL     1      87.061  93.559 120.032  1.00  0.00     0.217 HD
ENDBRANCH  45  51
ENDBRANCH  39  41
ENDBRANCH  38  39
ENDBRANCH   6  38
BRANCH   2  53
HETATM   53  O   UNL     1      84.255  89.279 111.984  1.00  0.00    -0.306 OA
BRANCH  53  54
HETATM   54  C   UNL     1      85.284  89.517 111.147  1.00  0.00     0.294 C 
HETATM   55  O   UNL     1      85.414  90.517 110.456  1.00  0.00    -0.259 OA
BRANCH  54  56
HETATM   56  C   UNL     1      86.220  88.375 111.131  1.00  0.00     0.045 A 
HETATM   57  C   UNL     1      85.685  87.084 111.015  1.00  0.00     0.057 A 
HETATM   58  C   UNL     1      86.532  85.988 110.925  1.00  0.00     0.102 A 
HETATM   59  C   UNL     1      87.906  86.176 110.911  1.00  0.00     0.132 A 
HETATM   60  C   UNL     1      88.437  87.458 111.017  1.00  0.00     0.102 A 
HETATM   61  C   UNL     1      87.607  88.566 111.151  1.00  0.00     0.057 A 
BRANCH  58  62
HETATM   62  O   UNL     1      86.050  84.713 110.833  1.00  0.00    -0.358 OA
HETATM   63  H   UNL     1      85.079  84.745 110.918  1.00  0.00     0.217 HD
ENDBRANCH  58  62
BRANCH  59  64
HETATM   64  O   UNL     1      88.750  85.109 110.778  1.00  0.00    -0.356 OA
HETATM   65  H   UNL     1      88.446  84.474 111.460  1.00  0.00     0.218 HD
ENDBRANCH  59  64
BRANCH  60  66
HETATM   66  O   UNL     1      89.789  87.638 110.962  1.00  0.00    -0.358 OA
HETATM   67  H   UNL     1      90.028  87.985 111.846  1.00  0.00     0.217 HD
ENDBRANCH  60  66
ENDBRANCH  54  56
ENDBRANCH  53  54
ENDBRANCH   2  53
BRANCH   4  68
HETATM   68  O   UNL     1      85.132  88.334 114.629  1.00  0.00    -0.304 OA
BRANCH  68  69
HETATM   69  C   UNL     1      84.897  86.985 114.618  1.00  0.00     0.294 C 
HETATM   70  O   UNL     1      83.807  86.522 114.323  1.00  0.00    -0.259 OA
BRANCH  69  71
HETATM   71  C   UNL     1      85.998  86.121 115.100  1.00  0.00     0.045 A 
HETATM   72  C   UNL     1      85.857  85.357 116.268  1.00  0.00     0.057 A 
HETATM   73  C   UNL     1      86.856  84.445 116.596  1.00  0.00     0.102 A 
HETATM   74  C   UNL     1      87.985  84.320 115.792  1.00  0.00     0.132 A 
HETATM   75  C   UNL     1      88.150  85.139 114.683  1.00  0.00     0.102 A 
HETATM   76  C   UNL     1      87.168  86.056 114.334  1.00  0.00     0.057 A 
BRANCH  73  77
HETATM   77  O   UNL     1      86.770  83.630 117.691  1.00  0.00    -0.358 OA
HETATM   78  H   UNL     1      85.890  83.210 117.695  1.00  0.00     0.217 HD
ENDBRANCH  73  77
BRANCH  74  79
HETATM   79  O   UNL     1      88.949  83.391 116.074  1.00  0.00    -0.356 OA
HETATM   80  H   UNL     1      89.382  83.221 115.211  1.00  0.00     0.218 HD
ENDBRANCH  74  79
BRANCH  75  81
HETATM   81  O   UNL     1      89.272  85.020 113.914  1.00  0.00    -0.358 OA
HETATM   82  H   UNL     1      89.009  85.395 113.046  1.00  0.00     0.217 HD
ENDBRANCH  75  81
ENDBRANCH  69  71
ENDBRANCH  68  69
ENDBRANCH   4  68
TORSDOF 31
ENDMDL
MODEL 2
REMARK VINA RESULT:   -11.296      1.430      9.792
REMARK INTER + INTRA:         -31.764
REMARK INTER:                 -27.004
REMARK INTRA:                  -4.759
REMARK UNBOUND:                -4.948
REMARK  31 active torsions:
REMARK  status: ('A' for Active; 'I' for Inactive)
REMARK    1  A    between atoms: O_2  and  C_27 
REMARK    2  A    between atoms: O_2  and  C_33 
REMARK    3  A    between atoms: O_3  and  C_34 
REMARK    4  A    between atoms: O_3  and  C_28 
REMARK    5  A    between atoms: O_4  and  C_35 
REMARK    6  A    between atoms: O_4  and  C_29 
REMARK    7  A    between atoms: O_5  and  C_36 
REMARK    8  A    between atoms: O_5  and  C_31 
REMARK    9  A    between atoms: O_6  and  C_32 
REMARK   10  A    between atoms: O_6  and  C_39 
REMARK   11  A    between atoms: O_12  and  C_51 
REMARK   12  A    between atoms: O_13  and  C_52 
REMARK   13  A    between atoms: O_14  and  C_53 
REMARK   14  A    between atoms: O_15  and  C_54 
REMARK   15  A    between atoms: O_16  and  C_55 
REMARK   16  A    between atoms: O_17  and  C_56 
REMARK   17  A    between atoms: O_18  and  C_59 
REMARK   18  A    between atoms: O_19  and  C_60 
REMARK   19  A    between atoms: O_20  and  C_61 
REMARK   20  A    between atoms: O_21  and  C_62 
REMARK   21  A    between atoms: O_22  and  C_63 
REMARK   22  A    between atoms: O_23  and  C_64 
REMARK   23  A    between atoms: O_24  and  C_65 
REMARK   24  A    between atoms: O_25  and  C_66 
REMARK   25  A    between atoms: O_26  and  C_67 
REMARK   26  A    between atoms: C_30  and  C_32 
REMARK   27  A    between atoms: C_33  and  C_37 
REMARK   28  A    between atoms: C_34  and  C_38 
REMARK   29  A    between atoms: C_35  and  C_40 
REMARK   30  A    between atoms: C_36  and  C_41 
REMARK   31  A    between atoms: C_39  and  C_42 
ROOT
HETATM    1  O   UNL     1      82.659  90.756 115.730  1.00  0.00    -0.348 OA
HETATM    2  C   UNL     1      83.509  89.108 113.529  1.00  0.00     0.198 C 
HETATM    3  C   UNL     1      84.229  89.085 114.897  1.00  0.00     0.195 C 
HETATM    4  C   UNL     1      82.927  90.530 113.320  1.00  0.00     0.220 C 
HETATM    5  C   UNL     1      83.206  89.456 115.997  1.00  0.00     0.181 C 
HETATM    6  C   UNL     1      81.952  90.809 114.491  1.00  0.00     0.302 C 
ENDROOT
BRANCH   5   7
HETATM    7  C   UNL     1      83.852  89.436 117.393  1.00  0.00     0.213 C 
BRANCH   7   8
HETATM    8  O   UNL     1      83.820  90.736 118.006  1.00  0.00    -0.315 OA
BRANCH   8   9
HETATM    9  C   UNL     1      84.936  91.048 118.719  1.00  0.00     0.293 C 
HETATM   10  O   UNL     1      85.169  90.742 119.875  1.00  0.00    -0.259 OA
BRANCH   9  11
HETATM   11  C   UNL     1      85.865  91.834 117.878  1.00  0.00     0.045 A 
HETATM   12  C   UNL     1      87.191  91.412 117.669  1.00  0.00     0.057 A 
HETATM   13  C   UNL     1      88.008  92.149 116.818  1.00  0.00     0.102 A 
HETATM   14  C   UNL     1      87.519  93.292 116.193  1.00  0.00     0.132 A 
HETATM   15  C   UNL     1      86.211  93.706 116.408  1.00  0.00     0.102 A 
HETATM   16  C   UNL     1      85.371  92.980 117.241  1.00  0.00     0.057 A 
BRANCH  13  17
HETATM   17  O   UNL     1      89.297  91.782 116.551  1.00  0.00    -0.358 OA
HETATM   18  H   UNL     1      89.851  92.582 116.515  1.00  0.00     0.217 HD
ENDBRANCH  13  17
BRANCH  14  19
HETATM   19  O   UNL     1      88.315  94.018 115.351  1.00  0.00    -0.356 OA
HETATM   20  H   UNL     1      89.191  94.028 115.788  1.00  0.00     0.218 HD
ENDBRANCH  14  19
BRANCH  15  21
HETATM   21  O   UNL     1      85.737  94.827 115.793  1.00  0.00    -0.358 OA
HETATM   22  H   UNL     1      86.439  95.080 115.159  1.00  0.00     0.217 HD
ENDBRANCH  15  21
ENDBRANCH   9  11
ENDBRANCH   8   9
ENDBRANCH   7   8
ENDBRANCH   5   7
BRANCH   3  23
HETATM   23  O   UNL     1      84.778  87.782 115.191  1.00  0.00    -0.307 OA
BRANCH  23  24
HETATM   24  C   UNL     1      86.062  87.478 115.519  1.00  0.00     0.294 C 
HETATM   25  O   UNL     1      86.912  88.361 115.557  1.00  0.00    -0.259 OA
BRANCH  24  26
HETATM   26  C   UNL     1      86.445  86.102 115.915  1.00  0.00     0.045 A 
HETATM   27  C   UNL     1      86.212  85.591 117.202  1.00  0.00     0.057 A 
HETATM   28  C   UNL     1      86.688  84.326 117.532  1.00  0.00     0.102 A 
HETATM   29  C   UNL     1      87.300  83.536 116.568  1.00  0.00     0.132 A 
HETATM   30  C   UNL     1      87.439  84.003 115.269  1.00  0.00     0.102 A 
HETATM   31  C   UNL     1      87.012  85.280 114.929  1.00  0.00     0.057 A 
BRANCH  28  32
HETATM   32  O   UNL     1      86.591  83.825 118.800  1.00  0.00    -0.358 OA
HETATM   33  H   UNL     1      87.038  84.434 119.417  1.00  0.00     0.217 HD
ENDBRANCH  28  32
BRANCH  29  34
HETATM   34  O   UNL     1      87.773  82.293 116.886  1.00  0.00    -0.356 OA
HETATM   35  H   UNL     1      87.040  81.878 117.388  1.00  0.00     0.218 HD
ENDBRANCH  29  34
BRANCH  30  36
HETATM   36  O   UNL     1      88.015  83.214 114.318  1.00  0.00    -0.358 OA
HETATM   37  H   UNL     1      88.859  82.918 114.715  1.00  0.00     0.217 HD
ENDBRANCH  30  36
ENDBRANCH  24  26
ENDBRANCH  23  24
ENDBRANCH   3  23
BRANCH   6  38
HETATM   38  O   UNL     1      81.405  92.128 114.311  1.00  0.00    -0.283 OA
BRANCH  38  39
HETATM   39  C   UNL     1      80.239  92.616 114.793  1.00  0.00     0.295 C 
HETATM   40  O   UNL     1      80.241  93.393 115.742  1.00  0.00    -0.259 OA
BRANCH  39  41
HETATM   41  C   UNL     1      78.945  92.131 114.264  1.00  0.00     0.045 A 
HETATM   42  C   UNL     1      78.833  91.484 113.021  1.00  0.00     0.057 A 
HETATM   43  C   UNL     1      77.592  90.992 112.626  1.00  0.00     0.102 A 
HETATM   44  C   UNL     1      76.464  91.227 113.406  1.00  0.00     0.132 A 
HETATM   45  C   UNL     1      76.564  91.954 114.583  1.00  0.00     0.102 A 
HETATM   46  C   UNL     1      77.800  92.402 115.028  1.00  0.00     0.057 A 
BRANCH  43  47
HETATM   47  O   UNL     1      77.428  90.258 111.485  1.00  0.00    -0.358 OA
HETATM   48  H   UNL     1      78.268  90.242 110.992  1.00  0.00     0.217 HD
ENDBRANCH  43  47
BRANCH  44  49
HETATM   49  O   UNL     1      75.238  90.752 113.022  1.00  0.00    -0.356 OA
HETATM   50  H   UNL     1      74.755  90.607 113.860  1.00  0.00     0.218 HD
ENDBRANCH  44  49
BRANCH  45  51
HETATM   51  O   UNL     1      75.448  92.232 115.315  1.00  0.00    -0.358 OA
HETATM   52  H   UNL     1      75.170  93.125 115.027  1.00  0.00     0.217 HD
ENDBRANCH  45  51
ENDBRANCH  39  41
ENDBRANCH  38  39
ENDBRANCH   6  38
BRANCH   2  53
HETATM   53  O   UNL     1      84.338  88.617 112.442  1.00  0.00    -0.306 OA
BRANCH  53  54
HETATM   54  C   UNL     1      85.603  89.068 112.320  1.00  0.00     0.294 C 
HETATM   55  O   UNL     1      86.004  90.155 112.706  1.00  0.00    -0.259 OA
BRANCH  54  56
HETATM   56  C   UNL     1      86.439  88.086 111.601  1.00  0.00     0.045 A 
HETATM   57  C   UNL     1      87.438  88.571 110.744  1.00  0.00     0.057 A 
HETATM   58  C   UNL     1      88.293  87.685 110.104  1.00  0.00     0.102 A 
HETATM   59  C   UNL     1      88.183  86.323 110.344  1.00  0.00     0.132 A 
HETATM   60  C   UNL     1      87.198  85.843 111.202  1.00  0.00     0.102 A 
HETATM   61  C   UNL     1      86.304  86.710 111.820  1.00  0.00     0.057 A 
BRANCH  58  62
HETATM   62  O   UNL     1      89.263  88.116 109.244  1.00  0.00    -0.358 OA
HETATM   63  H   UNL     1      90.062  88.325 109.763  1.00  0.00     0.217 HD
ENDBRANCH  58  62
BRANCH  59  64
HETATM   64  O   UNL     1      89.047  85.443 109.755  1.00  0.00    -0.356 OA
HETATM   65  H   UNL     1      88.465  84.767 109.349  1.00  0.00     0.218 HD
ENDBRANCH  59  64
BRANCH  60  66
HETATM   66  O   UNL     1      87.122  84.505 111.465  1.00  0.00    -0.358 OA
HETATM   67  H   UNL     1      86.543  84.441 112.253  1.00  0.00     0.217 HD
ENDBRANCH  60  66
ENDBRANCH  54  56
ENDBRANCH  53  54
ENDBRANCH   2  53
BRANCH   4  68
HETATM   68  O   UNL     1      82.225  90.628 112.056  1.00  0.00    -0.304 OA
BRANCH  68  69
HETATM   69  C   UNL     1      82.717  91.425 111.059  1.00  0.00     0.294 C 
HETATM   70  O   UNL     1      83.745  91.151 110.460  1.00  0.00    -0.259 OA
BRANCH  69  71
HETATM   71  C   UNL     1      82.005  92.702 110.823  1.00  0.00     0.045 A 
HETATM   72  C   UNL     1      82.674  93.930 110.924  1.00  0.00     0.057 A 
HETATM   73  C   UNL     1      82.005  95.091 110.544  1.00  0.00     0.102 A 
HETATM   74  C   UNL     1      80.688  95.028 110.102  1.00  0.00     0.132 A 
HETATM   75  C   UNL     1      80.011  93.817 110.083  1.00  0.00     0.102 A 
HETATM   76  C   UNL     1      80.655  92.645 110.457  1.00  0.00     0.057 A 
BRANCH  73  77
HETATM   77  O   UNL     1      82.604  96.319 110.568  1.00  0.00    -0.358 OA
HETATM   78  H   UNL     1      82.029  96.953 110.101  1.00  0.00     0.217 HD
ENDBRANCH  73  77
BRANCH  74  79
HETATM   79  O   UNL     1      80.036  96.154 109.675  1.00  0.00    -0.356 OA
HETATM   80  H   UNL     1      80.686  96.875 109.808  1.00  0.00     0.218 HD
ENDBRANCH  74  79
BRANCH  75  81
HETATM   81  O   UNL     1      78.710  93.773 109.666  1.00  0.00    -0.358 OA
HETATM   82  H   UNL     1      78.412  92.869 109.906  1.00  0.00     0.217 HD
ENDBRANCH  75  81
ENDBRANCH  69  71
ENDBRANCH  68  69
ENDBRANCH   4  68
TORSDOF 31
ENDMDL
MODEL 3
REMARK VINA RESULT:   -11.294      2.405      9.196
REMARK INTER + INTRA:         -31.758
REMARK INTER:                 -23.525
REMARK INTRA:                  -8.233
REMARK UNBOUND:                -4.948
REMARK  31 active torsions:
REMARK  status: ('A' for Active; 'I' for Inactive)
REMARK    1  A    between atoms: O_2  and  C_27 
REMARK    2  A    between atoms: O_2  and  C_33 
REMARK    3  A    between atoms: O_3  and  C_34 
REMARK    4  A    between atoms: O_3  and  C_28 
REMARK    5  A    between atoms: O_4  and  C_35 
REMARK    6  A    between atoms: O_4  and  C_29 
REMARK    7  A    between atoms: O_5  and  C_36 
REMARK    8  A    between atoms: O_5  and  C_31 
REMARK    9  A    between atoms: O_6  and  C_32 
REMARK   10  A    between atoms: O_6  and  C_39 
REMARK   11  A    between atoms: O_12  and  C_51 
REMARK   12  A    between atoms: O_13  and  C_52 
REMARK   13  A    between atoms: O_14  and  C_53 
REMARK   14  A    between atoms: O_15  and  C_54 
REMARK   15  A    between atoms: O_16  and  C_55 
REMARK   16  A    between atoms: O_17  and  C_56 
REMARK   17  A    between atoms: O_18  and  C_59 
REMARK   18  A    between atoms: O_19  and  C_60 
REMARK   19  A    between atoms: O_20  and  C_61 
REMARK   20  A    between atoms: O_21  and  C_62 
REMARK   21  A    between atoms: O_22  and  C_63 
REMARK   22  A    between atoms: O_23  and  C_64 
REMARK   23  A    between atoms: O_24  and  C_65 
REMARK   24  A    between atoms: O_25  and  C_66 
REMARK   25  A    between atoms: O_26  and  C_67 
REMARK   26  A    between atoms: C_30  and  C_32 
REMARK   27  A    between atoms: C_33  and  C_37 
REMARK   28  A    between atoms: C_34  and  C_38 
REMARK   29  A    between atoms: C_35  and  C_40 
REMARK   30  A    between atoms: C_36  and  C_41 
REMARK   31  A    between atoms: C_39  and  C_42 
ROOT
HETATM    1  O   UNL     1      85.290  92.602 112.177  1.00  0.00    -0.348 OA
HETATM    2  C   UNL     1      86.295  92.139 114.833  1.00  0.00     0.198 C 
HETATM    3  C   UNL     1      86.435  91.089 113.709  1.00  0.00     0.195 C 
HETATM    4  C   UNL     1      85.000  92.952 114.570  1.00  0.00     0.220 C 
HETATM    5  C   UNL     1      86.485  91.826 112.349  1.00  0.00     0.181 C 
HETATM    6  C   UNL     1      85.144  93.612 113.175  1.00  0.00     0.302 C 
ENDROOT
BRANCH   5   7
HETATM    7  C   UNL     1      86.641  90.839 111.181  1.00  0.00     0.213 C 
BRANCH   7   8
HETATM    8  O   UNL     1      85.363  90.432 110.661  1.00  0.00    -0.315 OA
BRANCH   8   9
HETATM    9  C   UNL     1      85.106  89.102 110.779  1.00  0.00     0.293 C 
HETATM   10  O   UNL     1      85.600  88.204 110.119  1.00  0.00    -0.259 OA
BRANCH   9  11
HETATM   11  C   UNL     1      84.115  88.875 111.853  1.00  0.00     0.045 A 
HETATM   12  C   UNL     1      83.087  89.803 112.102  1.00  0.00     0.057 A 
HETATM   13  C   UNL     1      82.141  89.515 113.080  1.00  0.00     0.102 A 
HETATM   14  C   UNL     1      82.219  88.330 113.805  1.00  0.00     0.132 A 
HETATM   15  C   UNL     1      83.240  87.422 113.558  1.00  0.00     0.102 A 
HETATM   16  C   UNL     1      84.189  87.678 112.578  1.00  0.00     0.057 A 
BRANCH  13  17
HETATM   17  O   UNL     1      81.102  90.360 113.356  1.00  0.00    -0.358 OA
HETATM   18  H   UNL     1      81.259  91.209 112.907  1.00  0.00     0.217 HD
ENDBRANCH  13  17
BRANCH  14  19
HETATM   19  O   UNL     1      81.288  88.038 114.763  1.00  0.00    -0.356 OA
HETATM   20  H   UNL     1      80.643  87.458 114.310  1.00  0.00     0.218 HD
ENDBRANCH  14  19
BRANCH  15  21
HETATM   21  O   UNL     1      83.313  86.262 114.271  1.00  0.00    -0.358 OA
HETATM   22  H   UNL     1      82.471  85.798 114.081  1.00  0.00     0.217 HD
ENDBRANCH  15  21
ENDBRANCH   9  11
ENDBRANCH   8   9
ENDBRANCH   7   8
ENDBRANCH   5   7
BRANCH   3  23
HETATM   23  O   UNL     1      87.636  90.302 113.857  1.00  0.00    -0.307 OA
BRANCH  23  24
HETATM   24  C   UNL     1      87.766  88.954 113.732  1.00  0.00     0.294 C 
HETATM   25  O   UNL     1      88.505  88.486 112.874  1.00  0.00    -0.259 OA
BRANCH  24  26
HETATM   26  C   UNL     1      87.090  88.030 114.674  1.00  0.00     0.045 A 
HETATM   27  C   UNL     1      86.175  88.472 115.642  1.00  0.00     0.057 A 
HETATM   28  C   UNL     1      85.655  87.562 116.557  1.00  0.00     0.102 A 
HETATM   29  C   UNL     1      85.962  86.212 116.451  1.00  0.00     0.132 A 
HETATM   30  C   UNL     1      86.787  85.762 115.431  1.00  0.00     0.102 A 
HETATM   31  C   UNL     1      87.353  86.659 114.534  1.00  0.00     0.057 A 
BRANCH  28  32
HETATM   32  O   UNL     1      84.850  87.954 117.590  1.00  0.00    -0.358 OA
HETATM   33  H   UNL     1      83.920  87.919 117.299  1.00  0.00     0.217 HD
ENDBRANCH  28  32
BRANCH  29  34
HETATM   34  O   UNL     1      85.456  85.311 117.348  1.00  0.00    -0.356 OA
HETATM   35  H   UNL     1      84.855  85.843 117.910  1.00  0.00     0.218 HD
ENDBRANCH  29  34
BRANCH  30  36
HETATM   36  O   UNL     1      87.063  84.432 115.312  1.00  0.00    -0.358 OA
HETATM   37  H   UNL     1      87.738  84.254 115.998  1.00  0.00     0.217 HD
ENDBRANCH  30  36
ENDBRANCH  24  26
ENDBRANCH  23  24
ENDBRANCH   3  23
BRANCH   6  38
HETATM   38  O   UNL     1      83.946  94.368 112.916  1.00  0.00    -0.283 OA
BRANCH  38  39
HETATM   39  C   UNL     1      83.529  94.882 111.736  1.00  0.00     0.295 C 
HETATM   40  O   UNL     1      84.101  95.851 111.249  1.00  0.00    -0.259 OA
BRANCH  39  41
HETATM   41  C   UNL     1      82.310  94.360 111.078  1.00  0.00     0.045 A 
HETATM   42  C   UNL     1      81.956  93.001 111.116  1.00  0.00     0.057 A 
HETATM   43  C   UNL     1      80.756  92.600 110.534  1.00  0.00     0.102 A 
HETATM   44  C   UNL     1      79.971  93.517 109.843  1.00  0.00     0.132 A 
HETATM   45  C   UNL     1      80.377  94.839 109.723  1.00  0.00     0.102 A 
HETATM   46  C   UNL     1      81.538  95.274 110.345  1.00  0.00     0.057 A 
BRANCH  43  47
HETATM   47  O   UNL     1      80.294  91.317 110.626  1.00  0.00    -0.358 OA
HETATM   48  H   UNL     1      79.365  91.289 110.334  1.00  0.00     0.217 HD
ENDBRANCH  43  47
BRANCH  44  49
HETATM   49  O   UNL     1      78.792  93.131 109.263  1.00  0.00    -0.356 OA
HETATM   50  H   UNL     1      78.423  93.953 108.882  1.00  0.00     0.218 HD
ENDBRANCH  44  49
BRANCH  45  51
HETATM   51  O   UNL     1      79.635  95.721 108.996  1.00  0.00    -0.358 OA
HETATM   52  H   UNL     1      79.696  96.567 109.483  1.00  0.00     0.217 HD
ENDBRANCH  45  51
ENDBRANCH  39  41
ENDBRANCH  38  39
ENDBRANCH   6  38
BRANCH   2  53
HETATM   53  O   UNL     1      86.400  91.567 116.164  1.00  0.00    -0.306 OA
BRANCH  53  54
HETATM   54  C   UNL     1      87.510  91.794 116.895  1.00  0.00     0.294 C 
HETATM   55  O   UNL     1      88.597  92.123 116.442  1.00  0.00    -0.259 OA
BRANCH  54  56
HETATM   56  C   UNL     1      87.254  91.540 118.327  1.00  0.00     0.045 A 
HETATM   57  C   UNL     1      86.164  90.725 118.668  1.00  0.00     0.057 A 
HETATM   58  C   UNL     1      85.930  90.403 119.997  1.00  0.00     0.102 A 
HETATM   59  C   UNL     1      86.797  90.854 120.981  1.00  0.00     0.132 A 
HETATM   60  C   UNL     1      87.884  91.654 120.641  1.00  0.00     0.102 A 
HETATM   61  C   UNL     1      88.113  92.024 119.320  1.00  0.00     0.057 A 
BRANCH  58  62
HETATM   62  O   UNL     1      84.866  89.632 120.373  1.00  0.00    -0.358 OA
HETATM   63  H   UNL     1      84.729  89.744 121.332  1.00  0.00     0.217 HD
ENDBRANCH  58  62
BRANCH  59  64
HETATM   64  O   UNL     1      86.603  90.507 122.289  1.00  0.00    -0.356 OA
HETATM   65  H   UNL     1      86.757  91.337 122.786  1.00  0.00     0.218 HD
ENDBRANCH  59  64
BRANCH  60  66
HETATM   66  O   UNL     1      88.755  92.061 121.610  1.00  0.00    -0.358 OA
HETATM   67  H   UNL     1      89.269  92.783 121.192  1.00  0.00     0.217 HD
ENDBRANCH  60  66
ENDBRANCH  54  56
ENDBRANCH  53  54
ENDBRANCH   2  53
BRANCH   4  68
HETATM   68  O   UNL     1      84.805  93.970 115.582  1.00  0.00    -0.304 OA
BRANCH  68  69
HETATM   69  C   UNL     1      84.227  93.643 116.779  1.00  0.00     0.294 C 
HETATM   70  O   UNL     1      84.734  93.950 117.846  1.00  0.00    -0.259 OA
BRANCH  69  71
HETATM   71  C   UNL     1      83.016  92.794 116.716  1.00  0.00     0.045 A 
HETATM   72  C   UNL     1      81.803  93.303 116.227  1.00  0.00     0.057 A 
HETATM   73  C   UNL     1      80.736  92.429 116.042  1.00  0.00     0.102 A 
HETATM   74  C   UNL     1      80.868  91.082 116.365  1.00  0.00     0.132 A 
HETATM   75  C   UNL     1      82.047  90.606 116.922  1.00  0.00     0.102 A 
HETATM   76  C   UNL     1      83.126  91.457 117.117  1.00  0.00     0.057 A 
BRANCH  73  77
HETATM   77  O   UNL     1      79.538  92.838 115.526  1.00  0.00    -0.358 OA
HETATM   78  H   UNL     1      79.066  92.058 115.182  1.00  0.00     0.217 HD
ENDBRANCH  73  77
BRANCH  74  79
HETATM   79  O   UNL     1      79.844  90.202 116.138  1.00  0.00    -0.356 OA
HETATM   80  H   UNL     1      79.842  89.624 116.929  1.00  0.00     0.218 HD
ENDBRANCH  74  79
BRANCH  75  81
HETATM   81  O   UNL     1      82.156  89.285 117.253  1.00  0.00    -0.358 OA
HETATM   82  H   UNL     1      82.729  88.909 116.552  1.00  0.00     0.217 HD
ENDBRANCH  75  81
ENDBRANCH  69  71
ENDBRANCH  68  69
ENDBRANCH   4  68
TORSDOF 31
ENDMDL
MODEL 4
REMARK VINA RESULT:   -11.242      2.083      9.973
REMARK INTER + INTRA:         -31.634
REMARK INTER:                 -25.909
REMARK INTRA:                  -5.725
REMARK UNBOUND:                -4.948
REMARK  31 active torsions:
REMARK  status: ('A' for Active; 'I' for Inactive)
REMARK    1  A    between atoms: O_2  and  C_27 
REMARK    2  A    between atoms: O_2  and  C_33 
REMARK    3  A    between atoms: O_3  and  C_34 
REMARK    4  A    between atoms: O_3  and  C_28 
REMARK    5  A    between atoms: O_4  and  C_35 
REMARK    6  A    between atoms: O_4  and  C_29 
REMARK    7  A    between atoms: O_5  and  C_36 
REMARK    8  A    between atoms: O_5  and  C_31 
REMARK    9  A    between atoms: O_6  and  C_32 
REMARK   10  A    between atoms: O_6  and  C_39 
REMARK   11  A    between atoms: O_12  and  C_51 
REMARK   12  A    between atoms: O_13  and  C_52 
REMARK   13  A    between atoms: O_14  and  C_53 
REMARK   14  A    between atoms: O_15  and  C_54 
REMARK   15  A    between atoms: O_16  and  C_55 
REMARK   16  A    between atoms: O_17  and  C_56 
REMARK   17  A    between atoms: O_18  and  C_59 
REMARK   18  A    between atoms: O_19  and  C_60 
REMARK   19  A    between atoms: O_20  and  C_61 
REMARK   20  A    between atoms: O_21  and  C_62 
REMARK   21  A    between atoms: O_22  and  C_63 
REMARK   22  A    between atoms: O_23  and  C_64 
REMARK   23  A    between atoms: O_24  and  C_65 
REMARK   24  A    between atoms: O_25  and  C_66 
REMARK   25  A    between atoms: O_26  and  C_67 
REMARK   26  A    between atoms: C_30  and  C_32 
REMARK   27  A    between atoms: C_33  and  C_37 
REMARK   28  A    between atoms: C_34  and  C_38 
REMARK   29  A    between atoms: C_35  and  C_40 
REMARK   30  A    between atoms: C_36  and  C_41 
REMARK   31  A    between atoms: C_39  and  C_42 
ROOT
HETATM    1  O   UNL     1      83.668  92.216 111.995  1.00  0.00    -0.348 OA
HETATM    2  C   UNL     1      84.442  92.485 114.754  1.00  0.00     0.198 C 
HETATM    3  C   UNL     1      85.043  91.397 113.836  1.00  0.00     0.195 C 
HETATM    4  C   UNL     1      82.997  92.775 114.269  1.00  0.00     0.220 C 
HETATM    5  C   UNL     1      85.018  91.914 112.377  1.00  0.00     0.181 C 
HETATM    6  C   UNL     1      83.090  93.247 112.795  1.00  0.00     0.302 C 
ENDROOT
BRANCH   5   7
HETATM    7  C   UNL     1      85.620  90.884 111.407  1.00  0.00     0.213 C 
BRANCH   7   8
HETATM    8  O   UNL     1      84.627  89.951 110.948  1.00  0.00    -0.315 OA
BRANCH   8   9
HETATM    9  C   UNL     1      84.635  88.756 111.597  1.00  0.00     0.293 C 
HETATM   10  O   UNL     1      83.865  88.399 112.472  1.00  0.00    -0.259 OA
BRANCH   9  11
HETATM   11  C   UNL     1      85.737  87.914 111.085  1.00  0.00     0.045 A 
HETATM   12  C   UNL     1      86.814  88.477 110.375  1.00  0.00     0.057 A 
HETATM   13  C   UNL     1      87.859  87.654 109.970  1.00  0.00     0.102 A 
HETATM   14  C   UNL     1      87.832  86.293 110.258  1.00  0.00     0.132 A 
HETATM   15  C   UNL     1      86.764  85.743 110.954  1.00  0.00     0.102 A 
HETATM   16  C   UNL     1      85.715  86.544 111.382  1.00  0.00     0.057 A 
BRANCH  13  17
HETATM   17  O   UNL     1      88.947  88.138 109.299  1.00  0.00    -0.358 OA
HETATM   18  H   UNL     1      89.558  88.542 109.940  1.00  0.00     0.217 HD
ENDBRANCH  13  17
BRANCH  14  19
HETATM   19  O   UNL     1      88.860  85.479 109.868  1.00  0.00    -0.356 OA
HETATM   20  H   UNL     1      89.638  86.071 109.825  1.00  0.00     0.218 HD
ENDBRANCH  14  19
BRANCH  15  21
HETATM   21  O   UNL     1      86.742  84.408 111.233  1.00  0.00    -0.358 OA
HETATM   22  H   UNL     1      86.143  84.324 112.004  1.00  0.00     0.217 HD
ENDBRANCH  15  21
ENDBRANCH   9  11
ENDBRANCH   8   9
ENDBRANCH   7   8
ENDBRANCH   5   7
BRANCH   3  23
HETATM   23  O   UNL     1      86.405  91.084 114.197  1.00  0.00    -0.307 OA
BRANCH  23  24
HETATM   24  C   UNL     1      87.014  89.868 114.166  1.00  0.00     0.294 C 
HETATM   25  O   UNL     1      88.063  89.722 113.550  1.00  0.00    -0.259 OA
BRANCH  24  26
HETATM   26  C   UNL     1      86.473  88.723 114.937  1.00  0.00     0.045 A 
HETATM   27  C   UNL     1      85.523  88.878 115.958  1.00  0.00     0.057 A 
HETATM   28  C   UNL     1      85.136  87.771 116.707  1.00  0.00     0.102 A 
HETATM   29  C   UNL     1      85.610  86.507 116.381  1.00  0.00     0.132 A 
HETATM   30  C   UNL     1      86.472  86.341 115.306  1.00  0.00     0.102 A 
HETATM   31  C   UNL     1      86.906  87.438 114.575  1.00  0.00     0.057 A 
BRANCH  28  32
HETATM   32  O   UNL     1      84.303  87.881 117.784  1.00  0.00    -0.358 OA
HETATM   33  H   UNL     1      84.258  88.816 118.057  1.00  0.00     0.217 HD
ENDBRANCH  28  32
BRANCH  29  34
HETATM   34  O   UNL     1      85.236  85.414 117.113  1.00  0.00    -0.356 OA
HETATM   35  H   UNL     1      85.935  85.330 117.794  1.00  0.00     0.218 HD
ENDBRANCH  29  34
BRANCH  30  36
HETATM   36  O   UNL     1      86.913  85.095 114.971  1.00  0.00    -0.358 OA
HETATM   37  H   UNL     1      87.394  85.218 114.128  1.00  0.00     0.217 HD
ENDBRANCH  30  36
ENDBRANCH  24  26
ENDBRANCH  23  24
ENDBRANCH   3  23
BRANCH   6  38
HETATM   38  O   UNL     1      81.754  93.518 112.331  1.00  0.00    -0.283 OA
BRANCH  38  39
HETATM   39  C   UNL     1      81.353  93.778 111.065  1.00  0.00     0.295 C 
HETATM   40  O   UNL     1      81.912  94.650 110.409  1.00  0.00    -0.259 OA
BRANCH  39  41
HETATM   41  C   UNL     1      80.166  93.100 110.499  1.00  0.00     0.045 A 
HETATM   42  C   UNL     1      79.559  91.995 111.121  1.00  0.00     0.057 A 
HETATM   43  C   UNL     1      78.402  91.458 110.563  1.00  0.00     0.102 A 
HETATM   44  C   UNL     1      77.913  91.947 109.356  1.00  0.00     0.132 A 
HETATM   45  C   UNL     1      78.575  92.972 108.695  1.00  0.00     0.102 A 
HETATM   46  C   UNL     1      79.695  93.563 109.261  1.00  0.00     0.057 A 
BRANCH  43  47
HETATM   47  O   UNL     1      77.698  90.457 111.170  1.00  0.00    -0.358 OA
HETATM   48  H   UNL     1      76.745  90.621 111.055  1.00  0.00     0.217 HD
ENDBRANCH  43  47
BRANCH  44  49
HETATM   49  O   UNL     1      76.780  91.421 108.797  1.00  0.00    -0.356 OA
HETATM   50  H   UNL     1      77.037  91.195 107.881  1.00  0.00     0.218 HD
ENDBRANCH  44  49
BRANCH  45  51
HETATM   51  O   UNL     1      78.127  93.410 107.484  1.00  0.00    -0.358 OA
HETATM   52  H   UNL     1      78.567  94.272 107.346  1.00  0.00     0.217 HD
ENDBRANCH  45  51
ENDBRANCH  39  41
ENDBRANCH  38  39
ENDBRANCH   6  38
BRANCH   2  53
HETATM   53  O   UNL     1      84.564  92.170 116.167  1.00  0.00    -0.306 OA
BRANCH  53  54
HETATM   54  C   UNL     1      85.321  92.957 116.956  1.00  0.00     0.294 C 
HETATM   55  O   UNL     1      85.579  94.132 116.740  1.00  0.00    -0.259 OA
BRANCH  54  56
HETATM   56  C   UNL     1      85.849  92.192 118.104  1.00  0.00     0.045 A 
HETATM   57  C   UNL     1      87.066  92.602 118.667  1.00  0.00     0.057 A 
HETATM   58  C   UNL     1      87.563  91.956 119.790  1.00  0.00     0.102 A 
HETATM   59  C   UNL     1      86.834  90.932 120.377  1.00  0.00     0.132 A 
HETATM   60  C   UNL     1      85.622  90.532 119.824  1.00  0.00     0.102 A 
HETATM   61  C   UNL     1      85.127  91.137 118.674  1.00  0.00     0.057 A 
BRANCH  58  62
HETATM   62  O   UNL     1      88.755  92.311 120.355  1.00  0.00    -0.358 OA
HETATM   63  H   UNL     1      88.620  92.420 121.314  1.00  0.00     0.217 HD
ENDBRANCH  58  62
BRANCH  59  64
HETATM   64  O   UNL     1      87.291  90.317 121.509  1.00  0.00    -0.356 OA
HETATM   65  H   UNL     1      87.477  91.056 122.127  1.00  0.00     0.218 HD
ENDBRANCH  59  64
BRANCH  60  66
HETATM   66  O   UNL     1      84.892  89.551 120.430  1.00  0.00    -0.358 OA
HETATM   67  H   UNL     1      85.267  89.485 121.332  1.00  0.00     0.217 HD
ENDBRANCH  60  66
ENDBRANCH  54  56
ENDBRANCH  53  54
ENDBRANCH   2  53
BRANCH   4  68
HETATM   68  O   UNL     1      82.368  93.799 115.079  1.00  0.00    -0.304 OA
BRANCH  68  69
HETATM   69  C   UNL     1      81.384  93.461 115.968  1.00  0.00     0.294 C 
HETATM   70  O   UNL     1      80.998  94.234 116.828  1.00  0.00    -0.259 OA
BRANCH  69  71
HETATM   71  C   UNL     1      80.895  92.065 115.908  1.00  0.00     0.045 A 
HETATM   72  C   UNL     1      80.019  91.650 114.893  1.00  0.00     0.057 A 
HETATM   73  C   UNL     1      79.709  90.297 114.787  1.00  0.00     0.102 A 
HETATM   74  C   UNL     1      80.239  89.383 115.692  1.00  0.00     0.132 A 
HETATM   75  C   UNL     1      81.040  89.817 116.740  1.00  0.00     0.102 A 
HETATM   76  C   UNL     1      81.364  91.160 116.868  1.00  0.00     0.057 A 
BRANCH  73  77
HETATM   77  O   UNL     1      78.902  89.809 113.797  1.00  0.00    -0.358 OA
HETATM   78  H   UNL     1      79.319  89.010 113.424  1.00  0.00     0.217 HD
ENDBRANCH  73  77
BRANCH  74  79
HETATM   79  O   UNL     1      79.985  88.044 115.567  1.00  0.00    -0.356 OA
HETATM   80  H   UNL     1      80.254  87.665 116.430  1.00  0.00     0.218 HD
ENDBRANCH  74  79
BRANCH  75  81
HETATM   81  O   UNL     1      81.536  88.910 117.633  1.00  0.00    -0.358 OA
HETATM   82  H   UNL     1      80.767  88.342 117.851  1.00  0.00     0.217 HD
ENDBRANCH  75  81
ENDBRANCH  69  71
ENDBRANCH  68  69
ENDBRANCH   4  68
TORSDOF 31
ENDMDL
MODEL 5
REMARK VINA RESULT:   -11.199      2.514     10.313
REMARK INTER + INTRA:         -31.533
REMARK INTER:                 -25.323
REMARK INTRA:                  -6.209
REMARK UNBOUND:                -4.948
REMARK  31 active torsions:
REMARK  status: ('A' for Active; 'I' for Inactive)
REMARK    1  A    between atoms: O_2  and  C_27 
REMARK    2  A    between atoms: O_2  and  C_33 
REMARK    3  A    between atoms: O_3  and  C_34 
REMARK    4  A    between atoms: O_3  and  C_28 
REMARK    5  A    between atoms: O_4  and  C_35 
REMARK    6  A    between atoms: O_4  and  C_29 
REMARK    7  A    between atoms: O_5  and  C_36 
REMARK    8  A    between atoms: O_5  and  C_31 
REMARK    9  A    between atoms: O_6  and  C_32 
REMARK   10  A    between atoms: O_6  and  C_39 
REMARK   11  A    between atoms: O_12  and  C_51 
REMARK   12  A    between atoms: O_13  and  C_52 
REMARK   13  A    between atoms: O_14  and  C_53 
REMARK   14  A    between atoms: O_15  and  C_54 
REMARK   15  A    between atoms: O_16  and  C_55 
REMARK   16  A    between atoms: O_17  and  C_56 
REMARK   17  A    between atoms: O_18  and  C_59 
REMARK   18  A    between atoms: O_19  and  C_60 
REMARK   19  A    between atoms: O_20  and  C_61 
REMARK   20  A    between atoms: O_21  and  C_62 
REMARK   21  A    between atoms: O_22  and  C_63 
REMARK   22  A    between atoms: O_23  and  C_64 
REMARK   23  A    between atoms: O_24  and  C_65 
REMARK   24  A    between atoms: O_25  and  C_66 
REMARK   25  A    between atoms: O_26  and  C_67 
REMARK   26  A    between atoms: C_30  and  C_32 
REMARK   27  A    between atoms: C_33  and  C_37 
REMARK   28  A    between atoms: C_34  and  C_38 
REMARK   29  A    between atoms: C_35  and  C_40 
REMARK   30  A    between atoms: C_36  and  C_41 
REMARK   31  A    between atoms: C_39  and  C_42 
ROOT
HETATM    1  O   UNL     1      79.575  91.728 115.662  1.00  0.00    -0.348 OA
HETATM    2  C   UNL     1      81.236  92.761 113.552  1.00  0.00     0.198 C 
HETATM    3  C   UNL     1      81.713  92.713 115.021  1.00  0.00     0.195 C 
HETATM    4  C   UNL     1      79.696  92.942 113.554  1.00  0.00     0.220 C 
HETATM    5  C   UNL     1      80.996  91.539 115.732  1.00  0.00     0.181 C 
HETATM    6  C   UNL     1      79.089  91.738 114.320  1.00  0.00     0.302 C 
ENDROOT
BRANCH   5   7
HETATM    7  C   UNL     1      81.437  91.421 117.201  1.00  0.00     0.213 C 
BRANCH   7   8
HETATM    8  O   UNL     1      81.908  90.097 117.504  1.00  0.00    -0.315 OA
BRANCH   8   9
HETATM    9  C   UNL     1      83.255  90.005 117.671  1.00  0.00     0.293 C 
HETATM   10  O   UNL     1      83.936  90.644 118.455  1.00  0.00    -0.259 OA
BRANCH   9  11
HETATM   11  C   UNL     1      83.807  88.990 116.748  1.00  0.00     0.045 A 
HETATM   12  C   UNL     1      83.391  88.925 115.406  1.00  0.00     0.057 A 
HETATM   13  C   UNL     1      83.987  87.996 114.559  1.00  0.00     0.102 A 
HETATM   14  C   UNL     1      84.972  87.139 115.041  1.00  0.00     0.132 A 
HETATM   15  C   UNL     1      85.374  87.205 116.368  1.00  0.00     0.102 A 
HETATM   16  C   UNL     1      84.806  88.133 117.230  1.00  0.00     0.057 A 
BRANCH  13  17
HETATM   17  O   UNL     1      83.648  87.894 113.239  1.00  0.00    -0.358 OA
HETATM   18  H   UNL     1      83.542  86.954 113.013  1.00  0.00     0.217 HD
ENDBRANCH  13  17
BRANCH  14  19
HETATM   19  O   UNL     1      85.566  86.227 114.212  1.00  0.00    -0.356 OA
HETATM   20  H   UNL     1      85.057  85.402 114.350  1.00  0.00     0.218 HD
ENDBRANCH  14  19
BRANCH  15  21
HETATM   21  O   UNL     1      86.340  86.364 116.835  1.00  0.00    -0.358 OA
HETATM   22  H   UNL     1      86.139  85.499 116.422  1.00  0.00     0.217 HD
ENDBRANCH  15  21
ENDBRANCH   9  11
ENDBRANCH   8   9
ENDBRANCH   7   8
ENDBRANCH   5   7
BRANCH   3  23
HETATM   23  O   UNL     1      83.139  92.514 115.116  1.00  0.00    -0.307 OA
BRANCH  23  24
HETATM   24  C   UNL     1      84.061  93.359 115.649  1.00  0.00     0.294 C 
HETATM   25  O   UNL     1      83.732  94.488 115.993  1.00  0.00    -0.259 OA
BRANCH  24  26
HETATM   26  C   UNL     1      85.453  92.913 115.900  1.00  0.00     0.045 A 
HETATM   27  C   UNL     1      86.422  93.745 116.482  1.00  0.00     0.057 A 
HETATM   28  C   UNL     1      87.733  93.293 116.595  1.00  0.00     0.102 A 
HETATM   29  C   UNL     1      88.058  91.994 116.228  1.00  0.00     0.132 A 
HETATM   30  C   UNL     1      87.077  91.139 115.746  1.00  0.00     0.102 A 
HETATM   31  C   UNL     1      85.772  91.584 115.583  1.00  0.00     0.057 A 
BRANCH  28  32
HETATM   32  O   UNL     1      88.740  94.099 117.048  1.00  0.00    -0.358 OA
HETATM   33  H   UNL     1      88.695  94.147 118.021  1.00  0.00     0.217 HD
ENDBRANCH  28  32
BRANCH  29  34
HETATM   34  O   UNL     1      89.345  91.543 116.334  1.00  0.00    -0.356 OA
HETATM   35  H   UNL     1      89.250  90.602 116.592  1.00  0.00     0.218 HD
ENDBRANCH  29  34
BRANCH  30  36
HETATM   36  O   UNL     1      87.394  89.855 115.414  1.00  0.00    -0.358 OA
HETATM   37  H   UNL     1      87.526  89.400 116.270  1.00  0.00     0.217 HD
ENDBRANCH  30  36
ENDBRANCH  24  26
ENDBRANCH  23  24
ENDBRANCH   3  23
BRANCH   6  38
HETATM   38  O   UNL     1      77.659  91.895 114.332  1.00  0.00    -0.283 OA
BRANCH  38  39
HETATM   39  C   UNL     1      76.772  91.487 113.394  1.00  0.00     0.295 C 
HETATM   40  O   UNL     1      77.096  90.644 112.565  1.00  0.00    -0.259 OA
BRANCH  39  41
HETATM   41  C   UNL     1      75.445  92.133 113.283  1.00  0.00     0.045 A 
HETATM   42  C   UNL     1      75.056  93.203 114.106  1.00  0.00     0.057 A 
HETATM   43  C   UNL     1      73.819  93.804 113.891  1.00  0.00     0.102 A 
HETATM   44  C   UNL     1      72.943  93.287 112.941  1.00  0.00     0.132 A 
HETATM   45  C   UNL     1      73.294  92.166 112.201  1.00  0.00     0.102 A 
HETATM   46  C   UNL     1      74.545  91.587 112.356  1.00  0.00     0.057 A 
BRANCH  43  47
HETATM   47  O   UNL     1      73.419  94.916 114.577  1.00  0.00    -0.358 OA
HETATM   48  H   UNL     1      72.885  94.644 115.345  1.00  0.00     0.217 HD
ENDBRANCH  43  47
BRANCH  44  49
HETATM   49  O   UNL     1      71.722  93.868 112.727  1.00  0.00    -0.356 OA
HETATM   50  H   UNL     1      71.485  94.271 113.587  1.00  0.00     0.218 HD
ENDBRANCH  44  49
BRANCH  45  51
HETATM   51  O   UNL     1      72.411  91.627 111.313  1.00  0.00    -0.358 OA
HETATM   52  H   UNL     1      71.534  91.723 111.736  1.00  0.00     0.217 HD
ENDBRANCH  45  51
ENDBRANCH  39  41
ENDBRANCH  38  39
ENDBRANCH   6  38
BRANCH   2  53
HETATM   53  O   UNL     1      81.967  93.726 112.748  1.00  0.00    -0.306 OA
BRANCH  53  54
HETATM   54  C   UNL     1      82.324  93.401 111.489  1.00  0.00     0.294 C 
HETATM   55  O   UNL     1      81.727  93.738 110.477  1.00  0.00    -0.259 OA
BRANCH  54  56
HETATM   56  C   UNL     1      83.516  92.529 111.493  1.00  0.00     0.045 A 
HETATM   57  C   UNL     1      84.708  93.042 112.025  1.00  0.00     0.057 A 
HETATM   58  C   UNL     1      85.832  92.234 112.113  1.00  0.00     0.102 A 
HETATM   59  C   UNL     1      85.763  90.908 111.712  1.00  0.00     0.132 A 
HETATM   60  C   UNL     1      84.578  90.396 111.193  1.00  0.00     0.102 A 
HETATM   61  C   UNL     1      83.452  91.201 111.056  1.00  0.00     0.057 A 
BRANCH  58  62
HETATM   62  O   UNL     1      87.018  92.703 112.603  1.00  0.00    -0.358 OA
HETATM   63  H   UNL     1      87.211  93.558 112.175  1.00  0.00     0.217 HD
ENDBRANCH  58  62
BRANCH  59  64
HETATM   64  O   UNL     1      86.851  90.090 111.835  1.00  0.00    -0.356 OA
HETATM   65  H   UNL     1      86.842  89.550 111.017  1.00  0.00     0.218 HD
ENDBRANCH  59  64
BRANCH  60  66
HETATM   66  O   UNL     1      84.507  89.080 110.838  1.00  0.00    -0.358 OA
HETATM   67  H   UNL     1      84.160  88.628 111.635  1.00  0.00     0.217 HD
ENDBRANCH  60  66
ENDBRANCH  54  56
ENDBRANCH  53  54
ENDBRANCH   2  53
BRANCH   4  68
HETATM   68  O   UNL     1      79.171  92.986 112.204  1.00  0.00    -0.304 OA
BRANCH  68  69
HETATM   69  C   UNL     1      78.504  94.097 111.764  1.00  0.00     0.294 C 
HETATM   70  O   UNL     1      78.045  94.922 112.537  1.00  0.00    -0.259 OA
BRANCH  69  71
HETATM   71  C   UNL     1      78.263  94.186 110.306  1.00  0.00     0.045 A 
HETATM   72  C   UNL     1      78.531  95.370 109.603  1.00  0.00     0.057 A 
HETATM   73  C   UNL     1      78.436  95.360 108.214  1.00  0.00     0.102 A 
HETATM   74  C   UNL     1      78.055  94.202 107.545  1.00  0.00     0.132 A 
HETATM   75  C   UNL     1      77.715  93.060 108.258  1.00  0.00     0.102 A 
HETATM   76  C   UNL     1      77.801  93.044 109.643  1.00  0.00     0.057 A 
BRANCH  73  77
HETATM   77  O   UNL     1      78.727  96.459 107.455  1.00  0.00    -0.358 OA
HETATM   78  H   UNL     1      78.306  96.352 106.581  1.00  0.00     0.217 HD
ENDBRANCH  73  77
BRANCH  74  79
HETATM   79  O   UNL     1      78.009  94.163 106.177  1.00  0.00    -0.356 OA
HETATM   80  H   UNL     1      78.484  93.338 105.943  1.00  0.00     0.218 HD
ENDBRANCH  74  79
BRANCH  75  81
HETATM   81  O   UNL     1      77.322  91.935 107.589  1.00  0.00    -0.358 OA
HETATM   82  H   UNL     1      77.906  91.230 107.943  1.00  0.00     0.217 HD
ENDBRANCH  75  81
ENDBRANCH  69  71
ENDBRANCH  68  69
ENDBRANCH   4  68
TORSDOF 31
ENDMDL
MODEL 6
REMARK VINA RESULT:   -11.189      1.340      9.714
REMARK INTER + INTRA:         -31.508
REMARK INTER:                 -25.993
REMARK INTRA:                  -5.515
REMARK UNBOUND:                -4.948
REMARK  31 active torsions:
REMARK  status: ('A' for Active; 'I' for Inactive)
REMARK    1  A    between atoms: O_2  and  C_27 
REMARK    2  A    between atoms: O_2  and  C_33 
REMARK    3  A    between atoms: O_3  and  C_34 
REMARK    4  A    between atoms: O_3  and  C_28 
REMARK    5  A    between atoms: O_4  and  C_35 
REMARK    6  A    between atoms: O_4  and  C_29 
REMARK    7  A    between atoms: O_5  and  C_36 
REMARK    8  A    between atoms: O_5  and  C_31 
REMARK    9  A    between atoms: O_6  and  C_32 
REMARK   10  A    between atoms: O_6  and  C_39 
REMARK   11  A    between atoms: O_12  and  C_51 
REMARK   12  A    between atoms: O_13  and  C_52 
REMARK   13  A    between atoms: O_14  and  C_53 
REMARK   14  A    between atoms: O_15  and  C_54 
REMARK   15  A    between atoms: O_16  and  C_55 
REMARK   16  A    between atoms: O_17  and  C_56 
REMARK   17  A    between atoms: O_18  and  C_59 
REMARK   18  A    between atoms: O_19  and  C_60 
REMARK   19  A    between atoms: O_20  and  C_61 
REMARK   20  A    between atoms: O_21  and  C_62 
REMARK   21  A    between atoms: O_22  and  C_63 
REMARK   22  A    between atoms: O_23  and  C_64 
REMARK   23  A    between atoms: O_24  and  C_65 
REMARK   24  A    between atoms: O_25  and  C_66 
REMARK   25  A    between atoms: O_26  and  C_67 
REMARK   26  A    between atoms: C_30  and  C_32 
REMARK   27  A    between atoms: C_33  and  C_37 
REMARK   28  A    between atoms: C_34  and  C_38 
REMARK   29  A    between atoms: C_35  and  C_40 
REMARK   30  A    between atoms: C_36  and  C_41 
REMARK   31  A    between atoms: C_39  and  C_42 
ROOT
HETATM    1  O   UNL     1      82.705  90.827 115.421  1.00  0.00    -0.348 OA
HETATM    2  C   UNL     1      84.273  89.957 113.170  1.00  0.00     0.198 C 
HETATM    3  C   UNL     1      84.581  89.493 114.611  1.00  0.00     0.195 C 
HETATM    4  C   UNL     1      83.655  91.378 113.246  1.00  0.00     0.220 C 
HETATM    5  C   UNL     1      83.263  89.504 115.423  1.00  0.00     0.181 C 
HETATM    6  C   UNL     1      82.371  91.278 114.108  1.00  0.00     0.302 C 
ENDROOT
BRANCH   5   7
HETATM    7  C   UNL     1      83.492  89.035 116.870  1.00  0.00     0.213 C 
BRANCH   7   8
HETATM    8  O   UNL     1      83.536  90.145 117.782  1.00  0.00    -0.315 OA
BRANCH   8   9
HETATM    9  C   UNL     1      84.737  90.321 118.397  1.00  0.00     0.293 C 
HETATM   10  O   UNL     1      85.108  89.796 119.433  1.00  0.00    -0.259 OA
BRANCH   9  11
HETATM   11  C   UNL     1      85.568  91.262 117.615  1.00  0.00     0.045 A 
HETATM   12  C   UNL     1      85.057  92.502 117.189  1.00  0.00     0.057 A 
HETATM   13  C   UNL     1      85.897  93.381 116.513  1.00  0.00     0.102 A 
HETATM   14  C   UNL     1      87.219  93.031 116.257  1.00  0.00     0.132 A 
HETATM   15  C   UNL     1      87.715  91.804 116.677  1.00  0.00     0.102 A 
HETATM   16  C   UNL     1      86.903  90.914 117.365  1.00  0.00     0.057 A 
BRANCH  13  17
HETATM   17  O   UNL     1      85.474  94.611 116.092  1.00  0.00    -0.358 OA
HETATM   18  H   UNL     1      84.524  94.700 116.286  1.00  0.00     0.217 HD
ENDBRANCH  13  17
BRANCH  14  19
HETATM   19  O   UNL     1      88.052  93.894 115.599  1.00  0.00    -0.356 OA
HETATM   20  H   UNL     1      88.154  94.651 116.210  1.00  0.00     0.218 HD
ENDBRANCH  14  19
BRANCH  15  21
HETATM   21  O   UNL     1      89.012  91.466 116.424  1.00  0.00    -0.358 OA
HETATM   22  H   UNL     1      89.542  92.162 116.864  1.00  0.00     0.217 HD
ENDBRANCH  15  21
ENDBRANCH   9  11
ENDBRANCH   8   9
ENDBRANCH   7   8
ENDBRANCH   5   7
BRANCH   3  23
HETATM   23  O   UNL     1      85.134  88.160 114.639  1.00  0.00    -0.307 OA
BRANCH  23  24
HETATM   24  C   UNL     1      86.405  87.795 114.956  1.00  0.00     0.294 C 
HETATM   25  O   UNL     1      87.293  88.639 115.000  1.00  0.00    -0.259 OA
BRANCH  24  26
HETATM   26  C   UNL     1      86.727  86.398 115.335  1.00  0.00     0.045 A 
HETATM   27  C   UNL     1      87.633  85.608 114.611  1.00  0.00     0.057 A 
HETATM   28  C   UNL     1      87.811  84.274 114.964  1.00  0.00     0.102 A 
HETATM   29  C   UNL     1      87.173  83.757 116.084  1.00  0.00     0.132 A 
HETATM   30  C   UNL     1      86.356  84.568 116.858  1.00  0.00     0.102 A 
HETATM   31  C   UNL     1      86.129  85.889 116.497  1.00  0.00     0.057 A 
BRANCH  28  32
HETATM   32  O   UNL     1      88.593  83.428 114.228  1.00  0.00    -0.358 OA
HETATM   33  H   UNL     1      89.489  83.805 114.156  1.00  0.00     0.217 HD
ENDBRANCH  28  32
BRANCH  29  34
HETATM   34  O   UNL     1      87.341  82.446 116.437  1.00  0.00    -0.356 OA
HETATM   35  H   UNL     1      88.275  82.253 116.209  1.00  0.00     0.218 HD
ENDBRANCH  29  34
BRANCH  30  36
HETATM   36  O   UNL     1      85.754  84.064 117.973  1.00  0.00    -0.358 OA
HETATM   37  H   UNL     1      86.237  84.468 118.722  1.00  0.00     0.217 HD
ENDBRANCH  30  36
ENDBRANCH  24  26
ENDBRANCH  23  24
ENDBRANCH   3  23
BRANCH   6  38
HETATM   38  O   UNL     1      81.787  92.591 114.190  1.00  0.00    -0.283 OA
BRANCH  38  39
HETATM   39  C   UNL     1      80.661  92.959 114.843  1.00  0.00     0.295 C 
HETATM   40  O   UNL     1      80.730  93.680 115.833  1.00  0.00    -0.259 OA
BRANCH  39  41
HETATM   41  C   UNL     1      79.347  92.404 114.447  1.00  0.00     0.045 A 
HETATM   42  C   UNL     1      78.225  92.447 115.291  1.00  0.00     0.057 A 
HETATM   43  C   UNL     1      77.006  91.968 114.818  1.00  0.00     0.102 A 
HETATM   44  C   UNL     1      76.927  91.368 113.565  1.00  0.00     0.132 A 
HETATM   45  C   UNL     1      78.062  91.238 112.778  1.00  0.00     0.102 A 
HETATM   46  C   UNL     1      79.275  91.761 113.203  1.00  0.00     0.057 A 
BRANCH  43  47
HETATM   47  O   UNL     1      75.850  92.077 115.539  1.00  0.00    -0.358 OA
HETATM   48  H   UNL     1      75.939  91.570 116.365  1.00  0.00     0.217 HD
ENDBRANCH  43  47
BRANCH  44  49
HETATM   49  O   UNL     1      75.734  90.889 113.094  1.00  0.00    -0.356 OA
HETATM   50  H   UNL     1      75.425  90.270 113.786  1.00  0.00     0.218 HD
ENDBRANCH  44  49
BRANCH  45  51
HETATM   51  O   UNL     1      77.993  90.597 111.576  1.00  0.00    -0.358 OA
HETATM   52  H   UNL     1      77.340  89.880 111.707  1.00  0.00     0.217 HD
ENDBRANCH  45  51
ENDBRANCH  39  41
ENDBRANCH  38  39
ENDBRANCH   6  38
BRANCH   2  53
HETATM   53  O   UNL     1      85.412  89.831 112.276  1.00  0.00    -0.306 OA
BRANCH  53  54
HETATM   54  C   UNL     1      85.304  89.061 111.175  1.00  0.00     0.294 C 
HETATM   55  O   UNL     1      84.450  89.184 110.309  1.00  0.00    -0.259 OA
BRANCH  54  56
HETATM   56  C   UNL     1      86.333  88.002 111.175  1.00  0.00     0.045 A 
HETATM   57  C   UNL     1      85.906  86.666 111.178  1.00  0.00     0.057 A 
HETATM   58  C   UNL     1      86.838  85.640 111.107  1.00  0.00     0.102 A 
HETATM   59  C   UNL     1      88.187  85.940 110.992  1.00  0.00     0.132 A 
HETATM   60  C   UNL     1      88.610  87.265 110.979  1.00  0.00     0.102 A 
HETATM   61  C   UNL     1      87.697  88.308 111.093  1.00  0.00     0.057 A 
BRANCH  58  62
HETATM   62  O   UNL     1      86.464  84.327 111.130  1.00  0.00    -0.358 OA
HETATM   63  H   UNL     1      85.495  84.285 111.239  1.00  0.00     0.217 HD
ENDBRANCH  58  62
BRANCH  59  64
HETATM   64  O   UNL     1      89.111  84.939 110.876  1.00  0.00    -0.356 OA
HETATM   65  H   UNL     1      89.276  84.653 111.799  1.00  0.00     0.218 HD
ENDBRANCH  59  64
BRANCH  60  66
HETATM   66  O   UNL     1      89.936  87.552 110.826  1.00  0.00    -0.358 OA
HETATM   67  H   UNL     1      90.400  86.738 111.115  1.00  0.00     0.217 HD
ENDBRANCH  60  66
ENDBRANCH  54  56
ENDBRANCH  53  54
ENDBRANCH   2  53
BRANCH   4  68
HETATM   68  O   UNL     1      83.329  91.879 111.927  1.00  0.00    -0.304 OA
BRANCH  68  69
HETATM   69  C   UNL     1      83.404  93.221 111.666  1.00  0.00     0.294 C 
HETATM   70  O   UNL     1      84.300  93.917 112.114  1.00  0.00    -0.259 OA
BRANCH  69  71
HETATM   71  C   UNL     1      82.275  93.808 110.909  1.00  0.00     0.045 A 
HETATM   72  C   UNL     1      81.114  93.064 110.653  1.00  0.00     0.057 A 
HETATM   73  C   UNL     1      80.022  93.705 110.074  1.00  0.00     0.102 A 
HETATM   74  C   UNL     1      80.098  95.051 109.733  1.00  0.00     0.132 A 
HETATM   75  C   UNL     1      81.280  95.756 109.918  1.00  0.00     0.102 A 
HETATM   76  C   UNL     1      82.383  95.140 110.493  1.00  0.00     0.057 A 
BRANCH  73  77
HETATM   77  O   UNL     1      78.839  93.061 109.837  1.00  0.00    -0.358 OA
HETATM   78  H   UNL     1      78.539  92.649 110.669  1.00  0.00     0.217 HD
ENDBRANCH  73  77
BRANCH  74  79
HETATM   79  O   UNL     1      79.014  95.707 109.213  1.00  0.00    -0.356 OA
HETATM   80  H   UNL     1      78.457  94.993 108.839  1.00  0.00     0.218 HD
ENDBRANCH  74  79
BRANCH  75  81
HETATM   81  O   UNL     1      81.347  97.073 109.559  1.00  0.00    -0.358 OA
HETATM   82  H   UNL     1      81.603  97.050 108.612  1.00  0.00     0.217 HD
ENDBRANCH  75  81
ENDBRANCH  69  71
ENDBRANCH  68  69
ENDBRANCH   4  68
TORSDOF 31
ENDMDL
MODEL 7
REMARK VINA RESULT:   -11.151      2.558      9.249
REMARK INTER + INTRA:         -31.418
REMARK INTER:                 -23.661
REMARK INTRA:                  -7.758
REMARK UNBOUND:                -4.948
REMARK  31 active torsions:
REMARK  status: ('A' for Active; 'I' for Inactive)
REMARK    1  A    between atoms: O_2  and  C_27 
REMARK    2  A    between atoms: O_2  and  C_33 
REMARK    3  A    between atoms: O_3  and  C_34 
REMARK    4  A    between atoms: O_3  and  C_28 
REMARK    5  A    between atoms: O_4  and  C_35 
REMARK    6  A    between atoms: O_4  and  C_29 
REMARK    7  A    between atoms: O_5  and  C_36 
REMARK    8  A    between atoms: O_5  and  C_31 
REMARK    9  A    between atoms: O_6  and  C_32 
REMARK   10  A    between atoms: O_6  and  C_39 
REMARK   11  A    between atoms: O_12  and  C_51 
REMARK   12  A    between atoms: O_13  and  C_52 
REMARK   13  A    between atoms: O_14  and  C_53 
REMARK   14  A    between atoms: O_15  and  C_54 
REMARK   15  A    between atoms: O_16  and  C_55 
REMARK   16  A    between atoms: O_17  and  C_56 
REMARK   17  A    between atoms: O_18  and  C_59 
REMARK   18  A    between atoms: O_19  and  C_60 
REMARK   19  A    between atoms: O_20  and  C_61 
REMARK   20  A    between atoms: O_21  and  C_62 
REMARK   21  A    between atoms: O_22  and  C_63 
REMARK   22  A    between atoms: O_23  and  C_64 
REMARK   23  A    between atoms: O_24  and  C_65 
REMARK   24  A    between atoms: O_25  and  C_66 
REMARK   25  A    between atoms: O_26  and  C_67 
REMARK   26  A    between atoms: C_30  and  C_32 
REMARK   27  A    between atoms: C_33  and  C_37 
REMARK   28  A    between atoms: C_34  and  C_38 
REMARK   29  A    between atoms: C_35  and  C_40 
REMARK   30  A    between atoms: C_36  and  C_41 
REMARK   31  A    between atoms: C_39  and  C_42 
ROOT
HETATM    1  O   UNL     1      85.244  92.616 112.226  1.00  0.00    -0.348 OA
HETATM    2  C   UNL     1      86.092  92.056 114.918  1.00  0.00     0.198 C 
HETATM    3  C   UNL     1      86.356  91.074 113.755  1.00  0.00     0.195 C 
HETATM    4  C   UNL     1      84.781  92.824 114.608  1.00  0.00     0.220 C 
HETATM    5  C   UNL     1      86.461  91.885 112.440  1.00  0.00     0.181 C 
HETATM    6  C   UNL     1      84.984  93.563 113.261  1.00  0.00     0.302 C 
ENDROOT
BRANCH   5   7
HETATM    7  C   UNL     1      86.741  90.969 111.237  1.00  0.00     0.213 C 
BRANCH   7   8
HETATM    8  O   UNL     1      85.523  90.451 110.675  1.00  0.00    -0.315 OA
BRANCH   8   9
HETATM    9  C   UNL     1      85.399  89.099 110.751  1.00  0.00     0.293 C 
HETATM   10  O   UNL     1      86.031  88.274 110.114  1.00  0.00    -0.259 OA
BRANCH   9  11
HETATM   11  C   UNL     1      84.363  88.744 111.745  1.00  0.00     0.045 A 
HETATM   12  C   UNL     1      84.452  87.559 112.498  1.00  0.00     0.057 A 
HETATM   13  C   UNL     1      83.488  87.301 113.467  1.00  0.00     0.102 A 
HETATM   14  C   UNL     1      82.448  88.200 113.678  1.00  0.00     0.132 A 
HETATM   15  C   UNL     1      82.363  89.366 112.927  1.00  0.00     0.102 A 
HETATM   16  C   UNL     1      83.320  89.654 111.964  1.00  0.00     0.057 A 
BRANCH  13  17
HETATM   17  O   UNL     1      83.527  86.182 114.250  1.00  0.00    -0.358 OA
HETATM   18  H   UNL     1      83.823  85.429 113.709  1.00  0.00     0.217 HD
ENDBRANCH  13  17
BRANCH  14  19
HETATM   19  O   UNL     1      81.500  87.956 114.633  1.00  0.00    -0.356 OA
HETATM   20  H   UNL     1      82.002  87.914 115.472  1.00  0.00     0.218 HD
ENDBRANCH  14  19
BRANCH  15  21
HETATM   21  O   UNL     1      81.341  90.244 113.138  1.00  0.00    -0.358 OA
HETATM   22  H   UNL     1      81.680  91.104 112.814  1.00  0.00     0.217 HD
ENDBRANCH  15  21
ENDBRANCH   9  11
ENDBRANCH   8   9
ENDBRANCH   7   8
ENDBRANCH   5   7
BRANCH   3  23
HETATM   23  O   UNL     1      87.582  90.335 113.945  1.00  0.00    -0.307 OA
BRANCH  23  24
HETATM   24  C   UNL     1      87.782  89.002 113.769  1.00  0.00     0.294 C 
HETATM   25  O   UNL     1      88.541  88.606 112.892  1.00  0.00    -0.259 OA
BRANCH  24  26
HETATM   26  C   UNL     1      87.160  88.008 114.676  1.00  0.00     0.045 A 
HETATM   27  C   UNL     1      86.283  88.372 115.710  1.00  0.00     0.057 A 
HETATM   28  C   UNL     1      85.815  87.396 116.585  1.00  0.00     0.102 A 
HETATM   29  C   UNL     1      86.135  86.061 116.378  1.00  0.00     0.132 A 
HETATM   30  C   UNL     1      86.921  85.691 115.296  1.00  0.00     0.102 A 
HETATM   31  C   UNL     1      87.435  86.653 114.437  1.00  0.00     0.057 A 
BRANCH  28  32
HETATM   32  O   UNL     1      85.052  87.707 117.675  1.00  0.00    -0.358 OA
HETATM   33  H   UNL     1      85.627  88.074 118.372  1.00  0.00     0.217 HD
ENDBRANCH  28  32
BRANCH  29  34
HETATM   34  O   UNL     1      85.682  85.096 117.235  1.00  0.00    -0.356 OA
HETATM   35  H   UNL     1      85.866  85.460 118.126  1.00  0.00     0.218 HD
ENDBRANCH  29  34
BRANCH  30  36
HETATM   36  O   UNL     1      87.209  84.376 115.079  1.00  0.00    -0.358 OA
HETATM   37  H   UNL     1      87.604  84.065 115.919  1.00  0.00     0.217 HD
ENDBRANCH  30  36
ENDBRANCH  24  26
ENDBRANCH  23  24
ENDBRANCH   3  23
BRANCH   6  38
HETATM   38  O   UNL     1      83.772  94.278 112.959  1.00  0.00    -0.283 OA
BRANCH  38  39
HETATM   39  C   UNL     1      83.409  94.835 111.780  1.00  0.00     0.295 C 
HETATM   40  O   UNL     1      84.020  95.805 111.344  1.00  0.00    -0.259 OA
BRANCH  39  41
HETATM   41  C   UNL     1      82.205  94.361 111.064  1.00  0.00     0.045 A 
HETATM   42  C   UNL     1      81.347  95.231 110.370  1.00  0.00     0.057 A 
HETATM   43  C   UNL     1      80.275  94.698 109.661  1.00  0.00     0.102 A 
HETATM   44  C   UNL     1      80.001  93.335 109.721  1.00  0.00     0.132 A 
HETATM   45  C   UNL     1      80.794  92.495 110.491  1.00  0.00     0.102 A 
HETATM   46  C   UNL     1      81.903  92.994 111.158  1.00  0.00     0.057 A 
BRANCH  43  47
HETATM   47  O   UNL     1      79.465  95.469 108.876  1.00  0.00    -0.358 OA
HETATM   48  H   UNL     1      79.628  95.256 107.940  1.00  0.00     0.217 HD
ENDBRANCH  43  47
BRANCH  44  49
HETATM   49  O   UNL     1      78.945  92.803 109.032  1.00  0.00    -0.356 OA
HETATM   50  H   UNL     1      79.131  91.843 108.996  1.00  0.00     0.218 HD
ENDBRANCH  44  49
BRANCH  45  51
HETATM   51  O   UNL     1      80.489  91.170 110.594  1.00  0.00    -0.358 OA
HETATM   52  H   UNL     1      81.125  90.813 111.246  1.00  0.00     0.217 HD
ENDBRANCH  45  51
ENDBRANCH  39  41
ENDBRANCH  38  39
ENDBRANCH   6  38
BRANCH   2  53
HETATM   53  O   UNL     1      86.137  91.419 116.223  1.00  0.00    -0.306 OA
BRANCH  53  54
HETATM   54  C   UNL     1      87.052  91.825 117.125  1.00  0.00     0.294 C 
HETATM   55  O   UNL     1      88.224  92.072 116.880  1.00  0.00    -0.259 OA
BRANCH  54  56
HETATM   56  C   UNL     1      86.462  91.883 118.478  1.00  0.00     0.045 A 
HETATM   57  C   UNL     1      86.028  93.127 118.957  1.00  0.00     0.057 A 
HETATM   58  C   UNL     1      85.403  93.215 120.193  1.00  0.00     0.102 A 
HETATM   59  C   UNL     1      85.173  92.065 120.934  1.00  0.00     0.132 A 
HETATM   60  C   UNL     1      85.595  90.829 120.454  1.00  0.00     0.102 A 
HETATM   61  C   UNL     1      86.261  90.724 119.238  1.00  0.00     0.057 A 
BRANCH  58  62
HETATM   62  O   UNL     1      84.987  94.412 120.704  1.00  0.00    -0.358 OA
HETATM   63  H   UNL     1      85.043  95.083 119.999  1.00  0.00     0.217 HD
ENDBRANCH  58  62
BRANCH  59  64
HETATM   64  O   UNL     1      84.519  92.133 122.132  1.00  0.00    -0.356 OA
HETATM   65  H   UNL     1      84.631  93.064 122.417  1.00  0.00     0.218 HD
ENDBRANCH  59  64
BRANCH  60  66
HETATM   66  O   UNL     1      85.330  89.698 121.170  1.00  0.00    -0.358 OA
HETATM   67  H   UNL     1      86.201  89.264 121.278  1.00  0.00     0.217 HD
ENDBRANCH  60  66
ENDBRANCH  54  56
ENDBRANCH  53  54
ENDBRANCH   2  53
BRANCH   4  68
HETATM   68  O   UNL     1      84.470  93.776 115.655  1.00  0.00    -0.304 OA
BRANCH  68  69
HETATM   69  C   UNL     1      83.261  93.723 116.293  1.00  0.00     0.294 C 
HETATM   70  O   UNL     1      82.712  94.725 116.721  1.00  0.00    -0.259 OA
BRANCH  69  71
HETATM   71  C   UNL     1      82.708  92.373 116.545  1.00  0.00     0.045 A 
HETATM   72  C   UNL     1      83.305  91.512 117.479  1.00  0.00     0.057 A 
HETATM   73  C   UNL     1      82.663  90.318 117.794  1.00  0.00     0.102 A 
HETATM   74  C   UNL     1      81.468  89.976 117.168  1.00  0.00     0.132 A 
HETATM   75  C   UNL     1      80.931  90.798 116.188  1.00  0.00     0.102 A 
HETATM   76  C   UNL     1      81.550  91.995 115.855  1.00  0.00     0.057 A 
BRANCH  73  77
HETATM   77  O   UNL     1      83.156  89.449 118.728  1.00  0.00    -0.358 OA
HETATM   78  H   UNL     1      84.073  89.707 118.937  1.00  0.00     0.217 HD
ENDBRANCH  73  77
BRANCH  74  79
HETATM   79  O   UNL     1      80.800  88.831 117.508  1.00  0.00    -0.356 OA
HETATM   80  H   UNL     1      79.878  89.125 117.662  1.00  0.00     0.218 HD
ENDBRANCH  74  79
BRANCH  75  81
HETATM   81  O   UNL     1      79.767  90.441 115.567  1.00  0.00    -0.358 OA
HETATM   82  H   UNL     1      79.659  89.491 115.787  1.00  0.00     0.217 HD
ENDBRANCH  75  81
ENDBRANCH  69  71
ENDBRANCH  68  69
ENDBRANCH   4  68
TORSDOF 31
ENDMDL
MODEL 8
REMARK VINA RESULT:   -11.150      1.104      6.871
REMARK INTER + INTRA:         -31.416
REMARK INTER:                 -25.628
REMARK INTRA:                  -5.788
REMARK UNBOUND:                -4.948
REMARK  31 active torsions:
REMARK  status: ('A' for Active; 'I' for Inactive)
REMARK    1  A    between atoms: O_2  and  C_27 
REMARK    2  A    between atoms: O_2  and  C_33 
REMARK    3  A    between atoms: O_3  and  C_34 
REMARK    4  A    between atoms: O_3  and  C_28 
REMARK    5  A    between atoms: O_4  and  C_35 
REMARK    6  A    between atoms: O_4  and  C_29 
REMARK    7  A    between atoms: O_5  and  C_36 
REMARK    8  A    between atoms: O_5  and  C_31 
REMARK    9  A    between atoms: O_6  and  C_32 
REMARK   10  A    between atoms: O_6  and  C_39 
REMARK   11  A    between atoms: O_12  and  C_51 
REMARK   12  A    between atoms: O_13  and  C_52 
REMARK   13  A    between atoms: O_14  and  C_53 
REMARK   14  A    between atoms: O_15  and  C_54 
REMARK   15  A    between atoms: O_16  and  C_55 
REMARK   16  A    between atoms: O_17  and  C_56 
REMARK   17  A    between atoms: O_18  and  C_59 
REMARK   18  A    between atoms: O_19  and  C_60 
REMARK   19  A    between atoms: O_20  and  C_61 
REMARK   20  A    between atoms: O_21  and  C_62 
REMARK   21  A    between atoms: O_22  and  C_63 
REMARK   22  A    between atoms: O_23  and  C_64 
REMARK   23  A    between atoms: O_24  and  C_65 
REMARK   24  A    between atoms: O_25  and  C_66 
REMARK   25  A    between atoms: O_26  and  C_67 
REMARK   26  A    between atoms: C_30  and  C_32 
REMARK   27  A    between atoms: C_33  and  C_37 
REMARK   28  A    between atoms: C_34  and  C_38 
REMARK   29  A    between atoms: C_35  and  C_40 
REMARK   30  A    between atoms: C_36  and  C_41 
REMARK   31  A    between atoms: C_39  and  C_42 
ROOT
HETATM    1  O   UNL     1      81.919  91.781 113.259  1.00  0.00    -0.348 OA
HETATM    2  C   UNL     1      83.446  89.406 113.816  1.00  0.00     0.198 C 
HETATM    3  C   UNL     1      82.986  90.367 114.936  1.00  0.00     0.195 C 
HETATM    4  C   UNL     1      83.659  90.241 112.527  1.00  0.00     0.220 C 
HETATM    5  C   UNL     1      81.682  91.065 114.480  1.00  0.00     0.181 C 
HETATM    6  C   UNL     1      82.308  90.922 112.187  1.00  0.00     0.302 C 
ENDROOT
BRANCH   5   7
HETATM    7  C   UNL     1      81.156  92.028 115.558  1.00  0.00     0.213 C 
BRANCH   7   8
HETATM    8  O   UNL     1      79.723  91.978 115.655  1.00  0.00    -0.315 OA
BRANCH   8   9
HETATM    9  C   UNL     1      79.081  93.014 115.051  1.00  0.00     0.293 C 
HETATM   10  O   UNL     1      79.340  94.199 115.172  1.00  0.00    -0.259 OA
BRANCH   9  11
HETATM   11  C   UNL     1      77.991  92.499 114.195  1.00  0.00     0.045 A 
HETATM   12  C   UNL     1      78.263  91.665 113.094  1.00  0.00     0.057 A 
HETATM   13  C   UNL     1      77.200  91.153 112.358  1.00  0.00     0.102 A 
HETATM   14  C   UNL     1      75.890  91.471 112.702  1.00  0.00     0.132 A 
HETATM   15  C   UNL     1      75.630  92.298 113.786  1.00  0.00     0.102 A 
HETATM   16  C   UNL     1      76.671  92.811 114.547  1.00  0.00     0.057 A 
BRANCH  13  17
HETATM   17  O   UNL     1      77.390  90.318 111.292  1.00  0.00    -0.358 OA
HETATM   18  H   UNL     1      77.167  89.409 111.561  1.00  0.00     0.217 HD
ENDBRANCH  13  17
BRANCH  14  19
HETATM   19  O   UNL     1      74.840  90.965 111.986  1.00  0.00    -0.356 OA
HETATM   20  H   UNL     1      74.054  91.429 112.342  1.00  0.00     0.218 HD
ENDBRANCH  14  19
BRANCH  15  21
HETATM   21  O   UNL     1      74.344  92.607 114.121  1.00  0.00    -0.358 OA
HETATM   22  H   UNL     1      74.024  91.831 114.625  1.00  0.00     0.217 HD
ENDBRANCH  15  21
ENDBRANCH   9  11
ENDBRANCH   8   9
ENDBRANCH   7   8
ENDBRANCH   5   7
BRANCH   3  23
HETATM   23  O   UNL     1      82.732  89.666 116.172  1.00  0.00    -0.307 OA
BRANCH  23  24
HETATM   24  C   UNL     1      83.500  89.658 117.294  1.00  0.00     0.294 C 
HETATM   25  O   UNL     1      83.326  88.800 118.151  1.00  0.00    -0.259 OA
BRANCH  24  26
HETATM   26  C   UNL     1      84.610  90.626 117.468  1.00  0.00     0.045 A 
HETATM   27  C   UNL     1      84.426  91.895 118.037  1.00  0.00     0.057 A 
HETATM   28  C   UNL     1      85.492  92.789 118.076  1.00  0.00     0.102 A 
HETATM   29  C   UNL     1      86.752  92.392 117.648  1.00  0.00     0.132 A 
HETATM   30  C   UNL     1      86.955  91.102 117.180  1.00  0.00     0.102 A 
HETATM   31  C   UNL     1      85.895  90.209 117.089  1.00  0.00     0.057 A 
BRANCH  28  32
HETATM   32  O   UNL     1      85.343  94.075 118.513  1.00  0.00    -0.358 OA
HETATM   33  H   UNL     1      84.392  94.271 118.606  1.00  0.00     0.217 HD
ENDBRANCH  28  32
BRANCH  29  34
HETATM   34  O   UNL     1      87.804  93.264 117.682  1.00  0.00    -0.356 OA
HETATM   35  H   UNL     1      87.557  93.913 118.374  1.00  0.00     0.218 HD
ENDBRANCH  29  34
BRANCH  30  36
HETATM   36  O   UNL     1      88.200  90.706 116.787  1.00  0.00    -0.358 OA
HETATM   37  H   UNL     1      88.065  90.288 115.913  1.00  0.00     0.217 HD
ENDBRANCH  30  36
ENDBRANCH  24  26
ENDBRANCH  23  24
ENDBRANCH   3  23
BRANCH   6  38
HETATM   38  O   UNL     1      82.493  91.704 110.993  1.00  0.00    -0.283 OA
BRANCH  38  39
HETATM   39  C   UNL     1      82.791  93.021 110.901  1.00  0.00     0.295 C 
HETATM   40  O   UNL     1      83.898  93.426 111.240  1.00  0.00    -0.259 OA
BRANCH  39  41
HETATM   41  C   UNL     1      81.755  94.000 110.505  1.00  0.00     0.045 A 
HETATM   42  C   UNL     1      82.054  95.345 110.231  1.00  0.00     0.057 A 
HETATM   43  C   UNL     1      81.035  96.187 109.794  1.00  0.00     0.102 A 
HETATM   44  C   UNL     1      79.724  95.726 109.728  1.00  0.00     0.132 A 
HETATM   45  C   UNL     1      79.420  94.424 110.098  1.00  0.00     0.102 A 
HETATM   46  C   UNL     1      80.427  93.549 110.478  1.00  0.00     0.057 A 
BRANCH  43  47
HETATM   47  O   UNL     1      81.271  97.476 109.404  1.00  0.00    -0.358 OA
HETATM   48  H   UNL     1      82.231  97.641 109.409  1.00  0.00     0.217 HD
ENDBRANCH  43  47
BRANCH  44  49
HETATM   49  O   UNL     1      78.715  96.549 109.306  1.00  0.00    -0.356 OA
HETATM   50  H   UNL     1      77.894  96.108 109.605  1.00  0.00     0.218 HD
ENDBRANCH  44  49
BRANCH  45  51
HETATM   51  O   UNL     1      78.126  93.992 110.087  1.00  0.00    -0.358 OA
HETATM   52  H   UNL     1      78.161  93.077 110.429  1.00  0.00     0.217 HD
ENDBRANCH  45  51
ENDBRANCH  39  41
ENDBRANCH  38  39
ENDBRANCH   6  38
BRANCH   2  53
HETATM   53  O   UNL     1      84.574  88.577 114.204  1.00  0.00    -0.306 OA
BRANCH  53  54
HETATM   54  C   UNL     1      84.440  87.236 114.203  1.00  0.00     0.294 C 
HETATM   55  O   UNL     1      83.583  86.614 113.592  1.00  0.00    -0.259 OA
BRANCH  54  56
HETATM   56  C   UNL     1      85.442  86.610 115.089  1.00  0.00     0.045 A 
HETATM   57  C   UNL     1      85.028  86.192 116.362  1.00  0.00     0.057 A 
HETATM   58  C   UNL     1      85.919  85.535 117.199  1.00  0.00     0.102 A 
HETATM   59  C   UNL     1      87.205  85.258 116.758  1.00  0.00     0.132 A 
HETATM   60  C   UNL     1      87.612  85.664 115.491  1.00  0.00     0.102 A 
HETATM   61  C   UNL     1      86.749  86.361 114.653  1.00  0.00     0.057 A 
BRANCH  58  62
HETATM   62  O   UNL     1      85.562  85.133 118.455  1.00  0.00    -0.358 OA
HETATM   63  H   UNL     1      84.796  85.664 118.741  1.00  0.00     0.217 HD
ENDBRANCH  58  62
BRANCH  59  64
HETATM   64  O   UNL     1      88.078  84.572 117.556  1.00  0.00    -0.356 OA
HETATM   65  H   UNL     1      88.591  85.272 118.011  1.00  0.00     0.218 HD
ENDBRANCH  59  64
BRANCH  60  66
HETATM   66  O   UNL     1      88.865  85.352 115.050  1.00  0.00    -0.358 OA
HETATM   67  H   UNL     1      89.182  84.663 115.671  1.00  0.00     0.217 HD
ENDBRANCH  60  66
ENDBRANCH  54  56
ENDBRANCH  53  54
ENDBRANCH   2  53
BRANCH   4  68
HETATM   68  O   UNL     1      84.083  89.404 111.423  1.00  0.00    -0.304 OA
BRANCH  68  69
HETATM   69  C   UNL     1      85.341  89.542 110.902  1.00  0.00     0.294 C 
HETATM   70  O   UNL     1      85.689  90.555 110.317  1.00  0.00    -0.259 OA
BRANCH  69  71
HETATM   71  C   UNL     1      86.221  88.354 110.980  1.00  0.00     0.045 A 
HETATM   72  C   UNL     1      85.684  87.058 110.967  1.00  0.00     0.057 A 
HETATM   73  C   UNL     1      86.554  85.974 110.886  1.00  0.00     0.102 A 
HETATM   74  C   UNL     1      87.929  86.179 110.848  1.00  0.00     0.132 A 
HETATM   75  C   UNL     1      88.450  87.462 110.942  1.00  0.00     0.102 A 
HETATM   76  C   UNL     1      87.604  88.560 111.024  1.00  0.00     0.057 A 
BRANCH  73  77
HETATM   77  O   UNL     1      86.107  84.683 110.821  1.00  0.00    -0.358 OA
HETATM   78  H   UNL     1      85.194  84.654 111.163  1.00  0.00     0.217 HD
ENDBRANCH  73  77
BRANCH  74  79
HETATM   79  O   UNL     1      88.793  85.125 110.715  1.00  0.00    -0.356 OA
HETATM   80  H   UNL     1      89.204  85.259 109.836  1.00  0.00     0.218 HD
ENDBRANCH  74  79
BRANCH  75  81
HETATM   81  O   UNL     1      89.803  87.648 110.924  1.00  0.00    -0.358 OA
HETATM   82  H   UNL     1      89.916  88.557 110.573  1.00  0.00     0.217 HD
ENDBRANCH  75  81
ENDBRANCH  69  71
ENDBRANCH  68  69
ENDBRANCH   4  68
TORSDOF 31
ENDMDL
MODEL 9
REMARK VINA RESULT:   -11.118      2.141     10.271
REMARK INTER + INTRA:         -31.341
REMARK INTER:                 -24.508
REMARK INTRA:                  -6.834
REMARK UNBOUND:                -4.948
REMARK  31 active torsions:
REMARK  status: ('A' for Active; 'I' for Inactive)
REMARK    1  A    between atoms: O_2  and  C_27 
REMARK    2  A    between atoms: O_2  and  C_33 
REMARK    3  A    between atoms: O_3  and  C_34 
REMARK    4  A    between atoms: O_3  and  C_28 
REMARK    5  A    between atoms: O_4  and  C_35 
REMARK    6  A    between atoms: O_4  and  C_29 
REMARK    7  A    between atoms: O_5  and  C_36 
REMARK    8  A    between atoms: O_5  and  C_31 
REMARK    9  A    between atoms: O_6  and  C_32 
REMARK   10  A    between atoms: O_6  and  C_39 
REMARK   11  A    between atoms: O_12  and  C_51 
REMARK   12  A    between atoms: O_13  and  C_52 
REMARK   13  A    between atoms: O_14  and  C_53 
REMARK   14  A    between atoms: O_15  and  C_54 
REMARK   15  A    between atoms: O_16  and  C_55 
REMARK   16  A    between atoms: O_17  and  C_56 
REMARK   17  A    between atoms: O_18  and  C_59 
REMARK   18  A    between atoms: O_19  and  C_60 
REMARK   19  A    between atoms: O_20  and  C_61 
REMARK   20  A    between atoms: O_21  and  C_62 
REMARK   21  A    between atoms: O_22  and  C_63 
REMARK   22  A    between atoms: O_23  and  C_64 
REMARK   23  A    between atoms: O_24  and  C_65 
REMARK   24  A    between atoms: O_25  and  C_66 
REMARK   25  A    between atoms: O_26  and  C_67 
REMARK   26  A    between atoms: C_30  and  C_32 
REMARK   27  A    between atoms: C_33  and  C_37 
REMARK   28  A    between atoms: C_34  and  C_38 
REMARK   29  A    between atoms: C_35  and  C_40 
REMARK   30  A    between atoms: C_36  and  C_41 
REMARK   31  A    between atoms: C_39  and  C_42 
ROOT
HETATM    1  O   UNL     1      82.305  91.305 110.682  1.00  0.00    -0.348 OA
HETATM    2  C   UNL     1      82.027  91.834 113.497  1.00  0.00     0.198 C 
HETATM    3  C   UNL     1      83.198  91.000 112.932  1.00  0.00     0.195 C 
HETATM    4  C   UNL     1      80.800  91.627 112.571  1.00  0.00     0.220 C 
HETATM    5  C   UNL     1      83.484  91.470 111.485  1.00  0.00     0.181 C 
HETATM    6  C   UNL     1      81.210  92.092 111.150  1.00  0.00     0.302 C 
ENDROOT
BRANCH   5   7
HETATM    7  C   UNL     1      84.654  90.690 110.863  1.00  0.00     0.213 C 
BRANCH   7   8
HETATM    8  O   UNL     1      84.469  89.271 110.992  1.00  0.00    -0.315 OA
BRANCH   8   9
HETATM    9  C   UNL     1      85.613  88.542 110.889  1.00  0.00     0.293 C 
HETATM   10  O   UNL     1      86.128  88.139 109.860  1.00  0.00    -0.259 OA
BRANCH   9  11
HETATM   11  C   UNL     1      86.175  88.296 112.234  1.00  0.00     0.045 A 
HETATM   12  C   UNL     1      87.288  89.018 112.701  1.00  0.00     0.057 A 
HETATM   13  C   UNL     1      87.740  88.797 113.998  1.00  0.00     0.102 A 
HETATM   14  C   UNL     1      87.103  87.867 114.814  1.00  0.00     0.132 A 
HETATM   15  C   UNL     1      86.008  87.154 114.344  1.00  0.00     0.102 A 
HETATM   16  C   UNL     1      85.528  87.366 113.060  1.00  0.00     0.057 A 
BRANCH  13  17
HETATM   17  O   UNL     1      88.800  89.481 114.525  1.00  0.00    -0.358 OA
HETATM   18  H   UNL     1      88.850  89.297 115.479  1.00  0.00     0.217 HD
ENDBRANCH  13  17
BRANCH  14  19
HETATM   19  O   UNL     1      87.538  87.649 116.092  1.00  0.00    -0.356 OA
HETATM   20  H   UNL     1      87.869  86.728 116.085  1.00  0.00     0.218 HD
ENDBRANCH  14  19
BRANCH  15  21
HETATM   21  O   UNL     1      85.386  86.244 115.148  1.00  0.00    -0.358 OA
HETATM   22  H   UNL     1      85.370  86.662 116.033  1.00  0.00     0.217 HD
ENDBRANCH  15  21
ENDBRANCH   9  11
ENDBRANCH   8   9
ENDBRANCH   7   8
ENDBRANCH   5   7
BRANCH   3  23
HETATM   23  O   UNL     1      84.398  91.158 113.719  1.00  0.00    -0.307 OA
BRANCH  23  24
HETATM   24  C   UNL     1      84.951  92.317 114.165  1.00  0.00     0.294 C 
HETATM   25  O   UNL     1      84.864  93.338 113.491  1.00  0.00    -0.259 OA
BRANCH  24  26
HETATM   26  C   UNL     1      85.595  92.395 115.498  1.00  0.00     0.045 A 
HETATM   27  C   UNL     1      85.391  93.471 116.376  1.00  0.00     0.057 A 
HETATM   28  C   UNL     1      86.106  93.525 117.569  1.00  0.00     0.102 A 
HETATM   29  C   UNL     1      86.939  92.475 117.932  1.00  0.00     0.132 A 
HETATM   30  C   UNL     1      87.062  91.365 117.110  1.00  0.00     0.102 A 
HETATM   31  C   UNL     1      86.392  91.310 115.894  1.00  0.00     0.057 A 
BRANCH  28  32
HETATM   32  O   UNL     1      86.034  94.602 118.407  1.00  0.00    -0.358 OA
HETATM   33  H   UNL     1      85.337  94.441 119.071  1.00  0.00     0.217 HD
ENDBRANCH  28  32
BRANCH  29  34
HETATM   34  O   UNL     1      87.646  92.522 119.102  1.00  0.00    -0.356 OA
HETATM   35  H   UNL     1      87.323  93.333 119.547  1.00  0.00     0.218 HD
ENDBRANCH  29  34
BRANCH  30  36
HETATM   36  O   UNL     1      87.858  90.323 117.484  1.00  0.00    -0.358 OA
HETATM   37  H   UNL     1      88.772  90.660 117.392  1.00  0.00     0.217 HD
ENDBRANCH  30  36
ENDBRANCH  24  26
ENDBRANCH  23  24
ENDBRANCH   3  23
BRANCH   6  38
HETATM   38  O   UNL     1      80.081  91.902 110.278  1.00  0.00    -0.283 OA
BRANCH  38  39
HETATM   39  C   UNL     1      79.520  92.804 109.438  1.00  0.00     0.295 C 
HETATM   40  O   UNL     1      78.827  92.425 108.501  1.00  0.00    -0.259 OA
BRANCH  39  41
HETATM   41  C   UNL     1      79.832  94.245 109.567  1.00  0.00     0.045 A 
HETATM   42  C   UNL     1      81.058  94.710 110.070  1.00  0.00     0.057 A 
HETATM   43  C   UNL     1      81.302  96.080 110.092  1.00  0.00     0.102 A 
HETATM   44  C   UNL     1      80.307  96.976 109.714  1.00  0.00     0.132 A 
HETATM   45  C   UNL     1      79.062  96.513 109.314  1.00  0.00     0.102 A 
HETATM   46  C   UNL     1      78.815  95.151 109.227  1.00  0.00     0.057 A 
BRANCH  43  47
HETATM   47  O   UNL     1      82.511  96.600 110.463  1.00  0.00    -0.358 OA
HETATM   48  H   UNL     1      82.600  97.497 110.096  1.00  0.00     0.217 HD
ENDBRANCH  43  47
BRANCH  44  49
HETATM   49  O   UNL     1      80.536  98.326 109.738  1.00  0.00    -0.356 OA
HETATM   50  H   UNL     1      80.102  98.636 110.559  1.00  0.00     0.218 HD
ENDBRANCH  44  49
BRANCH  45  51
HETATM   51  O   UNL     1      78.070  97.395 109.000  1.00  0.00    -0.358 OA
HETATM   52  H   UNL     1      77.260  97.020 109.401  1.00  0.00     0.217 HD
ENDBRANCH  45  51
ENDBRANCH  39  41
ENDBRANCH  38  39
ENDBRANCH   6  38
BRANCH   2  53
HETATM   53  O   UNL     1      81.780  91.586 114.907  1.00  0.00    -0.306 OA
BRANCH  53  54
HETATM   54  C   UNL     1      81.744  90.316 115.359  1.00  0.00     0.294 C 
HETATM   55  O   UNL     1      80.985  89.446 114.956  1.00  0.00    -0.259 OA
BRANCH  54  56
HETATM   56  C   UNL     1      82.716  90.123 116.453  1.00  0.00     0.045 A 
HETATM   57  C   UNL     1      82.754  91.079 117.479  1.00  0.00     0.057 A 
HETATM   58  C   UNL     1      83.602  90.899 118.562  1.00  0.00     0.102 A 
HETATM   59  C   UNL     1      84.381  89.754 118.648  1.00  0.00     0.132 A 
HETATM   60  C   UNL     1      84.335  88.802 117.635  1.00  0.00     0.102 A 
HETATM   61  C   UNL     1      83.525  88.982 116.520  1.00  0.00     0.057 A 
BRANCH  58  62
HETATM   62  O   UNL     1      83.686  91.818 119.570  1.00  0.00    -0.358 OA
HETATM   63  H   UNL     1      83.134  92.586 119.331  1.00  0.00     0.217 HD
ENDBRANCH  58  62
BRANCH  59  64
HETATM   64  O   UNL     1      85.187  89.544 119.732  1.00  0.00    -0.356 OA
HETATM   65  H   UNL     1      84.933  88.654 120.054  1.00  0.00     0.218 HD
ENDBRANCH  59  64
BRANCH  60  66
HETATM   66  O   UNL     1      85.075  87.659 117.746  1.00  0.00    -0.358 OA
HETATM   67  H   UNL     1      84.643  87.026 117.136  1.00  0.00     0.217 HD
ENDBRANCH  60  66
ENDBRANCH  54  56
ENDBRANCH  53  54
ENDBRANCH   2  53
BRANCH   4  68
HETATM   68  O   UNL     1      79.659  92.390 113.033  1.00  0.00    -0.304 OA
BRANCH  68  69
HETATM   69  C   UNL     1      78.450  91.774 113.211  1.00  0.00     0.294 C 
HETATM   70  O   UNL     1      78.291  90.888 114.035  1.00  0.00    -0.259 OA
BRANCH  69  71
HETATM   71  C   UNL     1      77.372  92.154 112.270  1.00  0.00     0.045 A 
HETATM   72  C   UNL     1      76.870  93.464 112.240  1.00  0.00     0.057 A 
HETATM   73  C   UNL     1      75.970  93.813 111.237  1.00  0.00     0.102 A 
HETATM   74  C   UNL     1      75.558  92.868 110.303  1.00  0.00     0.132 A 
HETATM   75  C   UNL     1      76.001  91.556 110.391  1.00  0.00     0.102 A 
HETATM   76  C   UNL     1      76.899  91.181 111.382  1.00  0.00     0.057 A 
BRANCH  73  77
HETATM   77  O   UNL     1      75.472  95.080 111.113  1.00  0.00    -0.358 OA
HETATM   78  H   UNL     1      75.777  95.451 110.263  1.00  0.00     0.217 HD
ENDBRANCH  73  77
BRANCH  74  79
HETATM   79  O   UNL     1      74.715  93.212 109.281  1.00  0.00    -0.356 OA
HETATM   80  H   UNL     1      75.233  93.846 108.743  1.00  0.00     0.218 HD
ENDBRANCH  74  79
BRANCH  75  81
HETATM   81  O   UNL     1      75.573  90.633 109.479  1.00  0.00    -0.358 OA
HETATM   82  H   UNL     1      76.372  90.097 109.287  1.00  0.00     0.217 HD
ENDBRANCH  75  81
ENDBRANCH  69  71
ENDBRANCH  68  69
ENDBRANCH   4  68
TORSDOF 31
ENDMDL
MODEL 10
REMARK VINA RESULT:   -11.114      1.603      9.827
REMARK INTER + INTRA:         -31.330
REMARK INTER:                 -25.392
REMARK INTRA:                  -5.938
REMARK UNBOUND:                -4.948
REMARK  31 active torsions:
REMARK  status: ('A' for Active; 'I' for Inactive)
REMARK    1  A    between atoms: O_2  and  C_27 
REMARK    2  A    between atoms: O_2  and  C_33 
REMARK    3  A    between atoms: O_3  and  C_34 
REMARK    4  A    between atoms: O_3  and  C_28 
REMARK    5  A    between atoms: O_4  and  C_35 
REMARK    6  A    between atoms: O_4  and  C_29 
REMARK    7  A    between atoms: O_5  and  C_36 
REMARK    8  A    between atoms: O_5  and  C_31 
REMARK    9  A    between atoms: O_6  and  C_32 
REMARK   10  A    between atoms: O_6  and  C_39 
REMARK   11  A    between atoms: O_12  and  C_51 
REMARK   12  A    between atoms: O_13  and  C_52 
REMARK   13  A    between atoms: O_14  and  C_53 
REMARK   14  A    between atoms: O_15  and  C_54 
REMARK   15  A    between atoms: O_16  and  C_55 
REMARK   16  A    between atoms: O_17  and  C_56 
REMARK   17  A    between atoms: O_18  and  C_59 
REMARK   18  A    between atoms: O_19  and  C_60 
REMARK   19  A    between atoms: O_20  and  C_61 
REMARK   20  A    between atoms: O_21  and  C_62 
REMARK   21  A    between atoms: O_22  and  C_63 
REMARK   22  A    between atoms: O_23  and  C_64 
REMARK   23  A    between atoms: O_24  and  C_65 
REMARK   24  A    between atoms: O_25  and  C_66 
REMARK   25  A    between atoms: O_26  and  C_67 
REMARK   26  A    between atoms: C_30  and  C_32 
REMARK   27  A    between atoms: C_33  and  C_37 
REMARK   28  A    between atoms: C_34  and  C_38 
REMARK   29  A    between atoms: C_35  and  C_40 
REMARK   30  A    between atoms: C_36  and  C_41 
REMARK   31  A    between atoms: C_39  and  C_42 
ROOT
HETATM    1  O   UNL     1      81.348  93.703 115.400  1.00  0.00    -0.348 OA
HETATM    2  C   UNL     1      82.551  91.548 113.921  1.00  0.00     0.198 C 
HETATM    3  C   UNL     1      83.316  92.311 115.025  1.00  0.00     0.195 C 
HETATM    4  C   UNL     1      81.538  92.528 113.274  1.00  0.00     0.220 C 
HETATM    5  C   UNL     1      82.291  92.843 116.056  1.00  0.00     0.181 C 
HETATM    6  C   UNL     1      80.592  93.024 114.397  1.00  0.00     0.302 C 
ENDROOT
BRANCH   5   7
HETATM    7  C   UNL     1      82.987  93.603 117.197  1.00  0.00     0.213 C 
BRANCH   7   8
HETATM    8  O   UNL     1      83.516  92.702 118.185  1.00  0.00    -0.315 OA
BRANCH   8   9
HETATM    9  C   UNL     1      84.565  93.199 118.894  1.00  0.00     0.293 C 
HETATM   10  O   UNL     1      84.503  93.898 119.891  1.00  0.00    -0.259 OA
BRANCH   9  11
HETATM   11  C   UNL     1      85.838  92.763 118.280  1.00  0.00     0.045 A 
HETATM   12  C   UNL     1      86.447  91.550 118.651  1.00  0.00     0.057 A 
HETATM   13  C   UNL     1      87.608  91.151 117.999  1.00  0.00     0.102 A 
HETATM   14  C   UNL     1      88.162  91.949 117.002  1.00  0.00     0.132 A 
HETATM   15  C   UNL     1      87.559  93.148 116.645  1.00  0.00     0.102 A 
HETATM   16  C   UNL     1      86.391  93.562 117.270  1.00  0.00     0.057 A 
BRANCH  13  17
HETATM   17  O   UNL     1      88.238  89.974 118.291  1.00  0.00    -0.358 OA
HETATM   18  H   UNL     1      88.693  90.064 119.147  1.00  0.00     0.217 HD
ENDBRANCH  13  17
BRANCH  14  19
HETATM   19  O   UNL     1      89.301  91.560 116.353  1.00  0.00    -0.356 OA
HETATM   20  H   UNL     1      89.970  92.227 116.609  1.00  0.00     0.218 HD
ENDBRANCH  14  19
BRANCH  15  21
HETATM   21  O   UNL     1      88.105  93.926 115.667  1.00  0.00    -0.358 OA
HETATM   22  H   UNL     1      87.394  94.027 115.002  1.00  0.00     0.217 HD
ENDBRANCH  15  21
ENDBRANCH   9  11
ENDBRANCH   8   9
ENDBRANCH   7   8
ENDBRANCH   5   7
BRANCH   3  23
HETATM   23  O   UNL     1      84.264  91.462 115.706  1.00  0.00    -0.307 OA
BRANCH  23  24
HETATM   24  C   UNL     1      84.102  90.162 116.070  1.00  0.00     0.294 C 
HETATM   25  O   UNL     1      83.070  89.804 116.626  1.00  0.00    -0.259 OA
BRANCH  24  26
HETATM   26  C   UNL     1      85.122  89.140 115.732  1.00  0.00     0.045 A 
HETATM   27  C   UNL     1      84.888  87.763 115.867  1.00  0.00     0.057 A 
HETATM   28  C   UNL     1      85.925  86.867 115.627  1.00  0.00     0.102 A 
HETATM   29  C   UNL     1      87.151  87.325 115.162  1.00  0.00     0.132 A 
HETATM   30  C   UNL     1      87.349  88.678 114.933  1.00  0.00     0.102 A 
HETATM   31  C   UNL     1      86.342  89.594 115.209  1.00  0.00     0.057 A 
BRANCH  28  32
HETATM   32  O   UNL     1      85.789  85.525 115.852  1.00  0.00    -0.358 OA
HETATM   33  H   UNL     1      86.637  85.170 116.178  1.00  0.00     0.217 HD
ENDBRANCH  28  32
BRANCH  29  34
HETATM   34  O   UNL     1      88.176  86.450 114.927  1.00  0.00    -0.356 OA
HETATM   35  H   UNL     1      87.734  85.655 114.560  1.00  0.00     0.218 HD
ENDBRANCH  29  34
BRANCH  30  36
HETATM   36  O   UNL     1      88.544  89.121 114.450  1.00  0.00    -0.358 OA
HETATM   37  H   UNL     1      88.541  88.870 113.504  1.00  0.00     0.217 HD
ENDBRANCH  30  36
ENDBRANCH  24  26
ENDBRANCH  23  24
ENDBRANCH   3  23
BRANCH   6  38
HETATM   38  O   UNL     1      79.647  93.938 113.811  1.00  0.00    -0.283 OA
BRANCH  38  39
HETATM   39  C   UNL     1      78.340  94.095 114.126  1.00  0.00     0.295 C 
HETATM   40  O   UNL     1      78.011  94.865 115.021  1.00  0.00    -0.259 OA
BRANCH  39  41
HETATM   41  C   UNL     1      77.306  93.258 113.479  1.00  0.00     0.045 A 
HETATM   42  C   UNL     1      77.582  92.439 112.371  1.00  0.00     0.057 A 
HETATM   43  C   UNL     1      76.572  91.626 111.865  1.00  0.00     0.102 A 
HETATM   44  C   UNL     1      75.284  91.700 112.386  1.00  0.00     0.132 A 
HETATM   45  C   UNL     1      74.994  92.585 113.415  1.00  0.00     0.102 A 
HETATM   46  C   UNL     1      75.998  93.361 113.976  1.00  0.00     0.057 A 
BRANCH  43  47
HETATM   47  O   UNL     1      76.795  90.726 110.861  1.00  0.00    -0.358 OA
HETATM   48  H   UNL     1      76.362  89.882 111.086  1.00  0.00     0.217 HD
ENDBRANCH  43  47
BRANCH  44  49
HETATM   49  O   UNL     1      74.283  90.908 111.891  1.00  0.00    -0.356 OA
HETATM   50  H   UNL     1      73.755  91.504 111.321  1.00  0.00     0.218 HD
ENDBRANCH  44  49
BRANCH  45  51
HETATM   51  O   UNL     1      73.719  92.696 113.885  1.00  0.00    -0.358 OA
HETATM   52  H   UNL     1      73.148  92.441 113.134  1.00  0.00     0.217 HD
ENDBRANCH  45  51
ENDBRANCH  39  41
ENDBRANCH  38  39
ENDBRANCH   6  38
BRANCH   2  53
HETATM   53  O   UNL     1      83.430  90.867 112.985  1.00  0.00    -0.306 OA
BRANCH  53  54
HETATM   54  C   UNL     1      83.223  89.563 112.713  1.00  0.00     0.294 C 
HETATM   55  O   UNL     1      82.189  88.951 112.940  1.00  0.00    -0.259 OA
BRANCH  54  56
HETATM   56  C   UNL     1      84.441  88.948 112.147  1.00  0.00     0.045 A 
HETATM   57  C   UNL     1      85.398  89.792 111.566  1.00  0.00     0.057 A 
HETATM   58  C   UNL     1      86.588  89.263 111.087  1.00  0.00     0.102 A 
HETATM   59  C   UNL     1      86.844  87.907 111.220  1.00  0.00     0.132 A 
HETATM   60  C   UNL     1      85.898  87.071 111.805  1.00  0.00     0.102 A 
HETATM   61  C   UNL     1      84.682  87.573 112.254  1.00  0.00     0.057 A 
BRANCH  58  62
HETATM   62  O   UNL     1      87.536  90.048 110.493  1.00  0.00    -0.358 OA
HETATM   63  H   UNL     1      88.415  89.704 110.736  1.00  0.00     0.217 HD
ENDBRANCH  58  62
BRANCH  59  64
HETATM   64  O   UNL     1      88.032  87.381 110.792  1.00  0.00    -0.356 OA
HETATM   65  H   UNL     1      88.473  88.124 110.330  1.00  0.00     0.218 HD
ENDBRANCH  59  64
BRANCH  60  66
HETATM   66  O   UNL     1      86.175  85.744 111.968  1.00  0.00    -0.358 OA
HETATM   67  H   UNL     1      86.653  85.695 112.822  1.00  0.00     0.217 HD
ENDBRANCH  60  66
ENDBRANCH  54  56
ENDBRANCH  53  54
ENDBRANCH   2  53
BRANCH   4  68
HETATM   68  O   UNL     1      80.772  91.878 112.231  1.00  0.00    -0.304 OA
BRANCH  68  69
HETATM   69  C   UNL     1      81.083  92.095 110.916  1.00  0.00     0.294 C 
HETATM   70  O   UNL     1      81.487  91.200 110.192  1.00  0.00    -0.259 OA
BRANCH  69  71
HETATM   71  C   UNL     1      81.018  93.498 110.447  1.00  0.00     0.045 A 
HETATM   72  C   UNL     1      79.890  93.977 109.764  1.00  0.00     0.057 A 
HETATM   73  C   UNL     1      79.808  95.338 109.479  1.00  0.00     0.102 A 
HETATM   74  C   UNL     1      80.842  96.194 109.842  1.00  0.00     0.132 A 
HETATM   75  C   UNL     1      81.988  95.694 110.446  1.00  0.00     0.102 A 
HETATM   76  C   UNL     1      82.094  94.342 110.741  1.00  0.00     0.057 A 
BRANCH  73  77
HETATM   77  O   UNL     1      78.721  95.889 108.859  1.00  0.00    -0.358 OA
HETATM   78  H   UNL     1      78.726  96.850 109.024  1.00  0.00     0.217 HD
ENDBRANCH  73  77
BRANCH  74  79
HETATM   79  O   UNL     1      80.751  97.541 109.616  1.00  0.00    -0.356 OA
HETATM   80  H   UNL     1      81.680  97.833 109.515  1.00  0.00     0.218 HD
ENDBRANCH  74  79
BRANCH  75  81
HETATM   81  O   UNL     1      83.004  96.544 110.779  1.00  0.00    -0.358 OA
HETATM   82  H   UNL     1      82.588  97.432 110.767  1.00  0.00     0.217 HD
ENDBRANCH  75  81
ENDBRANCH  69  71
ENDBRANCH  68  69
ENDBRANCH   4  68
TORSDOF 31
ENDMDL
