MODEL 1
REMARK VINA RESULT:   -10.459      0.000      0.000
REMARK INTER + INTRA:         -23.818
REMARK INTER:                 -18.713
REMARK INTRA:                  -5.105
REMARK UNBOUND:                -5.105
REMARK  16 active torsions:
REMARK  status: ('A' for Active; 'I' for Inactive)
REMARK    1  A    between atoms: C_2  and  O_4 
REMARK    2  A    between atoms: N_3  and  C_5 
REMARK    3  A    between atoms: O_4  and  O_22 
REMARK    4  A    between atoms: C_8  and  O_23 
REMARK    5  A    between atoms: C_9  and  O_22 
REMARK    6  A    between atoms: C_10  and  C_19 
REMARK    7  A    between atoms: C_13  and  C_24 
REMARK    8  A    between atoms: C_16  and  C_61 
REMARK    9  A    between atoms: C_17  and  O_25 
REMARK   10  A    between atoms: C_24  and  C_28 
REMARK   11  A    between atoms: C_41  and  C_45 
REMARK   12  A    between atoms: C_45  and  C_52 
REMARK   13  A    between atoms: O_46  and  C_53 
REMARK   14  A    between atoms: O_47  and  C_54 
REMARK   15  A    between atoms: C_50  and  C_55 
REMARK   16  A    between atoms: O_51  and  C_56 
ROOT
HETATM    1  C   UNL     1     179.037 178.570 171.957  1.00  0.00     0.088 C 
HETATM    2  C   UNL     1     180.372 178.275 172.228  1.00  0.00     0.019 C 
HETATM    3  C   UNL     1     181.408 179.032 171.634  1.00  0.00    -0.029 C 
HETATM    4  C   UNL     1     181.036 179.871 170.524  1.00  0.00    -0.014 C 
HETATM    5  C   UNL     1     179.668 180.218 170.291  1.00  0.00     0.022 C 
HETATM    6  C   UNL     1     178.646 179.539 171.035  1.00  0.00     0.013 C 
HETATM    7  C   UNL     1     181.966 180.331 169.563  1.00  0.00     0.020 C 
HETATM    8  C   UNL     1     181.652 181.185 168.489  1.00  0.00    -0.047 C 
HETATM    9  C   UNL     1     180.359 181.708 168.387  1.00  0.00     0.017 C 
HETATM   10  C   UNL     1     179.398 181.226 169.302  1.00  0.00     0.089 C 
HETATM   11  C   UNL     1     182.751 181.550 167.519  1.00  0.00     0.049 C 
ENDROOT
BRANCH   9  12
HETATM   12  C   UNL     1     180.013 182.701 167.339  1.00  0.00     0.017 A 
HETATM   13  C   UNL     1     180.103 184.095 167.583  1.00  0.00     0.089 A 
HETATM   14  C   UNL     1     179.803 185.105 166.605  1.00  0.00     0.022 A 
HETATM   15  C   UNL     1     180.007 186.516 166.797  1.00  0.00     0.015 A 
HETATM   16  C   UNL     1     179.270 184.661 165.355  1.00  0.00    -0.012 A 
HETATM   17  C   UNL     1     179.673 187.402 165.772  1.00  0.00     0.110 A 
HETATM   18  C   UNL     1     179.076 186.965 164.599  1.00  0.00     0.107 A 
HETATM   19  C   UNL     1     178.825 185.608 164.370  1.00  0.00    -0.007 A 
HETATM   20  C   UNL     1     179.221 183.264 165.124  1.00  0.00     0.020 A 
HETATM   21  C   UNL     1     179.613 182.293 166.060  1.00  0.00    -0.047 A 
HETATM   22  C   UNL     1     179.543 180.844 165.650  1.00  0.00     0.049 C 
BRANCH  13  23
HETATM   23  O   UNL     1     180.512 184.507 168.836  1.00  0.00    -0.359 OA
HETATM   24  H   UNL     1     181.359 184.977 168.771  1.00  0.00     0.217 HD
ENDBRANCH  13  23
BRANCH  15  25
HETATM   25  C   UNL     1     180.544 187.057 168.067  1.00  0.00     0.038 C 
BRANCH  25  26
HETATM   26  C   UNL     1     179.930 187.853 168.966  1.00  0.00     0.101 C 
HETATM   27  C   UNL     1     178.847 187.405 169.871  1.00  0.00     0.265 C 
HETATM   28  O   UNL     1     178.674 186.235 170.194  1.00  0.00    -0.267 OA
HETATM   29  N   UNL     1     178.096 188.408 170.414  1.00  0.00    -0.275 N 
HETATM   30  C   UNL     1     178.454 189.718 170.478  1.00  0.00     0.329 C 
HETATM   31  H   UNL     1     177.340 188.130 171.027  1.00  0.00     0.173 HD
HETATM   32  O   UNL     1     177.781 190.541 171.090  1.00  0.00    -0.246 OA
HETATM   33  N   UNL     1     179.596 190.074 169.828  1.00  0.00    -0.275 N 
HETATM   34  C   UNL     1     180.332 189.283 168.991  1.00  0.00     0.265 C 
HETATM   35  H   UNL     1     179.839 191.054 169.856  1.00  0.00     0.173 HD
HETATM   36  O   UNL     1     181.211 189.761 168.281  1.00  0.00    -0.267 OA
ENDBRANCH  25  26
ENDBRANCH  15  25
BRANCH  17  37
HETATM   37  O   UNL     1     179.980 188.739 165.841  1.00  0.00    -0.357 OA
HETATM   38  H   UNL     1     180.748 188.826 165.232  1.00  0.00     0.217 HD
ENDBRANCH  17  37
BRANCH  18  39
HETATM   39  O   UNL     1     178.781 187.908 163.654  1.00  0.00    -0.357 OA
HETATM   40  H   UNL     1     177.954 187.604 163.228  1.00  0.00     0.217 HD
ENDBRANCH  18  39
BRANCH  19  41
HETATM   41  C   UNL     1     178.111 185.174 163.082  1.00  0.00     0.014 C 
HETATM   42  C   UNL     1     179.045 184.647 161.980  1.00  0.00     0.015 C 
HETATM   43  C   UNL     1     176.990 184.177 163.380  1.00  0.00     0.015 C 
ENDBRANCH  19  41
ENDBRANCH   9  12
BRANCH  10  44
HETATM   44  O   UNL     1     178.130 181.774 169.293  1.00  0.00    -0.359 OA
HETATM   45  H   UNL     1     178.152 182.702 169.597  1.00  0.00     0.217 HD
ENDBRANCH  10  44
BRANCH   6  46
HETATM   46  C   UNL     1     177.217 179.679 170.654  1.00  0.00     0.038 C 
BRANCH  46  47
HETATM   47  C   UNL     1     176.370 178.779 170.112  1.00  0.00     0.101 C 
HETATM   48  C   UNL     1     176.478 178.525 168.652  1.00  0.00     0.265 C 
HETATM   49  N   UNL     1     175.448 177.807 168.117  1.00  0.00    -0.275 N 
HETATM   50  O   UNL     1     177.437 178.897 167.988  1.00  0.00    -0.267 OA
HETATM   51  C   UNL     1     174.425 177.225 168.802  1.00  0.00     0.329 C 
HETATM   52  H   UNL     1     175.510 177.583 167.131  1.00  0.00     0.173 HD
HETATM   53  N   UNL     1     174.346 177.492 170.137  1.00  0.00    -0.275 N 
HETATM   54  O   UNL     1     173.650 176.441 168.268  1.00  0.00    -0.246 OA
HETATM   55  C   UNL     1     175.339 178.054 170.880  1.00  0.00     0.265 C 
HETATM   56  H   UNL     1     173.641 176.950 170.622  1.00  0.00     0.173 HD
HETATM   57  O   UNL     1     175.471 177.861 172.089  1.00  0.00    -0.267 OA
ENDBRANCH  46  47
ENDBRANCH   6  46
BRANCH   3  58
HETATM   58  C   UNL     1     182.780 179.110 172.354  1.00  0.00     0.012 C 
HETATM   59  C   UNL     1     184.066 178.552 171.729  1.00  0.00     0.015 C 
HETATM   60  C   UNL     1     183.086 180.592 172.682  1.00  0.00     0.015 C 
ENDBRANCH   3  58
BRANCH   1  61
HETATM   61  O   UNL     1     178.168 177.812 172.715  1.00  0.00    -0.359 OA
HETATM   62  H   UNL     1     178.688 177.459 173.485  1.00  0.00     0.217 HD
ENDBRANCH   1  61
BRANCH   2  63
HETATM   63  O   UNL     1     180.482 177.169 173.054  1.00  0.00     0.000 OA
HETATM   64  H   UNL     1     181.310 177.248 173.622  1.00  0.00     0.000 HD
BRANCH  63  65
HETATM   65  O   UNL     1     180.084 175.901 172.595  1.00  0.00    -0.177 OA
BRANCH  65  66
HETATM   66  C   UNL     1     180.860 175.360 171.714  1.00  0.00     0.153 C 
HETATM   67  N   UNL     1     180.312 174.776 170.615  1.00  0.00    -0.359 N 
HETATM   68  C   UNL     1     181.336 174.098 169.841  1.00  0.00     0.125 C 
HETATM   69  C   UNL     1     182.625 174.771 170.295  1.00  0.00     0.028 C 
HETATM   70  C   UNL     1     182.346 175.208 171.730  1.00  0.00     0.088 C 
BRANCH  67  71
HETATM   71  C   UNL     1     178.879 174.639 170.329  1.00  0.00     0.077 C 
HETATM   72  C   UNL     1     178.367 175.810 169.493  1.00  0.00     0.032 C 
HETATM   73  C   UNL     1     178.556 173.302 169.665  1.00  0.00     0.032 C 
ENDBRANCH  67  71
ENDBRANCH  65  66
ENDBRANCH  63  65
ENDBRANCH   2  63
TORSDOF 16
ENDMDL
MODEL 2
REMARK VINA RESULT:   -10.355      0.801      1.637
REMARK INTER + INTRA:         -23.633
REMARK INTER:                 -19.270
REMARK INTRA:                  -4.363
REMARK UNBOUND:                -5.105
REMARK  16 active torsions:
REMARK  status: ('A' for Active; 'I' for Inactive)
REMARK    1  A    between atoms: C_2  and  O_4 
REMARK    2  A    between atoms: N_3  and  C_5 
REMARK    3  A    between atoms: O_4  and  O_22 
REMARK    4  A    between atoms: C_8  and  O_23 
REMARK    5  A    between atoms: C_9  and  O_22 
REMARK    6  A    between atoms: C_10  and  C_19 
REMARK    7  A    between atoms: C_13  and  C_24 
REMARK    8  A    between atoms: C_16  and  C_61 
REMARK    9  A    between atoms: C_17  and  O_25 
REMARK   10  A    between atoms: C_24  and  C_28 
REMARK   11  A    between atoms: C_41  and  C_45 
REMARK   12  A    between atoms: C_45  and  C_52 
REMARK   13  A    between atoms: O_46  and  C_53 
REMARK   14  A    between atoms: O_47  and  C_54 
REMARK   15  A    between atoms: C_50  and  C_55 
REMARK   16  A    between atoms: O_51  and  C_56 
ROOT
HETATM    1  C   UNL     1     179.107 178.748 172.059  1.00  0.00     0.088 C 
HETATM    2  C   UNL     1     180.450 178.526 172.358  1.00  0.00     0.019 C 
HETATM    3  C   UNL     1     181.460 179.280 171.717  1.00  0.00    -0.029 C 
HETATM    4  C   UNL     1     181.065 180.022 170.548  1.00  0.00    -0.014 C 
HETATM    5  C   UNL     1     179.686 180.296 170.283  1.00  0.00     0.022 C 
HETATM    6  C   UNL     1     178.686 179.633 171.068  1.00  0.00     0.013 C 
HETATM    7  C   UNL     1     181.984 180.450 169.562  1.00  0.00     0.020 C 
HETATM    8  C   UNL     1     181.646 181.211 168.428  1.00  0.00    -0.047 C 
HETATM    9  C   UNL     1     180.334 181.673 168.282  1.00  0.00     0.017 C 
HETATM   10  C   UNL     1     179.386 181.220 169.223  1.00  0.00     0.089 C 
HETATM   11  C   UNL     1     182.738 181.550 167.440  1.00  0.00     0.049 C 
ENDROOT
BRANCH   9  12
HETATM   12  C   UNL     1     179.959 182.576 167.163  1.00  0.00     0.017 A 
HETATM   13  C   UNL     1     179.986 183.985 167.309  1.00  0.00     0.089 A 
HETATM   14  C   UNL     1     179.654 184.910 166.260  1.00  0.00     0.022 A 
HETATM   15  C   UNL     1     179.795 186.339 166.354  1.00  0.00     0.015 A 
HETATM   16  C   UNL     1     179.155 184.358 165.040  1.00  0.00    -0.012 A 
HETATM   17  C   UNL     1     179.435 187.135 165.267  1.00  0.00     0.110 A 
HETATM   18  C   UNL     1     178.872 186.592 164.122  1.00  0.00     0.107 A 
HETATM   19  C   UNL     1     178.682 185.213 163.986  1.00  0.00    -0.007 A 
HETATM   20  C   UNL     1     179.169 182.947 164.907  1.00  0.00     0.020 A 
HETATM   21  C   UNL     1     179.591 182.062 165.913  1.00  0.00    -0.047 A 
HETATM   22  C   UNL     1     179.589 180.586 165.605  1.00  0.00     0.049 C 
BRANCH  13  23
HETATM   23  O   UNL     1     180.363 184.501 168.533  1.00  0.00    -0.359 OA
HETATM   24  H   UNL     1     180.873 183.842 169.030  1.00  0.00     0.217 HD
ENDBRANCH  13  23
BRANCH  15  25
HETATM   25  C   UNL     1     180.294 186.990 167.588  1.00  0.00     0.038 C 
BRANCH  25  26
HETATM   26  C   UNL     1     179.682 187.917 168.352  1.00  0.00     0.101 C 
HETATM   27  C   UNL     1     180.100 189.336 168.435  1.00  0.00     0.265 C 
HETATM   28  O   UNL     1     180.743 189.905 167.560  1.00  0.00    -0.267 OA
HETATM   29  N   UNL     1     179.631 190.013 169.524  1.00  0.00    -0.275 N 
HETATM   30  C   UNL     1     178.586 189.628 170.305  1.00  0.00     0.329 C 
HETATM   31  H   UNL     1     179.911 190.981 169.613  1.00  0.00     0.173 HD
HETATM   32  O   UNL     1     178.146 190.351 171.193  1.00  0.00    -0.246 OA
HETATM   33  N   UNL     1     178.054 188.401 170.056  1.00  0.00    -0.275 N 
HETATM   34  C   UNL     1     178.559 187.455 169.210  1.00  0.00     0.265 C 
HETATM   35  H   UNL     1     177.298 188.111 170.660  1.00  0.00     0.173 HD
HETATM   36  O   UNL     1     178.137 186.304 169.224  1.00  0.00    -0.267 OA
ENDBRANCH  25  26
ENDBRANCH  15  25
BRANCH  17  37
HETATM   37  O   UNL     1     179.684 188.486 165.243  1.00  0.00    -0.357 OA
HETATM   38  H   UNL     1     180.647 188.535 165.045  1.00  0.00     0.217 HD
ENDBRANCH  17  37
BRANCH  18  39
HETATM   39  O   UNL     1     178.548 187.453 163.110  1.00  0.00    -0.357 OA
HETATM   40  H   UNL     1     179.390 187.876 162.847  1.00  0.00     0.217 HD
ENDBRANCH  18  39
BRANCH  19  41
HETATM   41  C   UNL     1     178.003 184.659 162.727  1.00  0.00     0.014 C 
HETATM   42  C   UNL     1     178.973 184.179 161.635  1.00  0.00     0.015 C 
HETATM   43  C   UNL     1     176.985 183.572 163.079  1.00  0.00     0.015 C 
ENDBRANCH  19  41
ENDBRANCH   9  12
BRANCH  10  44
HETATM   44  O   UNL     1     178.097 181.715 169.167  1.00  0.00    -0.359 OA
HETATM   45  H   UNL     1     177.586 181.440 169.953  1.00  0.00     0.217 HD
ENDBRANCH  10  44
BRANCH   6  46
HETATM   46  C   UNL     1     177.256 179.688 170.670  1.00  0.00     0.038 C 
BRANCH  46  47
HETATM   47  C   UNL     1     176.456 178.725 170.165  1.00  0.00     0.101 C 
HETATM   48  C   UNL     1     176.610 178.386 168.727  1.00  0.00     0.265 C 
HETATM   49  N   UNL     1     175.622 177.598 168.214  1.00  0.00    -0.275 N 
HETATM   50  O   UNL     1     177.573 178.752 168.064  1.00  0.00    -0.267 OA
HETATM   51  C   UNL     1     174.603 177.021 168.910  1.00  0.00     0.329 C 
HETATM   52  H   UNL     1     175.717 177.316 167.246  1.00  0.00     0.173 HD
HETATM   53  N   UNL     1     174.480 177.366 170.224  1.00  0.00    -0.275 N 
HETATM   54  O   UNL     1     173.871 176.177 168.408  1.00  0.00    -0.246 OA
HETATM   55  C   UNL     1     175.433 178.010 170.953  1.00  0.00     0.265 C 
HETATM   56  H   UNL     1     173.783 176.829 170.725  1.00  0.00     0.173 HD
HETATM   57  O   UNL     1     175.541 177.897 172.174  1.00  0.00    -0.267 OA
ENDBRANCH  46  47
ENDBRANCH   6  46
BRANCH   3  58
HETATM   58  C   UNL     1     182.822 179.464 172.437  1.00  0.00     0.012 C 
HETATM   59  C   UNL     1     184.148 179.012 171.810  1.00  0.00     0.015 C 
HETATM   60  C   UNL     1     183.010 180.963 172.772  1.00  0.00     0.015 C 
ENDBRANCH   3  58
BRANCH   1  61
HETATM   61  O   UNL     1     178.262 178.012 172.865  1.00  0.00    -0.359 OA
HETATM   62  H   UNL     1     178.420 177.054 172.651  1.00  0.00     0.217 HD
ENDBRANCH   1  61
BRANCH   2  63
HETATM   63  O   UNL     1     180.597 177.487 173.262  1.00  0.00     0.000 OA
HETATM   64  H   UNL     1     180.642 177.853 174.199  1.00  0.00     0.000 HD
BRANCH  63  65
HETATM   65  O   UNL     1     181.372 176.363 172.926  1.00  0.00    -0.177 OA
BRANCH  65  66
HETATM   66  C   UNL     1     180.722 175.250 172.828  1.00  0.00     0.153 C 
HETATM   67  N   UNL     1     181.011 174.400 171.807  1.00  0.00    -0.359 N 
HETATM   68  C   UNL     1     180.070 173.295 171.789  1.00  0.00     0.125 C 
HETATM   69  C   UNL     1     179.514 173.282 173.208  1.00  0.00     0.028 C 
HETATM   70  C   UNL     1     179.599 174.734 173.667  1.00  0.00     0.088 C 
BRANCH  67  71
HETATM   71  C   UNL     1     181.979 174.636 170.729  1.00  0.00     0.077 C 
HETATM   72  C   UNL     1     182.565 173.323 170.215  1.00  0.00     0.032 C 
HETATM   73  C   UNL     1     181.376 175.456 169.591  1.00  0.00     0.032 C 
ENDBRANCH  67  71
ENDBRANCH  65  66
ENDBRANCH  63  65
ENDBRANCH   2  63
TORSDOF 16
ENDMDL
MODEL 3
REMARK VINA RESULT:   -10.239      1.330      1.844
REMARK INTER + INTRA:         -23.425
REMARK INTER:                 -18.481
REMARK INTRA:                  -4.943
REMARK UNBOUND:                -5.105
REMARK  16 active torsions:
REMARK  status: ('A' for Active; 'I' for Inactive)
REMARK    1  A    between atoms: C_2  and  O_4 
REMARK    2  A    between atoms: N_3  and  C_5 
REMARK    3  A    between atoms: O_4  and  O_22 
REMARK    4  A    between atoms: C_8  and  O_23 
REMARK    5  A    between atoms: C_9  and  O_22 
REMARK    6  A    between atoms: C_10  and  C_19 
REMARK    7  A    between atoms: C_13  and  C_24 
REMARK    8  A    between atoms: C_16  and  C_61 
REMARK    9  A    between atoms: C_17  and  O_25 
REMARK   10  A    between atoms: C_24  and  C_28 
REMARK   11  A    between atoms: C_41  and  C_45 
REMARK   12  A    between atoms: C_45  and  C_52 
REMARK   13  A    between atoms: O_46  and  C_53 
REMARK   14  A    between atoms: O_47  and  C_54 
REMARK   15  A    between atoms: C_50  and  C_55 
REMARK   16  A    between atoms: O_51  and  C_56 
ROOT
HETATM    1  C   UNL     1     179.080 178.507 171.851  1.00  0.00     0.088 C 
HETATM    2  C   UNL     1     180.409 178.162 172.089  1.00  0.00     0.019 C 
HETATM    3  C   UNL     1     181.458 178.918 171.518  1.00  0.00    -0.029 C 
HETATM    4  C   UNL     1     181.097 179.818 170.454  1.00  0.00    -0.014 C 
HETATM    5  C   UNL     1     179.736 180.214 170.256  1.00  0.00     0.022 C 
HETATM    6  C   UNL     1     178.705 179.529 170.981  1.00  0.00     0.013 C 
HETATM    7  C   UNL     1     182.028 180.298 169.503  1.00  0.00     0.020 C 
HETATM    8  C   UNL     1     181.725 181.210 168.476  1.00  0.00    -0.047 C 
HETATM    9  C   UNL     1     180.447 181.773 168.416  1.00  0.00     0.017 C 
HETATM   10  C   UNL     1     179.484 181.275 169.320  1.00  0.00     0.089 C 
HETATM   11  C   UNL     1     182.823 181.590 167.509  1.00  0.00     0.049 C 
ENDROOT
BRANCH   9  12
HETATM   12  C   UNL     1     180.117 182.825 167.420  1.00  0.00     0.017 A 
HETATM   13  C   UNL     1     180.223 184.202 167.737  1.00  0.00     0.089 A 
HETATM   14  C   UNL     1     179.938 185.266 166.813  1.00  0.00     0.022 A 
HETATM   15  C   UNL     1     180.158 186.662 167.080  1.00  0.00     0.015 A 
HETATM   16  C   UNL     1     179.404 184.895 165.540  1.00  0.00    -0.012 A 
HETATM   17  C   UNL     1     179.839 187.604 166.102  1.00  0.00     0.110 A 
HETATM   18  C   UNL     1     179.240 187.237 164.906  1.00  0.00     0.107 A 
HETATM   19  C   UNL     1     178.974 185.898 164.605  1.00  0.00    -0.007 A 
HETATM   20  C   UNL     1     179.339 183.513 165.236  1.00  0.00     0.020 A 
HETATM   21  C   UNL     1     179.716 182.489 166.121  1.00  0.00    -0.047 A 
HETATM   22  C   UNL     1     179.630 181.064 165.634  1.00  0.00     0.049 C 
BRANCH  13  23
HETATM   23  O   UNL     1     180.633 184.543 169.011  1.00  0.00    -0.359 OA
HETATM   24  H   UNL     1     181.581 184.364 169.115  1.00  0.00     0.217 HD
ENDBRANCH  13  23
BRANCH  15  25
HETATM   25  C   UNL     1     180.698 187.128 168.378  1.00  0.00     0.038 C 
BRANCH  25  26
HETATM   26  C   UNL     1     181.908 187.666 168.638  1.00  0.00     0.101 C 
HETATM   27  C   UNL     1     183.167 186.891 168.702  1.00  0.00     0.265 C 
HETATM   28  O   UNL     1     183.325 185.809 168.149  1.00  0.00    -0.267 OA
HETATM   29  N   UNL     1     184.197 187.514 169.348  1.00  0.00    -0.275 N 
HETATM   30  C   UNL     1     184.276 188.846 169.609  1.00  0.00     0.329 C 
HETATM   31  H   UNL     1     185.067 187.001 169.417  1.00  0.00     0.173 HD
HETATM   32  O   UNL     1     185.288 189.350 170.085  1.00  0.00    -0.246 OA
HETATM   33  N   UNL     1     183.176 189.594 169.320  1.00  0.00    -0.275 N 
HETATM   34  C   UNL     1     181.951 189.121 168.942  1.00  0.00     0.265 C 
HETATM   35  H   UNL     1     183.233 190.577 169.545  1.00  0.00     0.173 HD
HETATM   36  O   UNL     1     180.969 189.855 168.924  1.00  0.00    -0.267 OA
ENDBRANCH  25  26
ENDBRANCH  15  25
BRANCH  17  37
HETATM   37  O   UNL     1     180.162 188.932 166.242  1.00  0.00    -0.357 OA
HETATM   38  H   UNL     1     179.441 189.393 165.755  1.00  0.00     0.217 HD
ENDBRANCH  17  37
BRANCH  18  39
HETATM   39  O   UNL     1     178.961 188.233 164.011  1.00  0.00    -0.357 OA
HETATM   40  H   UNL     1     179.830 188.567 163.711  1.00  0.00     0.217 HD
ENDBRANCH  18  39
BRANCH  19  41
HETATM   41  C   UNL     1     178.260 185.541 163.294  1.00  0.00     0.014 C 
HETATM   42  C   UNL     1     179.199 185.198 162.126  1.00  0.00     0.015 C 
HETATM   43  C   UNL     1     177.223 184.437 163.512  1.00  0.00     0.015 C 
ENDBRANCH  19  41
ENDBRANCH   9  12
BRANCH  10  44
HETATM   44  O   UNL     1     178.232 181.858 169.353  1.00  0.00    -0.359 OA
HETATM   45  H   UNL     1     177.676 181.445 170.041  1.00  0.00     0.217 HD
ENDBRANCH  10  44
BRANCH   6  46
HETATM   46  C   UNL     1     177.276 179.727 170.626  1.00  0.00     0.038 C 
BRANCH  46  47
HETATM   47  C   UNL     1     176.389 178.867 170.084  1.00  0.00     0.101 C 
HETATM   48  C   UNL     1     176.469 178.628 168.620  1.00  0.00     0.265 C 
HETATM   49  N   UNL     1     175.406 177.957 168.088  1.00  0.00    -0.275 N 
HETATM   50  O   UNL     1     177.435 178.971 167.949  1.00  0.00    -0.267 OA
HETATM   51  C   UNL     1     174.369 177.406 168.779  1.00  0.00     0.329 C 
HETATM   52  H   UNL     1     175.448 177.743 167.099  1.00  0.00     0.173 HD
HETATM   53  N   UNL     1     174.317 177.659 170.118  1.00  0.00    -0.275 N 
HETATM   54  O   UNL     1     173.559 176.659 168.244  1.00  0.00    -0.246 OA
HETATM   55  C   UNL     1     175.340 178.172 170.855  1.00  0.00     0.265 C 
HETATM   56  H   UNL     1     173.597 177.139 170.605  1.00  0.00     0.173 HD
HETATM   57  O   UNL     1     175.478 177.959 172.060  1.00  0.00    -0.267 OA
ENDBRANCH  46  47
ENDBRANCH   6  46
BRANCH   3  58
HETATM   58  C   UNL     1     182.841 178.924 172.222  1.00  0.00     0.012 C 
HETATM   59  C   UNL     1     184.082 178.274 171.596  1.00  0.00     0.015 C 
HETATM   60  C   UNL     1     183.243 180.389 172.518  1.00  0.00     0.015 C 
ENDBRANCH   3  58
BRANCH   1  61
HETATM   61  O   UNL     1     178.198 177.738 172.584  1.00  0.00    -0.359 OA
HETATM   62  H   UNL     1     178.698 176.934 172.887  1.00  0.00     0.217 HD
ENDBRANCH   1  61
BRANCH   2  63
HETATM   63  O   UNL     1     180.498 177.015 172.861  1.00  0.00     0.000 OA
HETATM   64  H   UNL     1     181.321 177.056 173.440  1.00  0.00     0.000 HD
BRANCH  63  65
HETATM   65  O   UNL     1     180.088 175.777 172.336  1.00  0.00    -0.177 OA
BRANCH  65  66
HETATM   66  C   UNL     1     180.889 175.249 171.471  1.00  0.00     0.153 C 
HETATM   67  N   UNL     1     180.582 175.325 170.148  1.00  0.00    -0.359 N 
HETATM   68  C   UNL     1     181.519 174.541 169.366  1.00  0.00     0.125 C 
HETATM   69  C   UNL     1     182.726 174.413 170.287  1.00  0.00     0.028 C 
HETATM   70  C   UNL     1     182.142 174.469 171.696  1.00  0.00     0.088 C 
BRANCH  67  71
HETATM   71  C   UNL     1     179.369 175.920 169.572  1.00  0.00     0.077 C 
HETATM   72  C   UNL     1     179.679 176.658 168.272  1.00  0.00     0.032 C 
HETATM   73  C   UNL     1     178.267 174.882 169.370  1.00  0.00     0.032 C 
ENDBRANCH  67  71
ENDBRANCH  65  66
ENDBRANCH  63  65
ENDBRANCH   2  63
TORSDOF 16
ENDMDL
MODEL 4
REMARK VINA RESULT:    -9.303      3.064     10.833
REMARK INTER + INTRA:         -21.749
REMARK INTER:                 -17.358
REMARK INTRA:                  -4.391
REMARK UNBOUND:                -5.105
REMARK  16 active torsions:
REMARK  status: ('A' for Active; 'I' for Inactive)
REMARK    1  A    between atoms: C_2  and  O_4 
REMARK    2  A    between atoms: N_3  and  C_5 
REMARK    3  A    between atoms: O_4  and  O_22 
REMARK    4  A    between atoms: C_8  and  O_23 
REMARK    5  A    between atoms: C_9  and  O_22 
REMARK    6  A    between atoms: C_10  and  C_19 
REMARK    7  A    between atoms: C_13  and  C_24 
REMARK    8  A    between atoms: C_16  and  C_61 
REMARK    9  A    between atoms: C_17  and  O_25 
REMARK   10  A    between atoms: C_24  and  C_28 
REMARK   11  A    between atoms: C_41  and  C_45 
REMARK   12  A    between atoms: C_45  and  C_52 
REMARK   13  A    between atoms: O_46  and  C_53 
REMARK   14  A    between atoms: O_47  and  C_54 
REMARK   15  A    between atoms: C_50  and  C_55 
REMARK   16  A    between atoms: O_51  and  C_56 
ROOT
HETATM    1  C   UNL     1     181.580 185.766 170.280  1.00  0.00     0.088 C 
HETATM    2  C   UNL     1     181.512 186.025 168.913  1.00  0.00     0.019 C 
HETATM    3  C   UNL     1     180.766 185.178 168.060  1.00  0.00    -0.029 C 
HETATM    4  C   UNL     1     180.376 183.902 168.602  1.00  0.00    -0.014 C 
HETATM    5  C   UNL     1     180.392 183.667 170.013  1.00  0.00     0.022 C 
HETATM    6  C   UNL     1     181.017 184.634 170.868  1.00  0.00     0.013 C 
HETATM    7  C   UNL     1     180.036 182.794 167.791  1.00  0.00     0.020 C 
HETATM    8  C   UNL     1     179.610 181.546 168.279  1.00  0.00    -0.047 C 
HETATM    9  C   UNL     1     179.409 181.381 169.653  1.00  0.00     0.017 C 
HETATM   10  C   UNL     1     179.788 182.453 170.489  1.00  0.00     0.089 C 
HETATM   11  C   UNL     1     179.329 180.445 167.282  1.00  0.00     0.049 C 
ENDROOT
BRANCH   9  12
HETATM   12  C   UNL     1     178.850 180.119 170.201  1.00  0.00     0.017 A 
HETATM   13  C   UNL     1     179.672 179.171 170.860  1.00  0.00     0.089 A 
HETATM   14  C   UNL     1     179.189 177.942 171.428  1.00  0.00     0.022 A 
HETATM   15  C   UNL     1     179.985 177.031 172.206  1.00  0.00     0.015 A 
HETATM   16  C   UNL     1     177.815 177.618 171.203  1.00  0.00    -0.012 A 
HETATM   17  C   UNL     1     179.403 175.865 172.703  1.00  0.00     0.110 A 
HETATM   18  C   UNL     1     178.093 175.521 172.403  1.00  0.00     0.107 A 
HETATM   19  C   UNL     1     177.280 176.353 171.627  1.00  0.00    -0.007 A 
HETATM   20  C   UNL     1     177.007 178.596 170.571  1.00  0.00     0.020 A 
HETATM   21  C   UNL     1     177.481 179.835 170.109  1.00  0.00    -0.047 A 
HETATM   22  C   UNL     1     176.488 180.790 169.496  1.00  0.00     0.049 C 
BRANCH  13  23
HETATM   23  O   UNL     1     181.020 179.449 170.969  1.00  0.00    -0.359 OA
HETATM   24  H   UNL     1     181.520 178.628 171.103  1.00  0.00     0.217 HD
ENDBRANCH  13  23
BRANCH  15  25
HETATM   25  C   UNL     1     181.419 177.289 172.475  1.00  0.00     0.038 C 
BRANCH  25  26
HETATM   26  C   UNL     1     182.467 177.152 171.637  1.00  0.00     0.101 C 
HETATM   27  C   UNL     1     182.638 176.021 170.696  1.00  0.00     0.265 C 
HETATM   28  O   UNL     1     181.708 175.336 170.285  1.00  0.00    -0.267 OA
HETATM   29  N   UNL     1     183.909 175.846 170.228  1.00  0.00    -0.275 N 
HETATM   30  C   UNL     1     184.901 176.776 170.266  1.00  0.00     0.329 C 
HETATM   31  H   UNL     1     184.057 175.072 169.593  1.00  0.00     0.173 HD
HETATM   32  O   UNL     1     185.981 176.587 169.716  1.00  0.00    -0.246 OA
HETATM   33  N   UNL     1     184.638 177.925 170.946  1.00  0.00    -0.275 N 
HETATM   34  C   UNL     1     183.542 178.175 171.723  1.00  0.00     0.265 C 
HETATM   35  H   UNL     1     185.390 178.597 170.994  1.00  0.00     0.173 HD
HETATM   36  O   UNL     1     183.506 179.146 172.471  1.00  0.00    -0.267 OA
ENDBRANCH  25  26
ENDBRANCH  15  25
BRANCH  17  37
HETATM   37  O   UNL     1     180.070 175.034 173.571  1.00  0.00    -0.357 OA
HETATM   38  H   UNL     1     180.660 174.515 172.978  1.00  0.00     0.217 HD
ENDBRANCH  17  37
BRANCH  18  39
HETATM   39  O   UNL     1     177.611 174.356 172.934  1.00  0.00    -0.357 OA
HETATM   40  H   UNL     1     176.710 174.254 172.567  1.00  0.00     0.217 HD
ENDBRANCH  18  39
BRANCH  19  41
HETATM   41  C   UNL     1     175.855 175.907 171.272  1.00  0.00     0.014 C 
HETATM   42  C   UNL     1     174.795 177.016 171.369  1.00  0.00     0.015 C 
HETATM   43  C   UNL     1     175.814 175.222 169.905  1.00  0.00     0.015 C 
ENDBRANCH  19  41
ENDBRANCH   9  12
BRANCH  10  44
HETATM   44  O   UNL     1     179.531 182.368 171.844  1.00  0.00    -0.359 OA
HETATM   45  H   UNL     1     179.054 183.161 172.156  1.00  0.00     0.217 HD
ENDBRANCH  10  44
BRANCH   6  46
HETATM   46  C   UNL     1     181.282 184.319 172.296  1.00  0.00     0.038 C 
BRANCH  46  47
HETATM   47  C   UNL     1     182.387 183.815 172.883  1.00  0.00     0.101 C 
HETATM   48  C   UNL     1     183.445 184.773 173.296  1.00  0.00     0.265 C 
HETATM   49  N   UNL     1     184.632 184.200 173.649  1.00  0.00    -0.275 N 
HETATM   50  O   UNL     1     183.253 185.981 173.354  1.00  0.00    -0.267 OA
HETATM   51  C   UNL     1     184.886 182.867 173.763  1.00  0.00     0.329 C 
HETATM   52  H   UNL     1     185.362 184.823 173.973  1.00  0.00     0.173 HD
HETATM   53  N   UNL     1     183.899 182.015 173.360  1.00  0.00    -0.275 N 
HETATM   54  O   UNL     1     185.918 182.444 174.268  1.00  0.00    -0.246 OA
HETATM   55  C   UNL     1     182.609 182.375 173.120  1.00  0.00     0.265 C 
HETATM   56  H   UNL     1     184.088 181.042 173.568  1.00  0.00     0.173 HD
HETATM   57  O   UNL     1     181.659 181.599 173.232  1.00  0.00    -0.267 OA
ENDBRANCH  46  47
ENDBRANCH   6  46
BRANCH   3  58
HETATM   58  C   UNL     1     180.211 185.760 166.733  1.00  0.00     0.012 C 
HETATM   59  C   UNL     1     180.440 185.075 165.379  1.00  0.00     0.015 C 
HETATM   60  C   UNL     1     178.677 185.920 166.864  1.00  0.00     0.015 C 
ENDBRANCH   3  58
BRANCH   1  61
HETATM   61  O   UNL     1     182.245 186.760 170.971  1.00  0.00    -0.359 OA
HETATM   62  H   UNL     1     182.350 187.525 170.345  1.00  0.00     0.217 HD
ENDBRANCH   1  61
BRANCH   2  63
HETATM   63  O   UNL     1     182.286 187.121 168.572  1.00  0.00     0.000 OA
HETATM   64  H   UNL     1     183.262 186.896 168.676  1.00  0.00     0.000 HD
BRANCH  63  65
HETATM   65  O   UNL     1     181.845 188.421 168.879  1.00  0.00    -0.177 OA
BRANCH  65  66
HETATM   66  C   UNL     1     180.908 188.883 168.119  1.00  0.00     0.153 C 
HETATM   67  N   UNL     1     179.672 189.098 168.644  1.00  0.00    -0.359 N 
HETATM   68  C   UNL     1     178.736 189.465 167.597  1.00  0.00     0.125 C 
HETATM   69  C   UNL     1     179.639 189.961 166.475  1.00  0.00     0.028 C 
HETATM   70  C   UNL     1     180.940 189.185 166.656  1.00  0.00     0.088 C 
BRANCH  67  71
HETATM   71  C   UNL     1     179.250 188.805 170.019  1.00  0.00     0.077 C 
HETATM   72  C   UNL     1     178.455 189.965 170.614  1.00  0.00     0.032 C 
HETATM   73  C   UNL     1     178.469 187.495 170.108  1.00  0.00     0.032 C 
ENDBRANCH  67  71
ENDBRANCH  65  66
ENDBRANCH  63  65
ENDBRANCH   2  63
TORSDOF 16
ENDMDL
MODEL 5
REMARK VINA RESULT:    -9.236      3.450      6.362
REMARK INTER + INTRA:         -21.630
REMARK INTER:                 -18.609
REMARK INTRA:                  -3.021
REMARK UNBOUND:                -5.105
REMARK  16 active torsions:
REMARK  status: ('A' for Active; 'I' for Inactive)
REMARK    1  A    between atoms: C_2  and  O_4 
REMARK    2  A    between atoms: N_3  and  C_5 
REMARK    3  A    between atoms: O_4  and  O_22 
REMARK    4  A    between atoms: C_8  and  O_23 
REMARK    5  A    between atoms: C_9  and  O_22 
REMARK    6  A    between atoms: C_10  and  C_19 
REMARK    7  A    between atoms: C_13  and  C_24 
REMARK    8  A    between atoms: C_16  and  C_61 
REMARK    9  A    between atoms: C_17  and  O_25 
REMARK   10  A    between atoms: C_24  and  C_28 
REMARK   11  A    between atoms: C_41  and  C_45 
REMARK   12  A    between atoms: C_45  and  C_52 
REMARK   13  A    between atoms: O_46  and  C_53 
REMARK   14  A    between atoms: O_47  and  C_54 
REMARK   15  A    between atoms: C_50  and  C_55 
REMARK   16  A    between atoms: O_51  and  C_56 
ROOT
HETATM    1  C   UNL     1     179.021 175.149 172.577  1.00  0.00     0.088 C 
HETATM    2  C   UNL     1     177.720 174.716 172.331  1.00  0.00     0.019 C 
HETATM    3  C   UNL     1     176.947 175.316 171.310  1.00  0.00    -0.029 C 
HETATM    4  C   UNL     1     177.433 176.566 170.786  1.00  0.00    -0.014 C 
HETATM    5  C   UNL     1     178.789 176.972 170.993  1.00  0.00     0.022 C 
HETATM    6  C   UNL     1     179.598 176.235 171.920  1.00  0.00     0.013 C 
HETATM    7  C   UNL     1     176.602 177.494 170.116  1.00  0.00     0.020 C 
HETATM    8  C   UNL     1     177.045 178.705 169.553  1.00  0.00    -0.047 C 
HETATM    9  C   UNL     1     178.412 179.001 169.557  1.00  0.00     0.017 C 
HETATM   10  C   UNL     1     179.257 178.118 170.262  1.00  0.00     0.089 C 
HETATM   11  C   UNL     1     176.022 179.613 168.910  1.00  0.00     0.049 C 
ENDROOT
BRANCH   9  12
HETATM   12  C   UNL     1     178.937 180.210 168.873  1.00  0.00     0.017 A 
HETATM   13  C   UNL     1     179.209 181.404 169.587  1.00  0.00     0.089 A 
HETATM   14  C   UNL     1     179.735 182.600 168.987  1.00  0.00     0.022 A 
HETATM   15  C   UNL     1     180.131 183.775 169.715  1.00  0.00     0.015 A 
HETATM   16  C   UNL     1     179.877 182.605 167.564  1.00  0.00    -0.012 A 
HETATM   17  C   UNL     1     180.627 184.878 169.020  1.00  0.00     0.110 A 
HETATM   18  C   UNL     1     180.677 184.900 167.634  1.00  0.00     0.107 A 
HETATM   19  C   UNL     1     180.277 183.799 166.871  1.00  0.00    -0.007 A 
HETATM   20  C   UNL     1     179.631 181.390 166.878  1.00  0.00     0.020 A 
HETATM   21  C   UNL     1     179.209 180.202 167.499  1.00  0.00    -0.047 A 
HETATM   22  C   UNL     1     179.031 178.977 166.638  1.00  0.00     0.049 C 
BRANCH  13  23
HETATM   23  O   UNL     1     178.958 181.417 170.945  1.00  0.00    -0.359 OA
HETATM   24  H   UNL     1     179.461 182.131 171.369  1.00  0.00     0.217 HD
ENDBRANCH  13  23
BRANCH  15  25
HETATM   25  C   UNL     1     180.006 183.853 171.190  1.00  0.00     0.038 C 
BRANCH  25  26
HETATM   26  C   UNL     1     180.890 183.457 172.128  1.00  0.00     0.101 C 
HETATM   27  C   UNL     1     182.152 182.739 171.833  1.00  0.00     0.265 C 
HETATM   28  O   UNL     1     182.719 182.785 170.747  1.00  0.00    -0.267 OA
HETATM   29  N   UNL     1     182.708 182.088 172.897  1.00  0.00    -0.275 N 
HETATM   30  C   UNL     1     182.419 182.319 174.205  1.00  0.00     0.329 C 
HETATM   31  H   UNL     1     183.564 181.579 172.721  1.00  0.00     0.173 HD
HETATM   32  O   UNL     1     183.048 181.780 175.109  1.00  0.00    -0.246 OA
HETATM   33  N   UNL     1     181.395 183.177 174.464  1.00  0.00    -0.275 N 
HETATM   34  C   UNL     1     180.529 183.706 173.548  1.00  0.00     0.265 C 
HETATM   35  H   UNL     1     181.167 183.321 175.438  1.00  0.00     0.173 HD
HETATM   36  O   UNL     1     179.508 184.285 173.904  1.00  0.00    -0.267 OA
ENDBRANCH  25  26
ENDBRANCH  15  25
BRANCH  17  37
HETATM   37  O   UNL     1     181.156 185.967 169.668  1.00  0.00    -0.357 OA
HETATM   38  H   UNL     1     181.286 185.642 170.588  1.00  0.00     0.217 HD
ENDBRANCH  17  37
BRANCH  18  39
HETATM   39  O   UNL     1     181.176 186.028 167.040  1.00  0.00    -0.357 OA
HETATM   40  H   UNL     1     180.721 186.092 166.176  1.00  0.00     0.217 HD
ENDBRANCH  18  39
BRANCH  19  41
HETATM   41  C   UNL     1     180.295 183.887 165.339  1.00  0.00     0.014 C 
HETATM   42  C   UNL     1     181.305 182.951 164.656  1.00  0.00     0.015 C 
HETATM   43  C   UNL     1     178.892 183.705 164.757  1.00  0.00     0.015 C 
ENDBRANCH  19  41
ENDBRANCH   9  12
BRANCH  10  44
HETATM   44  O   UNL     1     180.623 178.324 170.223  1.00  0.00    -0.359 OA
HETATM   45  H   UNL     1     181.102 177.526 170.518  1.00  0.00     0.217 HD
ENDBRANCH  10  44
BRANCH   6  46
HETATM   46  C   UNL     1     180.917 176.762 172.356  1.00  0.00     0.038 C 
BRANCH  46  47
HETATM   47  C   UNL     1     182.131 176.650 171.778  1.00  0.00     0.101 C 
HETATM   48  C   UNL     1     183.001 177.855 171.766  1.00  0.00     0.265 C 
HETATM   49  N   UNL     1     184.098 177.763 170.959  1.00  0.00    -0.275 N 
HETATM   50  O   UNL     1     182.773 178.838 172.459  1.00  0.00    -0.267 OA
HETATM   51  C   UNL     1     184.511 176.659 170.277  1.00  0.00     0.329 C 
HETATM   52  H   UNL     1     184.733 178.552 170.958  1.00  0.00     0.173 HD
HETATM   53  N   UNL     1     183.681 175.576 170.295  1.00  0.00    -0.275 N 
HETATM   54  O   UNL     1     185.606 176.606 169.731  1.00  0.00    -0.246 OA
HETATM   55  C   UNL     1     182.630 175.414 171.145  1.00  0.00     0.265 C 
HETATM   56  H   UNL     1     184.080 174.748 169.872  1.00  0.00     0.173 HD
HETATM   57  O   UNL     1     182.205 174.311 171.491  1.00  0.00    -0.267 OA
ENDBRANCH  46  47
ENDBRANCH   6  46
BRANCH   3  58
HETATM   58  C   UNL     1     175.805 174.492 170.659  1.00  0.00     0.012 C 
HETATM   59  C   UNL     1     174.367 175.019 170.562  1.00  0.00     0.015 C 
HETATM   60  C   UNL     1     176.214 174.132 169.210  1.00  0.00     0.015 C 
ENDBRANCH   3  58
BRANCH   1  61
HETATM   61  O   UNL     1     179.664 174.371 173.520  1.00  0.00    -0.359 OA
HETATM   62  H   UNL     1     179.550 173.424 173.240  1.00  0.00     0.217 HD
ENDBRANCH   1  61
BRANCH   2  63
HETATM   63  O   UNL     1     177.342 173.730 173.227  1.00  0.00     0.000 OA
HETATM   64  H   UNL     1     177.322 174.107 174.161  1.00  0.00     0.000 HD
BRANCH  63  65
HETATM   65  O   UNL     1     177.758 172.401 173.032  1.00  0.00    -0.177 OA
BRANCH  65  66
HETATM   66  C   UNL     1     176.811 171.551 172.809  1.00  0.00     0.153 C 
HETATM   67  N   UNL     1     176.643 170.504 173.661  1.00  0.00    -0.359 N 
HETATM   68  C   UNL     1     175.639 169.591 173.148  1.00  0.00     0.125 C 
HETATM   69  C   UNL     1     174.844 170.453 172.173  1.00  0.00     0.028 C 
HETATM   70  C   UNL     1     175.847 171.487 171.670  1.00  0.00     0.088 C 
BRANCH  67  71
HETATM   71  C   UNL     1     177.482 170.190 174.824  1.00  0.00     0.077 C 
HETATM   72  C   UNL     1     176.678 170.254 176.120  1.00  0.00     0.032 C 
HETATM   73  C   UNL     1     178.182 168.840 174.673  1.00  0.00     0.032 C 
ENDBRANCH  67  71
ENDBRANCH  65  66
ENDBRANCH  63  65
ENDBRANCH   2  63
TORSDOF 16
ENDMDL
MODEL 6
REMARK VINA RESULT:    -9.092      3.811      6.260
REMARK INTER + INTRA:         -21.372
REMARK INTER:                 -18.137
REMARK INTRA:                  -3.235
REMARK UNBOUND:                -5.105
REMARK  16 active torsions:
REMARK  status: ('A' for Active; 'I' for Inactive)
REMARK    1  A    between atoms: C_2  and  O_4 
REMARK    2  A    between atoms: N_3  and  C_5 
REMARK    3  A    between atoms: O_4  and  O_22 
REMARK    4  A    between atoms: C_8  and  O_23 
REMARK    5  A    between atoms: C_9  and  O_22 
REMARK    6  A    between atoms: C_10  and  C_19 
REMARK    7  A    between atoms: C_13  and  C_24 
REMARK    8  A    between atoms: C_16  and  C_61 
REMARK    9  A    between atoms: C_17  and  O_25 
REMARK   10  A    between atoms: C_24  and  C_28 
REMARK   11  A    between atoms: C_41  and  C_45 
REMARK   12  A    between atoms: C_45  and  C_52 
REMARK   13  A    between atoms: O_46  and  C_53 
REMARK   14  A    between atoms: O_47  and  C_54 
REMARK   15  A    between atoms: C_50  and  C_55 
REMARK   16  A    between atoms: O_51  and  C_56 
ROOT
HETATM    1  C   UNL     1     176.668 175.069 171.743  1.00  0.00     0.088 C 
HETATM    2  C   UNL     1     177.802 174.266 171.834  1.00  0.00     0.019 C 
HETATM    3  C   UNL     1     179.089 174.849 171.897  1.00  0.00    -0.029 C 
HETATM    4  C   UNL     1     179.183 176.241 171.540  1.00  0.00    -0.014 C 
HETATM    5  C   UNL     1     178.018 177.071 171.509  1.00  0.00     0.022 C 
HETATM    6  C   UNL     1     176.727 176.455 171.613  1.00  0.00     0.013 C 
HETATM    7  C   UNL     1     180.391 176.849 171.125  1.00  0.00     0.020 C 
HETATM    8  C   UNL     1     180.533 178.212 170.809  1.00  0.00    -0.047 C 
HETATM    9  C   UNL     1     179.448 179.074 170.994  1.00  0.00     0.017 C 
HETATM   10  C   UNL     1     178.217 178.487 171.358  1.00  0.00     0.089 C 
HETATM   11  C   UNL     1     181.883 178.700 170.336  1.00  0.00     0.049 C 
ENDROOT
BRANCH   9  12
HETATM   12  C   UNL     1     179.586 180.538 170.784  1.00  0.00     0.017 A 
HETATM   13  C   UNL     1     180.243 181.363 171.732  1.00  0.00     0.089 A 
HETATM   14  C   UNL     1     180.426 182.780 171.577  1.00  0.00     0.022 A 
HETATM   15  C   UNL     1     181.195 183.607 172.467  1.00  0.00     0.015 A 
HETATM   16  C   UNL     1     179.799 183.397 170.451  1.00  0.00    -0.012 A 
HETATM   17  C   UNL     1     181.298 184.975 172.213  1.00  0.00     0.110 A 
HETATM   18  C   UNL     1     180.613 185.574 171.167  1.00  0.00     0.107 A 
HETATM   19  C   UNL     1     179.825 184.824 170.287  1.00  0.00    -0.007 A 
HETATM   20  C   UNL     1     179.177 182.548 169.502  1.00  0.00     0.020 A 
HETATM   21  C   UNL     1     179.095 181.151 169.625  1.00  0.00    -0.047 A 
HETATM   22  C   UNL     1     178.438 180.379 168.508  1.00  0.00     0.049 C 
BRANCH  13  23
HETATM   23  O   UNL     1     180.745 180.765 172.871  1.00  0.00    -0.359 OA
HETATM   24  H   UNL     1     180.635 179.802 172.817  1.00  0.00     0.217 HD
ENDBRANCH  13  23
BRANCH  15  25
HETATM   25  C   UNL     1     181.867 183.046 173.663  1.00  0.00     0.038 C 
BRANCH  25  26
HETATM   26  C   UNL     1     183.187 183.001 173.938  1.00  0.00     0.101 C 
HETATM   27  C   UNL     1     183.926 184.071 174.646  1.00  0.00     0.265 C 
HETATM   28  O   UNL     1     183.392 184.884 175.393  1.00  0.00    -0.267 OA
HETATM   29  N   UNL     1     185.283 184.037 174.490  1.00  0.00    -0.275 N 
HETATM   30  C   UNL     1     186.002 182.965 174.062  1.00  0.00     0.329 C 
HETATM   31  H   UNL     1     185.812 184.764 174.953  1.00  0.00     0.173 HD
HETATM   32  O   UNL     1     187.229 182.971 174.064  1.00  0.00    -0.246 OA
HETATM   33  N   UNL     1     185.296 181.885 173.630  1.00  0.00    -0.275 N 
HETATM   34  C   UNL     1     183.945 181.826 173.435  1.00  0.00     0.265 C 
HETATM   35  H   UNL     1     185.838 181.105 173.287  1.00  0.00     0.173 HD
HETATM   36  O   UNL     1     183.434 180.887 172.833  1.00  0.00    -0.267 OA
ENDBRANCH  25  26
ENDBRANCH  15  25
BRANCH  17  37
HETATM   37  O   UNL     1     182.134 185.787 172.940  1.00  0.00    -0.357 OA
HETATM   38  H   UNL     1     182.671 186.237 172.248  1.00  0.00     0.217 HD
ENDBRANCH  17  37
BRANCH  18  39
HETATM   39  O   UNL     1     180.773 186.922 170.999  1.00  0.00    -0.357 OA
HETATM   40  H   UNL     1     181.635 187.030 170.551  1.00  0.00     0.217 HD
ENDBRANCH  18  39
BRANCH  19  41
HETATM   41  C   UNL     1     179.039 185.535 169.177  1.00  0.00     0.014 C 
HETATM   42  C   UNL     1     178.093 186.642 169.670  1.00  0.00     0.015 C 
HETATM   43  C   UNL     1     179.973 186.053 168.082  1.00  0.00     0.015 C 
ENDBRANCH  19  41
ENDBRANCH   9  12
BRANCH  10  44
HETATM   44  O   UNL     1     177.139 179.306 171.632  1.00  0.00    -0.359 OA
HETATM   45  H   UNL     1     176.635 178.970 172.398  1.00  0.00     0.217 HD
ENDBRANCH  10  44
BRANCH   6  46
HETATM   46  C   UNL     1     175.494 177.237 171.335  1.00  0.00     0.038 C 
BRANCH  46  47
HETATM   47  C   UNL     1     174.855 177.465 170.169  1.00  0.00     0.101 C 
HETATM   48  C   UNL     1     173.921 176.419 169.680  1.00  0.00     0.265 C 
HETATM   49  N   UNL     1     173.499 176.581 168.392  1.00  0.00    -0.275 N 
HETATM   50  O   UNL     1     173.527 175.503 170.392  1.00  0.00    -0.267 OA
HETATM   51  C   UNL     1     173.762 177.645 167.583  1.00  0.00     0.329 C 
HETATM   52  H   UNL     1     172.831 175.907 168.041  1.00  0.00     0.173 HD
HETATM   53  N   UNL     1     174.636 178.579 168.055  1.00  0.00    -0.275 N 
HETATM   54  O   UNL     1     173.189 177.800 166.511  1.00  0.00    -0.246 OA
HETATM   55  C   UNL     1     175.046 178.678 169.350  1.00  0.00     0.265 C 
HETATM   56  H   UNL     1     174.712 179.402 167.471  1.00  0.00     0.173 HD
HETATM   57  O   UNL     1     175.415 179.735 169.863  1.00  0.00    -0.267 OA
ENDBRANCH  46  47
ENDBRANCH   6  46
BRANCH   3  58
HETATM   58  C   UNL     1     180.236 174.051 172.572  1.00  0.00     0.012 C 
HETATM   59  C   UNL     1     179.982 173.063 173.719  1.00  0.00     0.015 C 
HETATM   60  C   UNL     1     180.988 173.244 171.486  1.00  0.00     0.015 C 
ENDBRANCH   3  58
BRANCH   1  61
HETATM   61  O   UNL     1     175.499 174.337 171.816  1.00  0.00    -0.359 OA
HETATM   62  H   UNL     1     175.757 173.377 171.803  1.00  0.00     0.217 HD
ENDBRANCH   1  61
BRANCH   2  63
HETATM   63  O   UNL     1     177.469 172.922 171.790  1.00  0.00     0.000 OA
HETATM   64  H   UNL     1     177.132 172.683 170.872  1.00  0.00     0.000 HD
BRANCH  63  65
HETATM   65  O   UNL     1     176.900 172.299 172.914  1.00  0.00    -0.177 OA
BRANCH  65  66
HETATM   66  C   UNL     1     176.255 171.204 172.676  1.00  0.00     0.153 C 
HETATM   67  N   UNL     1     176.449 170.129 173.486  1.00  0.00    -0.359 N 
HETATM   68  C   UNL     1     175.759 168.967 172.957  1.00  0.00     0.125 C 
HETATM   69  C   UNL     1     174.705 169.572 172.037  1.00  0.00     0.028 C 
HETATM   70  C   UNL     1     175.321 170.882 171.556  1.00  0.00     0.088 C 
BRANCH  67  71
HETATM   71  C   UNL     1     177.382 170.052 174.617  1.00  0.00     0.077 C 
HETATM   72  C   UNL     1     176.655 170.223 175.948  1.00  0.00     0.032 C 
HETATM   73  C   UNL     1     178.199 168.761 174.593  1.00  0.00     0.032 C 
ENDBRANCH  67  71
ENDBRANCH  65  66
ENDBRANCH  63  65
ENDBRANCH   2  63
TORSDOF 16
ENDMDL
MODEL 7
REMARK VINA RESULT:    -9.054      2.629      5.125
REMARK INTER + INTRA:         -21.304
REMARK INTER:                 -16.355
REMARK INTRA:                  -4.948
REMARK UNBOUND:                -5.105
REMARK  16 active torsions:
REMARK  status: ('A' for Active; 'I' for Inactive)
REMARK    1  A    between atoms: C_2  and  O_4 
REMARK    2  A    between atoms: N_3  and  C_5 
REMARK    3  A    between atoms: O_4  and  O_22 
REMARK    4  A    between atoms: C_8  and  O_23 
REMARK    5  A    between atoms: C_9  and  O_22 
REMARK    6  A    between atoms: C_10  and  C_19 
REMARK    7  A    between atoms: C_13  and  C_24 
REMARK    8  A    between atoms: C_16  and  C_61 
REMARK    9  A    between atoms: C_17  and  O_25 
REMARK   10  A    between atoms: C_24  and  C_28 
REMARK   11  A    between atoms: C_41  and  C_45 
REMARK   12  A    between atoms: C_45  and  C_52 
REMARK   13  A    between atoms: O_46  and  C_53 
REMARK   14  A    between atoms: O_47  and  C_54 
REMARK   15  A    between atoms: C_50  and  C_55 
REMARK   16  A    between atoms: O_51  and  C_56 
ROOT
HETATM    1  C   UNL     1     182.014 178.606 171.858  1.00  0.00     0.088 C 
HETATM    2  C   UNL     1     180.814 178.172 172.417  1.00  0.00     0.019 C 
HETATM    3  C   UNL     1     179.579 178.543 171.837  1.00  0.00    -0.029 C 
HETATM    4  C   UNL     1     179.615 179.620 170.881  1.00  0.00    -0.014 C 
HETATM    5  C   UNL     1     180.845 180.017 170.268  1.00  0.00     0.022 C 
HETATM    6  C   UNL     1     182.076 179.488 170.781  1.00  0.00     0.013 C 
HETATM    7  C   UNL     1     178.478 180.394 170.551  1.00  0.00     0.020 C 
HETATM    8  C   UNL     1     178.461 181.424 169.594  1.00  0.00    -0.047 C 
HETATM    9  C   UNL     1     179.608 181.667 168.830  1.00  0.00     0.017 C 
HETATM   10  C   UNL     1     180.771 180.944 169.172  1.00  0.00     0.089 C 
HETATM   11  C   UNL     1     177.176 182.191 169.389  1.00  0.00     0.049 C 
ENDROOT
BRANCH   9  12
HETATM   12  C   UNL     1     179.600 182.665 167.730  1.00  0.00     0.017 A 
HETATM   13  C   UNL     1     179.739 184.052 167.989  1.00  0.00     0.089 A 
HETATM   14  C   UNL     1     179.759 185.064 166.968  1.00  0.00     0.022 A 
HETATM   15  C   UNL     1     180.022 186.458 167.204  1.00  0.00     0.015 A 
HETATM   16  C   UNL     1     179.505 184.639 165.627  1.00  0.00    -0.012 A 
HETATM   17  C   UNL     1     180.011 187.348 166.130  1.00  0.00     0.110 A 
HETATM   18  C   UNL     1     179.677 186.936 164.848  1.00  0.00     0.107 A 
HETATM   19  C   UNL     1     179.382 185.599 164.565  1.00  0.00    -0.007 A 
HETATM   20  C   UNL     1     179.402 183.246 165.390  1.00  0.00     0.020 A 
HETATM   21  C   UNL     1     179.483 182.265 166.393  1.00  0.00    -0.047 A 
HETATM   22  C   UNL     1     179.399 180.818 165.977  1.00  0.00     0.049 C 
BRANCH  13  23
HETATM   23  O   UNL     1     179.870 184.454 169.303  1.00  0.00    -0.359 OA
HETATM   24  H   UNL     1     179.536 185.359 169.409  1.00  0.00     0.217 HD
ENDBRANCH  13  23
BRANCH  15  25
HETATM   25  C   UNL     1     180.284 186.979 168.566  1.00  0.00     0.038 C 
BRANCH  25  26
HETATM   26  C   UNL     1     181.407 187.555 169.041  1.00  0.00     0.101 C 
HETATM   27  C   UNL     1     181.656 189.014 169.047  1.00  0.00     0.265 C 
HETATM   28  O   UNL     1     180.763 189.854 169.015  1.00  0.00    -0.267 OA
HETATM   29  N   UNL     1     182.965 189.376 169.194  1.00  0.00    -0.275 N 
HETATM   30  C   UNL     1     183.959 188.576 169.664  1.00  0.00     0.329 C 
HETATM   31  H   UNL     1     183.165 190.368 169.189  1.00  0.00     0.173 HD
HETATM   32  O   UNL     1     185.085 189.010 169.882  1.00  0.00    -0.246 OA
HETATM   33  N   UNL     1     183.645 187.270 169.880  1.00  0.00    -0.275 N 
HETATM   34  C   UNL     1     182.481 186.647 169.525  1.00  0.00     0.265 C 
HETATM   35  H   UNL     1     184.396 186.677 170.200  1.00  0.00     0.173 HD
HETATM   36  O   UNL     1     182.382 185.425 169.558  1.00  0.00    -0.267 OA
ENDBRANCH  25  26
ENDBRANCH  15  25
BRANCH  17  37
HETATM   37  O   UNL     1     180.397 188.659 166.269  1.00  0.00    -0.357 OA
HETATM   38  H   UNL     1     179.578 189.160 166.057  1.00  0.00     0.217 HD
ENDBRANCH  17  37
BRANCH  18  39
HETATM   39  O   UNL     1     179.690 187.883 163.860  1.00  0.00    -0.357 OA
HETATM   40  H   UNL     1     178.842 187.777 163.385  1.00  0.00     0.217 HD
ENDBRANCH  18  39
BRANCH  19  41
HETATM   41  C   UNL     1     178.962 185.197 163.144  1.00  0.00     0.014 C 
HETATM   42  C   UNL     1     180.032 184.424 162.356  1.00  0.00     0.015 C 
HETATM   43  C   UNL     1     177.630 184.445 163.152  1.00  0.00     0.015 C 
ENDBRANCH  19  41
ENDBRANCH   9  12
BRANCH  10  44
HETATM   44  O   UNL     1     181.903 181.089 168.393  1.00  0.00    -0.359 OA
HETATM   45  H   UNL     1     182.709 180.947 168.925  1.00  0.00     0.217 HD
ENDBRANCH  10  44
BRANCH   6  46
HETATM   46  C   UNL     1     183.379 180.058 170.351  1.00  0.00     0.038 C 
BRANCH  46  47
HETATM   47  C   UNL     1     183.930 181.261 170.613  1.00  0.00     0.101 C 
HETATM   48  C   UNL     1     183.914 181.733 172.021  1.00  0.00     0.265 C 
HETATM   49  N   UNL     1     184.250 183.045 172.191  1.00  0.00    -0.275 N 
HETATM   50  O   UNL     1     183.659 180.991 172.962  1.00  0.00    -0.267 OA
HETATM   51  C   UNL     1     184.695 183.898 171.227  1.00  0.00     0.329 C 
HETATM   52  H   UNL     1     184.287 183.389 173.143  1.00  0.00     0.173 HD
HETATM   53  N   UNL     1     184.681 183.439 169.943  1.00  0.00    -0.275 N 
HETATM   54  O   UNL     1     185.155 185.001 171.499  1.00  0.00    -0.246 OA
HETATM   55  C   UNL     1     184.526 182.135 169.583  1.00  0.00     0.265 C 
HETATM   56  H   UNL     1     185.124 184.063 169.280  1.00  0.00     0.173 HD
HETATM   57  O   UNL     1     184.975 181.664 168.538  1.00  0.00    -0.267 OA
ENDBRANCH  46  47
ENDBRANCH   6  46
BRANCH   3  58
HETATM   58  C   UNL     1     178.346 177.630 172.063  1.00  0.00     0.012 C 
HETATM   59  C   UNL     1     177.048 178.146 172.700  1.00  0.00     0.015 C 
HETATM   60  C   UNL     1     177.926 177.016 170.705  1.00  0.00     0.015 C 
ENDBRANCH   3  58
BRANCH   1  61
HETATM   61  O   UNL     1     183.114 178.048 172.480  1.00  0.00    -0.359 OA
HETATM   62  H   UNL     1     183.168 178.450 173.387  1.00  0.00     0.217 HD
ENDBRANCH   1  61
BRANCH   2  63
HETATM   63  O   UNL     1     181.035 177.436 173.569  1.00  0.00     0.000 OA
HETATM   64  H   UNL     1     181.377 178.038 174.300  1.00  0.00     0.000 HD
BRANCH  63  65
HETATM   65  O   UNL     1     181.519 176.118 173.483  1.00  0.00    -0.177 OA
BRANCH  65  66
HETATM   66  C   UNL     1     180.653 175.232 173.118  1.00  0.00     0.153 C 
HETATM   67  N   UNL     1     180.789 174.630 171.905  1.00  0.00    -0.359 N 
HETATM   68  C   UNL     1     179.638 173.792 171.625  1.00  0.00     0.125 C 
HETATM   69  C   UNL     1     179.044 173.536 173.005  1.00  0.00     0.028 C 
HETATM   70  C   UNL     1     179.418 174.770 173.820  1.00  0.00     0.088 C 
BRANCH  67  71
HETATM   71  C   UNL     1     181.822 174.922 170.903  1.00  0.00     0.077 C 
HETATM   72  C   UNL     1     182.577 173.657 170.502  1.00  0.00     0.032 C 
HETATM   73  C   UNL     1     181.244 175.632 169.681  1.00  0.00     0.032 C 
ENDBRANCH  67  71
ENDBRANCH  65  66
ENDBRANCH  63  65
ENDBRANCH   2  63
TORSDOF 16
ENDMDL
MODEL 8
REMARK VINA RESULT:    -9.035      3.269     10.839
REMARK INTER + INTRA:         -21.271
REMARK INTER:                 -17.398
REMARK INTRA:                  -3.873
REMARK UNBOUND:                -5.105
REMARK  16 active torsions:
REMARK  status: ('A' for Active; 'I' for Inactive)
REMARK    1  A    between atoms: C_2  and  O_4 
REMARK    2  A    between atoms: N_3  and  C_5 
REMARK    3  A    between atoms: O_4  and  O_22 
REMARK    4  A    between atoms: C_8  and  O_23 
REMARK    5  A    between atoms: C_9  and  O_22 
REMARK    6  A    between atoms: C_10  and  C_19 
REMARK    7  A    between atoms: C_13  and  C_24 
REMARK    8  A    between atoms: C_16  and  C_61 
REMARK    9  A    between atoms: C_17  and  O_25 
REMARK   10  A    between atoms: C_24  and  C_28 
REMARK   11  A    between atoms: C_41  and  C_45 
REMARK   12  A    between atoms: C_45  and  C_52 
REMARK   13  A    between atoms: O_46  and  C_53 
REMARK   14  A    between atoms: O_47  and  C_54 
REMARK   15  A    between atoms: C_50  and  C_55 
REMARK   16  A    between atoms: O_51  and  C_56 
ROOT
HETATM    1  C   UNL     1     179.913 184.500 168.549  1.00  0.00     0.088 C 
HETATM    2  C   UNL     1     180.078 184.457 167.167  1.00  0.00     0.019 C 
HETATM    3  C   UNL     1     179.709 183.303 166.438  1.00  0.00    -0.029 C 
HETATM    4  C   UNL     1     179.479 182.105 167.203  1.00  0.00    -0.014 C 
HETATM    5  C   UNL     1     179.250 182.167 168.614  1.00  0.00     0.022 C 
HETATM    6  C   UNL     1     179.478 183.408 169.297  1.00  0.00     0.013 C 
HETATM    7  C   UNL     1     179.542 180.809 166.641  1.00  0.00     0.020 C 
HETATM    8  C   UNL     1     179.283 179.618 167.343  1.00  0.00    -0.047 C 
HETATM    9  C   UNL     1     178.839 179.687 168.667  1.00  0.00     0.017 C 
HETATM   10  C   UNL     1     178.815 180.964 169.269  1.00  0.00     0.089 C 
HETATM   11  C   UNL     1     179.439 178.305 166.610  1.00  0.00     0.049 C 
ENDROOT
BRANCH   9  12
HETATM   12  C   UNL     1     178.442 178.464 169.409  1.00  0.00     0.017 A 
HETATM   13  C   UNL     1     179.338 177.812 170.294  1.00  0.00     0.089 A 
HETATM   14  C   UNL     1     179.009 176.638 171.054  1.00  0.00     0.022 A 
HETATM   15  C   UNL     1     179.862 176.038 172.045  1.00  0.00     0.015 A 
HETATM   16  C   UNL     1     177.737 176.037 170.803  1.00  0.00    -0.012 A 
HETATM   17  C   UNL     1     179.432 174.894 172.718  1.00  0.00     0.110 A 
HETATM   18  C   UNL     1     178.234 174.273 172.401  1.00  0.00     0.107 A 
HETATM   19  C   UNL     1     177.377 174.792 171.425  1.00  0.00    -0.007 A 
HETATM   20  C   UNL     1     176.847 176.725 169.941  1.00  0.00     0.020 A 
HETATM   21  C   UNL     1     177.155 177.926 169.282  1.00  0.00    -0.047 A 
HETATM   22  C   UNL     1     176.086 178.562 168.429  1.00  0.00     0.049 C 
BRANCH  13  23
HETATM   23  O   UNL     1     180.605 178.343 170.438  1.00  0.00    -0.359 OA
HETATM   24  H   UNL     1     181.190 177.698 170.866  1.00  0.00     0.217 HD
ENDBRANCH  13  23
BRANCH  15  25
HETATM   25  C   UNL     1     181.200 176.595 172.356  1.00  0.00     0.038 C 
BRANCH  25  26
HETATM   26  C   UNL     1     182.300 176.616 171.577  1.00  0.00     0.101 C 
HETATM   27  C   UNL     1     182.685 175.527 170.649  1.00  0.00     0.265 C 
HETATM   28  O   UNL     1     181.889 174.716 170.190  1.00  0.00    -0.267 OA
HETATM   29  N   UNL     1     183.991 175.542 170.252  1.00  0.00    -0.275 N 
HETATM   30  C   UNL     1     184.833 176.606 170.341  1.00  0.00     0.329 C 
HETATM   31  H   UNL     1     184.285 174.802 169.628  1.00  0.00     0.173 HD
HETATM   32  O   UNL     1     185.957 176.580 169.851  1.00  0.00    -0.246 OA
HETATM   33  N   UNL     1     184.370 177.701 171.002  1.00  0.00    -0.275 N 
HETATM   34  C   UNL     1     183.208 177.784 171.718  1.00  0.00     0.265 C 
HETATM   35  H   UNL     1     185.012 178.476 171.089  1.00  0.00     0.173 HD
HETATM   36  O   UNL     1     182.990 178.736 172.460  1.00  0.00    -0.267 OA
ENDBRANCH  25  26
ENDBRANCH  15  25
BRANCH  17  37
HETATM   37  O   UNL     1     180.136 174.365 173.772  1.00  0.00    -0.357 OA
HETATM   38  H   UNL     1     180.967 174.046 173.353  1.00  0.00     0.217 HD
ENDBRANCH  17  37
BRANCH  18  39
HETATM   39  O   UNL     1     177.898 173.153 173.113  1.00  0.00    -0.357 OA
HETATM   40  H   UNL     1     177.689 173.470 174.015  1.00  0.00     0.217 HD
ENDBRANCH  18  39
BRANCH  19  41
HETATM   41  C   UNL     1     176.088 174.041 171.067  1.00  0.00     0.014 C 
HETATM   42  C   UNL     1     176.305 172.721 170.310  1.00  0.00     0.015 C 
HETATM   43  C   UNL     1     175.208 173.832 172.301  1.00  0.00     0.015 C 
ENDBRANCH  19  41
ENDBRANCH   9  12
BRANCH  10  44
HETATM   44  O   UNL     1     178.306 181.092 170.547  1.00  0.00    -0.359 OA
HETATM   45  H   UNL     1     178.230 180.220 170.979  1.00  0.00     0.217 HD
ENDBRANCH  10  44
BRANCH   6  46
HETATM   46  C   UNL     1     179.500 183.457 170.782  1.00  0.00     0.038 C 
BRANCH  46  47
HETATM   47  C   UNL     1     180.545 183.484 171.635  1.00  0.00     0.101 C 
HETATM   48  C   UNL     1     180.891 184.786 172.260  1.00  0.00     0.265 C 
HETATM   49  N   UNL     1     182.092 184.812 172.908  1.00  0.00    -0.275 N 
HETATM   50  O   UNL     1     180.137 185.751 172.231  1.00  0.00    -0.267 OA
HETATM   51  C   UNL     1     182.919 183.751 173.122  1.00  0.00     0.329 C 
HETATM   52  H   UNL     1     182.341 185.674 173.378  1.00  0.00     0.173 HD
HETATM   53  N   UNL     1     182.581 182.574 172.520  1.00  0.00    -0.275 N 
HETATM   54  O   UNL     1     183.882 183.821 173.874  1.00  0.00    -0.246 OA
HETATM   55  C   UNL     1     181.368 182.303 171.964  1.00  0.00     0.265 C 
HETATM   56  H   UNL     1     183.159 181.791 172.799  1.00  0.00     0.173 HD
HETATM   57  O   UNL     1     180.907 181.165 171.868  1.00  0.00    -0.267 OA
ENDBRANCH  46  47
ENDBRANCH   6  46
BRANCH   3  58
HETATM   58  C   UNL     1     179.335 183.456 164.940  1.00  0.00     0.012 C 
HETATM   59  C   UNL     1     178.543 184.660 164.411  1.00  0.00     0.015 C 
HETATM   60  C   UNL     1     180.632 183.408 164.095  1.00  0.00     0.015 C 
ENDBRANCH   3  58
BRANCH   1  61
HETATM   61  O   UNL     1     180.208 185.743 169.074  1.00  0.00    -0.359 OA
HETATM   62  H   UNL     1     180.936 186.127 168.516  1.00  0.00     0.217 HD
ENDBRANCH   1  61
BRANCH   2  63
HETATM   63  O   UNL     1     180.671 185.617 166.696  1.00  0.00     0.000 OA
HETATM   64  H   UNL     1     180.047 186.087 166.061  1.00  0.00     0.000 HD
BRANCH  63  65
HETATM   65  O   UNL     1     182.055 185.652 166.451  1.00  0.00    -0.177 OA
BRANCH  65  66
HETATM   66  C   UNL     1     182.552 186.827 166.242  1.00  0.00     0.153 C 
HETATM   67  N   UNL     1     182.640 187.293 164.967  1.00  0.00    -0.359 N 
HETATM   68  C   UNL     1     183.364 188.551 164.939  1.00  0.00     0.125 C 
HETATM   69  C   UNL     1     183.245 189.058 166.371  1.00  0.00     0.028 C 
HETATM   70  C   UNL     1     183.136 187.794 167.218  1.00  0.00     0.088 C 
BRANCH  67  71
HETATM   71  C   UNL     1     182.267 186.564 163.749  1.00  0.00     0.077 C 
HETATM   72  C   UNL     1     181.015 187.159 163.109  1.00  0.00     0.032 C 
HETATM   73  C   UNL     1     183.421 186.497 162.749  1.00  0.00     0.032 C 
ENDBRANCH  67  71
ENDBRANCH  65  66
ENDBRANCH  63  65
ENDBRANCH   2  63
TORSDOF 16
ENDMDL
MODEL 9
REMARK VINA RESULT:    -9.025      3.327     10.233
REMARK INTER + INTRA:         -21.252
REMARK INTER:                 -15.712
REMARK INTRA:                  -5.539
REMARK UNBOUND:                -5.105
REMARK  16 active torsions:
REMARK  status: ('A' for Active; 'I' for Inactive)
REMARK    1  A    between atoms: C_2  and  O_4 
REMARK    2  A    between atoms: N_3  and  C_5 
REMARK    3  A    between atoms: O_4  and  O_22 
REMARK    4  A    between atoms: C_8  and  O_23 
REMARK    5  A    between atoms: C_9  and  O_22 
REMARK    6  A    between atoms: C_10  and  C_19 
REMARK    7  A    between atoms: C_13  and  C_24 
REMARK    8  A    between atoms: C_16  and  C_61 
REMARK    9  A    between atoms: C_17  and  O_25 
REMARK   10  A    between atoms: C_24  and  C_28 
REMARK   11  A    between atoms: C_41  and  C_45 
REMARK   12  A    between atoms: C_45  and  C_52 
REMARK   13  A    between atoms: O_46  and  C_53 
REMARK   14  A    between atoms: O_47  and  C_54 
REMARK   15  A    between atoms: C_50  and  C_55 
REMARK   16  A    between atoms: O_51  and  C_56 
ROOT
HETATM    1  C   UNL     1     181.470 188.019 165.461  1.00  0.00     0.088 C 
HETATM    2  C   UNL     1     182.736 187.819 164.914  1.00  0.00     0.019 C 
HETATM    3  C   UNL     1     183.276 186.515 164.817  1.00  0.00    -0.029 C 
HETATM    4  C   UNL     1     182.620 185.488 165.584  1.00  0.00    -0.014 C 
HETATM    5  C   UNL     1     181.295 185.682 166.089  1.00  0.00     0.022 C 
HETATM    6  C   UNL     1     180.714 186.991 166.021  1.00  0.00     0.013 C 
HETATM    7  C   UNL     1     183.255 184.279 165.952  1.00  0.00     0.020 C 
HETATM    8  C   UNL     1     182.637 183.235 166.664  1.00  0.00    -0.047 C 
HETATM    9  C   UNL     1     181.274 183.325 166.965  1.00  0.00     0.017 C 
HETATM   10  C   UNL     1     180.628 184.541 166.654  1.00  0.00     0.089 C 
HETATM   11  C   UNL     1     183.466 182.023 167.022  1.00  0.00     0.049 C 
ENDROOT
BRANCH   9  12
HETATM   12  C   UNL     1     180.555 182.198 167.611  1.00  0.00     0.017 A 
HETATM   13  C   UNL     1     180.405 182.126 169.019  1.00  0.00     0.089 A 
HETATM   14  C   UNL     1     179.704 181.073 169.702  1.00  0.00     0.022 A 
HETATM   15  C   UNL     1     179.437 181.050 171.115  1.00  0.00     0.015 A 
HETATM   16  C   UNL     1     179.238 179.980 168.906  1.00  0.00    -0.012 A 
HETATM   17  C   UNL     1     178.748 179.969 171.664  1.00  0.00     0.110 A 
HETATM   18  C   UNL     1     178.379 178.876 170.895  1.00  0.00     0.107 A 
HETATM   19  C   UNL     1     178.639 178.828 169.522  1.00  0.00    -0.007 A 
HETATM   20  C   UNL     1     179.370 180.091 167.500  1.00  0.00     0.020 A 
HETATM   21  C   UNL     1     179.973 181.178 166.846  1.00  0.00    -0.047 A 
HETATM   22  C   UNL     1     180.000 181.172 165.338  1.00  0.00     0.049 C 
BRANCH  13  23
HETATM   23  O   UNL     1     180.961 183.134 169.780  1.00  0.00    -0.359 OA
HETATM   24  H   UNL     1     181.307 182.772 170.611  1.00  0.00     0.217 HD
ENDBRANCH  13  23
BRANCH  15  25
HETATM   25  C   UNL     1     179.896 182.139 172.009  1.00  0.00     0.038 C 
BRANCH  25  26
HETATM   26  C   UNL     1     180.977 182.161 172.816  1.00  0.00     0.101 C 
HETATM   27  C   UNL     1     182.183 181.326 172.615  1.00  0.00     0.265 C 
HETATM   28  O   UNL     1     182.506 180.852 171.532  1.00  0.00    -0.267 OA
HETATM   29  N   UNL     1     182.983 181.193 173.714  1.00  0.00    -0.275 N 
HETATM   30  C   UNL     1     182.963 182.000 174.808  1.00  0.00     0.329 C 
HETATM   31  H   UNL     1     183.808 180.617 173.609  1.00  0.00     0.173 HD
HETATM   32  O   UNL     1     183.796 181.892 175.703  1.00  0.00    -0.246 OA
HETATM   33  N   UNL     1     181.974 182.933 174.865  1.00  0.00    -0.275 N 
HETATM   34  C   UNL     1     180.910 183.038 174.014  1.00  0.00     0.265 C 
HETATM   35  H   UNL     1     181.950 183.508 175.695  1.00  0.00     0.173 HD
HETATM   36  O   UNL     1     179.959 183.766 174.279  1.00  0.00    -0.267 OA
ENDBRANCH  25  26
ENDBRANCH  15  25
BRANCH  17  37
HETATM   37  O   UNL     1     178.338 179.961 172.975  1.00  0.00    -0.357 OA
HETATM   38  H   UNL     1     179.153 180.207 173.469  1.00  0.00     0.217 HD
ENDBRANCH  17  37
BRANCH  18  39
HETATM   39  O   UNL     1     177.710 177.862 171.524  1.00  0.00    -0.357 OA
HETATM   40  H   UNL     1     178.386 177.181 171.718  1.00  0.00     0.217 HD
ENDBRANCH  18  39
BRANCH  19  41
HETATM   41  C   UNL     1     178.264 177.575 168.720  1.00  0.00     0.014 C 
HETATM   42  C   UNL     1     179.007 176.298 169.144  1.00  0.00     0.015 C 
HETATM   43  C   UNL     1     176.749 177.356 168.711  1.00  0.00     0.015 C 
ENDBRANCH  19  41
ENDBRANCH   9  12
BRANCH  10  44
HETATM   44  O   UNL     1     179.265 184.646 166.857  1.00  0.00    -0.359 OA
HETATM   45  H   UNL     1     178.775 184.133 166.186  1.00  0.00     0.217 HD
ENDBRANCH  10  44
BRANCH   6  46
HETATM   46  C   UNL     1     179.457 187.297 166.752  1.00  0.00     0.038 C 
BRANCH  46  47
HETATM   47  C   UNL     1     179.266 187.960 167.912  1.00  0.00     0.101 C 
HETATM   48  C   UNL     1     179.443 187.201 169.176  1.00  0.00     0.265 C 
HETATM   49  N   UNL     1     178.998 187.840 170.297  1.00  0.00    -0.275 N 
HETATM   50  O   UNL     1     179.985 186.103 169.215  1.00  0.00    -0.267 OA
HETATM   51  C   UNL     1     178.527 189.116 170.368  1.00  0.00     0.329 C 
HETATM   52  H   UNL     1     179.140 187.366 171.181  1.00  0.00     0.173 HD
HETATM   53  N   UNL     1     178.361 189.779 169.188  1.00  0.00    -0.275 N 
HETATM   54  O   UNL     1     178.328 189.675 171.440  1.00  0.00    -0.246 OA
HETATM   55  C   UNL     1     178.875 189.381 167.991  1.00  0.00     0.265 C 
HETATM   56  H   UNL     1     178.118 190.756 169.297  1.00  0.00     0.173 HD
HETATM   57  O   UNL     1     179.141 190.162 167.077  1.00  0.00    -0.267 OA
ENDBRANCH  46  47
ENDBRANCH   6  46
BRANCH   3  58
HETATM   58  C   UNL     1     184.343 186.230 163.727  1.00  0.00     0.012 C 
HETATM   59  C   UNL     1     185.698 185.588 164.054  1.00  0.00     0.015 C 
HETATM   60  C   UNL     1     183.711 185.334 162.634  1.00  0.00     0.015 C 
ENDBRANCH   3  58
BRANCH   1  61
HETATM   61  O   UNL     1     181.058 189.333 165.362  1.00  0.00    -0.359 OA
HETATM   62  H   UNL     1     180.253 189.341 164.779  1.00  0.00     0.217 HD
ENDBRANCH   1  61
BRANCH   2  63
HETATM   63  O   UNL     1     183.332 189.023 164.578  1.00  0.00     0.000 OA
HETATM   64  H   UNL     1     183.742 188.956 163.660  1.00  0.00     0.000 HD
BRANCH  63  65
HETATM   65  O   UNL     1     183.976 189.792 165.563  1.00  0.00    -0.177 OA
BRANCH  65  66
HETATM   66  C   UNL     1     185.021 189.250 166.096  1.00  0.00     0.153 C 
HETATM   67  N   UNL     1     184.970 188.845 167.394  1.00  0.00    -0.359 N 
HETATM   68  C   UNL     1     186.282 188.413 167.840  1.00  0.00     0.125 C 
HETATM   69  C   UNL     1     187.011 188.101 166.539  1.00  0.00     0.028 C 
HETATM   70  C   UNL     1     186.377 189.031 165.510  1.00  0.00     0.088 C 
BRANCH  67  71
HETATM   71  C   UNL     1     183.834 189.009 168.310  1.00  0.00     0.077 C 
HETATM   72  C   UNL     1     183.247 187.657 168.710  1.00  0.00     0.032 C 
HETATM   73  C   UNL     1     184.208 189.835 169.539  1.00  0.00     0.032 C 
ENDBRANCH  67  71
ENDBRANCH  65  66
ENDBRANCH  63  65
ENDBRANCH   2  63
TORSDOF 16
ENDMDL
MODEL 10
REMARK VINA RESULT:    -8.993      3.260     10.471
REMARK INTER + INTRA:         -21.195
REMARK INTER:                 -16.577
REMARK INTRA:                  -4.617
REMARK UNBOUND:                -5.105
REMARK  16 active torsions:
REMARK  status: ('A' for Active; 'I' for Inactive)
REMARK    1  A    between atoms: C_2  and  O_4 
REMARK    2  A    between atoms: N_3  and  C_5 
REMARK    3  A    between atoms: O_4  and  O_22 
REMARK    4  A    between atoms: C_8  and  O_23 
REMARK    5  A    between atoms: C_9  and  O_22 
REMARK    6  A    between atoms: C_10  and  C_19 
REMARK    7  A    between atoms: C_13  and  C_24 
REMARK    8  A    between atoms: C_16  and  C_61 
REMARK    9  A    between atoms: C_17  and  O_25 
REMARK   10  A    between atoms: C_24  and  C_28 
REMARK   11  A    between atoms: C_41  and  C_45 
REMARK   12  A    between atoms: C_45  and  C_52 
REMARK   13  A    between atoms: O_46  and  C_53 
REMARK   14  A    between atoms: O_47  and  C_54 
REMARK   15  A    between atoms: C_50  and  C_55 
REMARK   16  A    between atoms: O_51  and  C_56 
ROOT
HETATM    1  C   UNL     1     180.011 184.620 168.461  1.00  0.00     0.088 C 
HETATM    2  C   UNL     1     180.161 184.590 167.076  1.00  0.00     0.019 C 
HETATM    3  C   UNL     1     179.766 183.450 166.338  1.00  0.00    -0.029 C 
HETATM    4  C   UNL     1     179.525 182.247 167.092  1.00  0.00    -0.014 C 
HETATM    5  C   UNL     1     179.311 182.297 168.506  1.00  0.00     0.022 C 
HETATM    6  C   UNL     1     179.567 183.525 169.200  1.00  0.00     0.013 C 
HETATM    7  C   UNL     1     179.561 180.957 166.514  1.00  0.00     0.020 C 
HETATM    8  C   UNL     1     179.290 179.762 167.205  1.00  0.00    -0.047 C 
HETATM    9  C   UNL     1     178.861 179.823 168.535  1.00  0.00     0.017 C 
HETATM   10  C   UNL     1     178.864 181.093 169.151  1.00  0.00     0.089 C 
HETATM   11  C   UNL     1     179.417 178.456 166.455  1.00  0.00     0.049 C 
ENDROOT
BRANCH   9  12
HETATM   12  C   UNL     1     178.453 178.597 169.267  1.00  0.00     0.017 A 
HETATM   13  C   UNL     1     179.334 177.945 170.166  1.00  0.00     0.089 A 
HETATM   14  C   UNL     1     178.992 176.768 170.917  1.00  0.00     0.022 A 
HETATM   15  C   UNL     1     179.827 176.168 171.922  1.00  0.00     0.015 A 
HETATM   16  C   UNL     1     177.725 176.167 170.642  1.00  0.00    -0.012 A 
HETATM   17  C   UNL     1     179.387 175.022 172.584  1.00  0.00     0.110 A 
HETATM   18  C   UNL     1     178.195 174.399 172.245  1.00  0.00     0.107 A 
HETATM   19  C   UNL     1     177.356 174.920 171.255  1.00  0.00    -0.007 A 
HETATM   20  C   UNL     1     176.850 176.855 169.765  1.00  0.00     0.020 A 
HETATM   21  C   UNL     1     177.169 178.059 169.115  1.00  0.00    -0.047 A 
HETATM   22  C   UNL     1     176.114 178.695 168.245  1.00  0.00     0.049 C 
BRANCH  13  23
HETATM   23  O   UNL     1     180.597 178.477 170.334  1.00  0.00    -0.359 OA
HETATM   24  H   UNL     1     181.256 177.766 170.363  1.00  0.00     0.217 HD
ENDBRANCH  13  23
BRANCH  15  25
HETATM   25  C   UNL     1     181.159 176.725 172.258  1.00  0.00     0.038 C 
BRANCH  25  26
HETATM   26  C   UNL     1     182.286 176.707 171.518  1.00  0.00     0.101 C 
HETATM   27  C   UNL     1     182.646 175.623 170.576  1.00  0.00     0.265 C 
HETATM   28  O   UNL     1     181.825 174.867 170.067  1.00  0.00    -0.267 OA
HETATM   29  N   UNL     1     183.965 175.577 170.223  1.00  0.00    -0.275 N 
HETATM   30  C   UNL     1     184.857 176.592 170.370  1.00  0.00     0.329 C 
HETATM   31  H   UNL     1     184.241 174.838 169.590  1.00  0.00     0.173 HD
HETATM   32  O   UNL     1     185.995 176.519 169.918  1.00  0.00    -0.246 OA
HETATM   33  N   UNL     1     184.429 177.694 171.044  1.00  0.00    -0.275 N 
HETATM   34  C   UNL     1     183.249 177.821 171.722  1.00  0.00     0.265 C 
HETATM   35  H   UNL     1     185.107 178.431 171.174  1.00  0.00     0.173 HD
HETATM   36  O   UNL     1     183.055 178.764 172.481  1.00  0.00    -0.267 OA
ENDBRANCH  25  26
ENDBRANCH  15  25
BRANCH  17  37
HETATM   37  O   UNL     1     180.072 174.491 173.650  1.00  0.00    -0.357 OA
HETATM   38  H   UNL     1     180.993 174.415 173.312  1.00  0.00     0.217 HD
ENDBRANCH  17  37
BRANCH  18  39
HETATM   39  O   UNL     1     177.848 173.278 172.948  1.00  0.00    -0.357 OA
HETATM   40  H   UNL     1     178.643 172.708 172.941  1.00  0.00     0.217 HD
ENDBRANCH  18  39
BRANCH  19  41
HETATM   41  C   UNL     1     176.074 174.169 170.872  1.00  0.00     0.014 C 
HETATM   42  C   UNL     1     174.788 175.007 170.965  1.00  0.00     0.015 C 
HETATM   43  C   UNL     1     176.207 173.512 169.497  1.00  0.00     0.015 C 
ENDBRANCH  19  41
ENDBRANCH   9  12
BRANCH  10  44
HETATM   44  O   UNL     1     178.370 181.215 170.436  1.00  0.00    -0.359 OA
HETATM   45  H   UNL     1     178.017 180.361 170.753  1.00  0.00     0.217 HD
ENDBRANCH  10  44
BRANCH   6  46
HETATM   46  C   UNL     1     179.605 183.557 170.685  1.00  0.00     0.038 C 
BRANCH  46  47
HETATM   47  C   UNL     1     180.659 183.572 171.527  1.00  0.00     0.101 C 
HETATM   48  C   UNL     1     181.007 184.865 172.172  1.00  0.00     0.265 C 
HETATM   49  N   UNL     1     182.215 184.884 172.807  1.00  0.00    -0.275 N 
HETATM   50  O   UNL     1     180.249 185.827 172.168  1.00  0.00    -0.267 OA
HETATM   51  C   UNL     1     183.048 183.822 172.992  1.00  0.00     0.329 C 
HETATM   52  H   UNL     1     182.465 185.738 173.290  1.00  0.00     0.173 HD
HETATM   53  N   UNL     1     182.708 182.655 172.374  1.00  0.00    -0.275 N 
HETATM   54  O   UNL     1     184.019 183.883 173.736  1.00  0.00    -0.246 OA
HETATM   55  C   UNL     1     181.490 182.390 171.826  1.00  0.00     0.265 C 
HETATM   56  H   UNL     1     183.292 181.869 172.632  1.00  0.00     0.173 HD
HETATM   57  O   UNL     1     181.032 181.252 171.715  1.00  0.00    -0.267 OA
ENDBRANCH  46  47
ENDBRANCH   6  46
BRANCH   3  58
HETATM   58  C   UNL     1     179.379 183.626 164.845  1.00  0.00     0.012 C 
HETATM   59  C   UNL     1     178.699 184.898 164.320  1.00  0.00     0.015 C 
HETATM   60  C   UNL     1     180.648 183.445 163.977  1.00  0.00     0.015 C 
ENDBRANCH   3  58
BRANCH   1  61
HETATM   61  O   UNL     1     180.332 185.851 168.997  1.00  0.00    -0.359 OA
HETATM   62  H   UNL     1     180.949 185.683 169.758  1.00  0.00     0.217 HD
ENDBRANCH   1  61
BRANCH   2  63
HETATM   63  O   UNL     1     180.768 185.745 166.613  1.00  0.00     0.000 OA
HETATM   64  H   UNL     1     180.253 186.111 165.828  1.00  0.00     0.000 HD
BRANCH  63  65
HETATM   65  O   UNL     1     182.169 185.862 166.629  1.00  0.00    -0.177 OA
BRANCH  65  66
HETATM   66  C   UNL     1     182.743 185.823 165.472  1.00  0.00     0.153 C 
HETATM   67  N   UNL     1     183.721 184.905 165.247  1.00  0.00    -0.359 N 
HETATM   68  C   UNL     1     184.337 185.131 163.952  1.00  0.00     0.125 C 
HETATM   69  C   UNL     1     183.288 185.940 163.199  1.00  0.00     0.028 C 
HETATM   70  C   UNL     1     182.542 186.708 164.286  1.00  0.00     0.088 C 
BRANCH  67  71
HETATM   71  C   UNL     1     184.256 183.949 166.225  1.00  0.00     0.077 C 
HETATM   72  C   UNL     1     183.416 182.675 166.270  1.00  0.00     0.032 C 
HETATM   73  C   UNL     1     185.728 183.633 165.965  1.00  0.00     0.032 C 
ENDBRANCH  67  71
ENDBRANCH  65  66
ENDBRANCH  63  65
ENDBRANCH   2  63
TORSDOF 16
ENDMDL
