MODEL 1
REMARK VINA RESULT:      -8.1      0.000      0.000
REMARK  16 active torsions:
REMARK  status: ('A' for Active; 'I' for Inactive)
REMARK    1  A    between atoms: O_2  and  C_22 
REMARK    2  A    between atoms: O_2  and  C_26 
REMARK    3  A    between atoms: O_4  and  C_18 
REMARK    4  A    between atoms: O_5  and  C_19 
REMARK    5  A    between atoms: O_6  and  C_25 
REMARK    6  A    between atoms: O_6  and  C_29 
REMARK    7  A    between atoms: O_7  and  C_20 
REMARK    8  A    between atoms: O_8  and  C_21 
REMARK    9  A    between atoms: O_9  and  C_23 
REMARK   10  A    between atoms: O_10  and  C_24 
REMARK   11  A    between atoms: O_13  and  C_35 
REMARK   12  A    between atoms: O_14  and  C_40 
REMARK   13  A    between atoms: O_15  and  C_41 
REMARK   14  A    between atoms: O_16  and  C_43 
REMARK   15  A    between atoms: C_17  and  C_26 
REMARK   16  A    between atoms: C_30  and  C_33 
ROOT
HETATM    1  O   UNK     0     184.313 185.737 170.348  0.00  0.00    -0.348 OA
HETATM    2  C   UNK     0     185.639 185.420 169.920  0.00  0.00     0.180 C 
HETATM    3  C   UNK     0     186.617 186.485 170.421  0.00  0.00     0.180 C 
HETATM    4  C   UNK     0     186.188 187.877 169.956  0.00  0.00     0.183 C 
HETATM    5  C   UNK     0     184.712 188.131 170.260  0.00  0.00     0.205 C 
HETATM    6  C   UNK     0     183.840 186.964 169.797  0.00  0.00     0.298 C 
ENDROOT
BRANCH   2   7
HETATM    7  C   UNK     0     185.980 184.037 170.468  0.00  0.00     0.205 C 
BRANCH   7   8
HETATM    8  O   UNK     0     186.565 184.181 171.754  0.00  0.00    -0.356 OA
BRANCH   8   9
HETATM    9  C   UNK     0     185.807 183.501 172.750  0.00  0.00     0.291 C 
HETATM   10  O   UNK     0     184.741 184.303 173.267  0.00  0.00    -0.351 OA
HETATM   11  C   UNK     0     185.175 185.474 173.966  0.00  0.00     0.152 C 
HETATM   12  C   UNK     0     186.068 185.104 175.159  0.00  0.00     0.178 C 
HETATM   13  C   UNK     0     183.919 186.223 174.404  0.00  0.00     0.042 C 
HETATM   14  C   UNK     0     187.233 184.231 174.692  0.00  0.00     0.183 C 
HETATM   15  C   UNK     0     186.731 183.039 173.875  0.00  0.00     0.204 C 
BRANCH  12  16
HETATM   16  O   UNK     0     186.608 186.282 175.755  0.00  0.00    -0.390 OA
HETATM   17  H   UNK     0     187.441 186.491 175.301  0.00  0.00     0.210 HD
ENDBRANCH  12  16
BRANCH  14  18
HETATM   18  O   UNK     0     187.959 183.769 175.829  0.00  0.00    -0.390 OA
HETATM   19  H   UNK     0     188.398 184.538 176.233  0.00  0.00     0.210 HD
ENDBRANCH  14  18
BRANCH  15  20
HETATM   20  O   UNK     0     185.986 182.153 174.713  0.00  0.00    -0.388 OA
HETATM   21  H   UNK     0     185.042 182.249 174.499  0.00  0.00     0.210 HD
ENDBRANCH  15  20
ENDBRANCH   8   9
ENDBRANCH   7   8
ENDBRANCH   2   7
BRANCH   6  22
HETATM   22  O   UNK     0     182.506 187.208 170.240  0.00  0.00    -0.311 OA
BRANCH  22  23
HETATM   23  C   UNK     0     181.581 186.857 169.282  0.00  0.00     0.157 A 
HETATM   24  C   UNK     0     180.867 185.718 169.333  0.00  0.00     0.124 A 
HETATM   25  O   UNK     0     179.952 185.319 168.370  0.00  0.00    -0.306 OA
HETATM   26  C   UNK     0     179.735 186.141 167.294  0.00  0.00     0.096 A 
HETATM   27  C   UNK     0     180.401 187.353 167.123  0.00  0.00     0.084 A 
HETATM   28  C   UNK     0     178.802 185.717 166.347  0.00  0.00     0.075 A 
HETATM   29  C   UNK     0     181.382 187.775 168.135  0.00  0.00     0.223 A 
HETATM   30  C   UNK     0     180.139 188.150 166.005  0.00  0.00     0.085 A 
HETATM   31  O   UNK     0     182.001 188.826 168.035  0.00  0.00    -0.284 OA
HETATM   32  C   UNK     0     179.205 187.724 165.060  0.00  0.00     0.074 A 
HETATM   33  C   UNK     0     178.538 186.511 165.230  0.00  0.00     0.071 A 
BRANCH  24  34
HETATM   34  C   UNK     0     181.005 184.745 170.431  0.00  0.00     0.004 A 
HETATM   35  C   UNK     0     180.284 184.920 171.613  0.00  0.00     0.053 A 
HETATM   36  C   UNK     0     180.413 183.998 172.652  0.00  0.00     0.099 A 
HETATM   37  C   UNK     0     181.263 182.902 172.510  0.00  0.00     0.098 A 
HETATM   38  C   UNK     0     181.985 182.728 171.329  0.00  0.00     0.040 A 
HETATM   39  C   UNK     0     181.855 183.648 170.290  0.00  0.00     0.017 A 
BRANCH  36  40
HETATM   40  O   UNK     0     179.704 184.181 173.802  0.00  0.00    -0.358 OA
HETATM   41  H   UNK     0     178.833 183.762 173.718  0.00  0.00     0.217 HD
ENDBRANCH  36  40
BRANCH  37  42
HETATM   42  O   UNK     0     181.397 181.995 173.518  0.00  0.00    -0.358 OA
HETATM   43  H   UNK     0     181.917 182.382 174.240  0.00  0.00     0.217 HD
ENDBRANCH  37  42
ENDBRANCH  24  34
BRANCH  30  44
HETATM   44  O   UNK     0     180.762 189.341 165.791  0.00  0.00    -0.360 OA
HETATM   45  H   UNK     0     180.100 190.020 165.571  0.00  0.00     0.217 HD
ENDBRANCH  30  44
BRANCH  33  46
HETATM   46  O   UNK     0     177.628 186.099 164.305  0.00  0.00    -0.361 OA
HETATM   47  H   UNK     0     178.004 186.221 163.417  0.00  0.00     0.217 HD
ENDBRANCH  33  46
ENDBRANCH  22  23
ENDBRANCH   6  22
BRANCH   3  48
HETATM   48  O   UNK     0     187.920 186.201 169.918  0.00  0.00    -0.390 OA
HETATM   49  H   UNK     0     188.038 186.698 169.091  0.00  0.00     0.210 HD
ENDBRANCH   3  48
BRANCH   5  50
HETATM   50  O   UNK     0     184.283 189.309 169.577  0.00  0.00    -0.388 OA
HETATM   51  H   UNK     0     184.447 190.071 170.157  0.00  0.00     0.210 HD
ENDBRANCH   5  50
BRANCH   4  52
HETATM   52  O   UNK     0     186.988 188.839 170.647  0.00  0.00    -0.390 OA
HETATM   53  H   UNK     0     186.740 189.718 170.313  0.00  0.00     0.210 HD
ENDBRANCH   4  52
TORSDOF 16
ENDMDL
MODEL 2
REMARK VINA RESULT:      -8.1      6.456     10.965
REMARK  16 active torsions:
REMARK  status: ('A' for Active; 'I' for Inactive)
REMARK    1  A    between atoms: O_2  and  C_22 
REMARK    2  A    between atoms: O_2  and  C_26 
REMARK    3  A    between atoms: O_4  and  C_18 
REMARK    4  A    between atoms: O_5  and  C_19 
REMARK    5  A    between atoms: O_6  and  C_25 
REMARK    6  A    between atoms: O_6  and  C_29 
REMARK    7  A    between atoms: O_7  and  C_20 
REMARK    8  A    between atoms: O_8  and  C_21 
REMARK    9  A    between atoms: O_9  and  C_23 
REMARK   10  A    between atoms: O_10  and  C_24 
REMARK   11  A    between atoms: O_13  and  C_35 
REMARK   12  A    between atoms: O_14  and  C_40 
REMARK   13  A    between atoms: O_15  and  C_41 
REMARK   14  A    between atoms: O_16  and  C_43 
REMARK   15  A    between atoms: C_17  and  C_26 
REMARK   16  A    between atoms: C_30  and  C_33 
ROOT
HETATM    1  O   UNK     0     178.376 178.700 171.813  0.00  0.00    -0.348 OA
HETATM    2  C   UNK     0     177.033 178.666 172.300  0.00  0.00     0.180 C 
HETATM    3  C   UNK     0     176.053 178.608 171.125  0.00  0.00     0.180 C 
HETATM    4  C   UNK     0     176.281 179.780 170.170  0.00  0.00     0.183 C 
HETATM    5  C   UNK     0     177.759 179.914 169.801  0.00  0.00     0.205 C 
HETATM    6  C   UNK     0     178.648 179.870 171.044  0.00  0.00     0.298 C 
ENDROOT
BRANCH   2   7
HETATM    7  C   UNK     0     176.904 177.444 173.204  0.00  0.00     0.205 C 
BRANCH   7   8
HETATM    8  O   UNK     0     177.666 176.380 172.655  0.00  0.00    -0.356 OA
BRANCH   8   9
HETATM    9  C   UNK     0     176.927 175.163 172.640  0.00  0.00     0.291 C 
HETATM   10  O   UNK     0     177.653 174.077 173.225  0.00  0.00    -0.351 OA
HETATM   11  C   UNK     0     178.841 173.715 172.514  0.00  0.00     0.152 C 
HETATM   12  C   UNK     0     178.516 173.304 171.071  0.00  0.00     0.178 C 
HETATM   13  C   UNK     0     179.502 172.583 173.296  0.00  0.00     0.042 C 
HETATM   14  C   UNK     0     177.726 174.411 170.374  0.00  0.00     0.183 C 
HETATM   15  C   UNK     0     176.513 174.827 171.209  0.00  0.00     0.204 C 
BRANCH  12  16
HETATM   16  O   UNK     0     179.719 173.088 170.337  0.00  0.00    -0.390 OA
HETATM   17  H   UNK     0     180.324 173.823 170.532  0.00  0.00     0.210 HD
ENDBRANCH  12  16
BRANCH  14  18
HETATM   18  O   UNK     0     177.299 173.949 169.094  0.00  0.00    -0.390 OA
HETATM   19  H   UNK     0     177.566 173.017 169.011  0.00  0.00     0.210 HD
ENDBRANCH  14  18
BRANCH  15  20
HETATM   20  O   UNK     0     175.572 173.754 171.268  0.00  0.00    -0.388 OA
HETATM   21  H   UNK     0     175.026 173.869 172.065  0.00  0.00     0.210 HD
ENDBRANCH  15  20
ENDBRANCH   8   9
ENDBRANCH   7   8
ENDBRANCH   2   7
BRANCH   6  22
HETATM   22  O   UNK     0     180.008 179.856 170.611  0.00  0.00    -0.311 OA
BRANCH  22  23
HETATM   23  C   UNK     0     180.850 180.375 171.569  0.00  0.00     0.157 A 
HETATM   24  C   UNK     0     181.728 179.626 172.260  0.00  0.00     0.124 A 
HETATM   25  O   UNK     0     182.567 180.111 173.252  0.00  0.00    -0.306 OA
HETATM   26  C   UNK     0     182.524 181.449 173.548  0.00  0.00     0.096 A 
HETATM   27  C   UNK     0     181.668 182.338 172.903  0.00  0.00     0.084 A 
HETATM   28  C   UNK     0     183.386 181.909 174.544  0.00  0.00     0.075 A 
HETATM   29  C   UNK     0     180.766 181.827 171.858  0.00  0.00     0.223 A 
HETATM   30  C   UNK     0     181.666 183.693 173.247  0.00  0.00     0.085 A 
HETATM   31  O   UNK     0     179.989 182.560 171.261  0.00  0.00    -0.284 OA
HETATM   32  C   UNK     0     182.530 184.150 174.244  0.00  0.00     0.074 A 
HETATM   33  C   UNK     0     183.388 183.260 174.890  0.00  0.00     0.071 A 
BRANCH  24  34
HETATM   34  C   UNK     0     181.875 178.176 172.044  0.00  0.00     0.004 A 
HETATM   35  C   UNK     0     182.708 177.702 171.030  0.00  0.00     0.053 A 
HETATM   36  C   UNK     0     182.849 176.329 170.826  0.00  0.00     0.099 A 
HETATM   37  C   UNK     0     182.154 175.430 171.634  0.00  0.00     0.098 A 
HETATM   38  C   UNK     0     181.320 175.903 172.647  0.00  0.00     0.040 A 
HETATM   39  C   UNK     0     181.181 177.275 172.852  0.00  0.00     0.017 A 
BRANCH  36  40
HETATM   40  O   UNK     0     183.665 175.879 169.832  0.00  0.00    -0.358 OA
HETATM   41  H   UNK     0     183.795 174.921 169.925  0.00  0.00     0.217 HD
ENDBRANCH  36  40
BRANCH  37  42
HETATM   42  O   UNK     0     182.283 174.087 171.445  0.00  0.00    -0.358 OA
HETATM   43  H   UNK     0     183.119 173.899 170.989  0.00  0.00     0.217 HD
ENDBRANCH  37  42
ENDBRANCH  24  34
BRANCH  30  44
HETATM   44  O   UNK     0     180.850 184.602 172.648  0.00  0.00    -0.360 OA
HETATM   45  H   UNK     0     180.693 184.340 171.724  0.00  0.00     0.217 HD
ENDBRANCH  30  44
BRANCH  33  46
HETATM   46  O   UNK     0     184.228 183.711 175.862  0.00  0.00    -0.361 OA
HETATM   47  H   UNK     0     184.182 183.108 176.624  0.00  0.00     0.217 HD
ENDBRANCH  33  46
ENDBRANCH  22  23
ENDBRANCH   6  22
BRANCH   3  48
HETATM   48  O   UNK     0     174.718 178.658 171.622  0.00  0.00    -0.390 OA
HETATM   49  H   UNK     0     174.131 178.892 170.883  0.00  0.00     0.210 HD
ENDBRANCH   3  48
BRANCH   5  50
HETATM   50  O   UNK     0     177.972 181.162 169.143  0.00  0.00    -0.388 OA
HETATM   51  H   UNK     0     178.910 181.217 168.897  0.00  0.00     0.210 HD
ENDBRANCH   5  50
BRANCH   4  52
HETATM   52  O   UNK     0     175.516 179.541 168.987  0.00  0.00    -0.390 OA
HETATM   53  H   UNK     0     175.217 180.405 168.655  0.00  0.00     0.210 HD
ENDBRANCH   4  52
TORSDOF 16
ENDMDL
MODEL 3
REMARK VINA RESULT:      -8.1      6.802     11.249
REMARK  16 active torsions:
REMARK  status: ('A' for Active; 'I' for Inactive)
REMARK    1  A    between atoms: O_2  and  C_22 
REMARK    2  A    between atoms: O_2  and  C_26 
REMARK    3  A    between atoms: O_4  and  C_18 
REMARK    4  A    between atoms: O_5  and  C_19 
REMARK    5  A    between atoms: O_6  and  C_25 
REMARK    6  A    between atoms: O_6  and  C_29 
REMARK    7  A    between atoms: O_7  and  C_20 
REMARK    8  A    between atoms: O_8  and  C_21 
REMARK    9  A    between atoms: O_9  and  C_23 
REMARK   10  A    between atoms: O_10  and  C_24 
REMARK   11  A    between atoms: O_13  and  C_35 
REMARK   12  A    between atoms: O_14  and  C_40 
REMARK   13  A    between atoms: O_15  and  C_41 
REMARK   14  A    between atoms: O_16  and  C_43 
REMARK   15  A    between atoms: C_17  and  C_26 
REMARK   16  A    between atoms: C_30  and  C_33 
ROOT
HETATM    1  O   UNK     0     178.415 178.444 171.385  0.00  0.00    -0.348 OA
HETATM    2  C   UNK     0     177.109 178.215 171.917  0.00  0.00     0.180 C 
HETATM    3  C   UNK     0     176.049 178.625 170.892  0.00  0.00     0.180 C 
HETATM    4  C   UNK     0     176.241 180.081 170.465  0.00  0.00     0.183 C 
HETATM    5  C   UNK     0     177.693 180.355 170.071  0.00  0.00     0.205 C 
HETATM    6  C   UNK     0     178.665 179.824 171.124  0.00  0.00     0.298 C 
ENDROOT
BRANCH   2   7
HETATM    7  C   UNK     0     177.011 176.735 172.271  0.00  0.00     0.205 C 
BRANCH   7   8
HETATM    8  O   UNK     0     176.554 176.017 171.134  0.00  0.00    -0.356 OA
BRANCH   8   9
HETATM    9  C   UNK     0     177.545 175.112 170.657  0.00  0.00     0.291 C 
HETATM   10  O   UNK     0     177.096 174.359 169.526  0.00  0.00    -0.351 OA
HETATM   11  C   UNK     0     175.998 173.484 169.801  0.00  0.00     0.152 C 
HETATM   12  C   UNK     0     176.363 172.468 170.892  0.00  0.00     0.178 C 
HETATM   13  C   UNK     0     175.628 172.803 168.486  0.00  0.00     0.042 C 
HETATM   14  C   UNK     0     176.867 173.194 172.140  0.00  0.00     0.183 C 
HETATM   15  C   UNK     0     177.980 174.181 171.787  0.00  0.00     0.204 C 
BRANCH  12  16
HETATM   16  O   UNK     0     175.217 171.702 171.257  0.00  0.00    -0.390 OA
HETATM   17  H   UNK     0     174.440 172.107 170.836  0.00  0.00     0.210 HD
ENDBRANCH  12  16
BRANCH  14  18
HETATM   18  O   UNK     0     177.347 172.235 173.079  0.00  0.00    -0.390 OA
HETATM   19  H   UNK     0     176.594 171.681 173.349  0.00  0.00     0.210 HD
ENDBRANCH  14  18
BRANCH  15  20
HETATM   20  O   UNK     0     179.138 173.471 171.344  0.00  0.00    -0.388 OA
HETATM   21  H   UNK     0     179.576 173.999 170.654  0.00  0.00     0.210 HD
ENDBRANCH  15  20
ENDBRANCH   8   9
ENDBRANCH   7   8
ENDBRANCH   2   7
BRANCH   6  22
HETATM   22  O   UNK     0     179.990 179.987 170.621  0.00  0.00    -0.311 OA
BRANCH  22  23
HETATM   23  C   UNK     0     180.843 180.476 171.587  0.00  0.00     0.157 A 
HETATM   24  C   UNK     0     181.690 179.696 172.282  0.00  0.00     0.124 A 
HETATM   25  O   UNK     0     182.536 180.151 173.282  0.00  0.00    -0.306 OA
HETATM   26  C   UNK     0     182.536 181.489 173.581  0.00  0.00     0.096 A 
HETATM   27  C   UNK     0     181.715 182.408 172.931  0.00  0.00     0.084 A 
HETATM   28  C   UNK     0     183.405 181.918 174.584  0.00  0.00     0.075 A 
HETATM   29  C   UNK     0     180.805 181.929 171.879  0.00  0.00     0.223 A 
HETATM   30  C   UNK     0     181.756 183.761 173.278  0.00  0.00     0.085 A 
HETATM   31  O   UNK     0     180.056 182.688 171.278  0.00  0.00    -0.284 OA
HETATM   32  C   UNK     0     182.627 184.187 174.282  0.00  0.00     0.074 A 
HETATM   33  C   UNK     0     183.450 183.268 174.933  0.00  0.00     0.071 A 
BRANCH  24  34
HETATM   34  C   UNK     0     181.789 178.242 172.064  0.00  0.00     0.004 A 
HETATM   35  C   UNK     0     182.628 177.742 171.067  0.00  0.00     0.053 A 
HETATM   36  C   UNK     0     182.724 176.367 170.861  0.00  0.00     0.099 A 
HETATM   37  C   UNK     0     181.980 175.490 171.650  0.00  0.00     0.098 A 
HETATM   38  C   UNK     0     181.140 175.989 172.645  0.00  0.00     0.040 A 
HETATM   39  C   UNK     0     181.046 177.365 172.852  0.00  0.00     0.017 A 
BRANCH  36  40
HETATM   40  O   UNK     0     183.546 175.890 169.884  0.00  0.00    -0.358 OA
HETATM   41  H   UNK     0     183.326 174.964 169.695  0.00  0.00     0.217 HD
ENDBRANCH  36  40
BRANCH  37  42
HETATM   42  O   UNK     0     182.066 174.144 171.458  0.00  0.00    -0.358 OA
HETATM   43  H   UNK     0     182.972 173.906 171.206  0.00  0.00     0.217 HD
ENDBRANCH  37  42
ENDBRANCH  24  34
BRANCH  30  44
HETATM   44  O   UNK     0     180.974 184.698 172.676  0.00  0.00    -0.360 OA
HETATM   45  H   UNK     0     180.093 184.324 172.502  0.00  0.00     0.217 HD
ENDBRANCH  30  44
BRANCH  33  46
HETATM   46  O   UNK     0     184.297 183.688 175.912  0.00  0.00    -0.361 OA
HETATM   47  H   UNK     0     184.815 184.441 175.580  0.00  0.00     0.217 HD
ENDBRANCH  33  46
ENDBRANCH  22  23
ENDBRANCH   6  22
BRANCH   3  48
HETATM   48  O   UNK     0     174.754 178.470 171.466  0.00  0.00    -0.390 OA
HETATM   49  H   UNK     0     174.174 178.070 170.796  0.00  0.00     0.210 HD
ENDBRANCH   3  48
BRANCH   5  50
HETATM   50  O   UNK     0     177.892 181.763 169.946  0.00  0.00    -0.388 OA
HETATM   51  H   UNK     0     177.260 182.210 170.534  0.00  0.00     0.210 HD
ENDBRANCH   5  50
BRANCH   4  52
HETATM   52  O   UNK     0     175.389 180.329 169.345  0.00  0.00    -0.390 OA
HETATM   53  H   UNK     0     175.772 181.071 168.847  0.00  0.00     0.210 HD
ENDBRANCH   4  52
TORSDOF 16
ENDMDL
MODEL 4
REMARK VINA RESULT:      -8.0      2.736      6.571
REMARK  16 active torsions:
REMARK  status: ('A' for Active; 'I' for Inactive)
REMARK    1  A    between atoms: O_2  and  C_22 
REMARK    2  A    between atoms: O_2  and  C_26 
REMARK    3  A    between atoms: O_4  and  C_18 
REMARK    4  A    between atoms: O_5  and  C_19 
REMARK    5  A    between atoms: O_6  and  C_25 
REMARK    6  A    between atoms: O_6  and  C_29 
REMARK    7  A    between atoms: O_7  and  C_20 
REMARK    8  A    between atoms: O_8  and  C_21 
REMARK    9  A    between atoms: O_9  and  C_23 
REMARK   10  A    between atoms: O_10  and  C_24 
REMARK   11  A    between atoms: O_13  and  C_35 
REMARK   12  A    between atoms: O_14  and  C_40 
REMARK   13  A    between atoms: O_15  and  C_41 
REMARK   14  A    between atoms: O_16  and  C_43 
REMARK   15  A    between atoms: C_17  and  C_26 
REMARK   16  A    between atoms: C_30  and  C_33 
ROOT
HETATM    1  O   UNK     0     184.277 185.501 172.922  0.00  0.00    -0.348 OA
HETATM    2  C   UNK     0     184.226 184.439 173.877  0.00  0.00     0.180 C 
HETATM    3  C   UNK     0     184.561 184.974 175.271  0.00  0.00     0.180 C 
HETATM    4  C   UNK     0     185.921 185.673 175.272  0.00  0.00     0.183 C 
HETATM    5  C   UNK     0     186.026 186.681 174.127  0.00  0.00     0.205 C 
HETATM    6  C   UNK     0     185.582 186.064 172.801  0.00  0.00     0.298 C 
ENDROOT
BRANCH   2   7
HETATM    7  C   UNK     0     182.824 183.840 173.823  0.00  0.00     0.205 C 
BRANCH   7   8
HETATM    8  O   UNK     0     182.589 183.329 172.520  0.00  0.00    -0.356 OA
BRANCH   8   9
HETATM    9  C   UNK     0     183.301 182.116 172.299  0.00  0.00     0.291 C 
HETATM   10  O   UNK     0     183.586 181.895 170.915  0.00  0.00    -0.351 OA
HETATM   11  C   UNK     0     182.425 181.714 170.098  0.00  0.00     0.152 C 
HETATM   12  C   UNK     0     181.596 180.514 170.575  0.00  0.00     0.178 C 
HETATM   13  C   UNK     0     182.912 181.537 168.662  0.00  0.00     0.042 C 
HETATM   14  C   UNK     0     181.256 180.666 172.058  0.00  0.00     0.183 C 
HETATM   15  C   UNK     0     182.514 180.943 172.883  0.00  0.00     0.204 C 
BRANCH  12  16
HETATM   16  O   UNK     0     180.373 180.437 169.846  0.00  0.00    -0.390 OA
HETATM   17  H   UNK     0     179.689 180.897 170.361  0.00  0.00     0.210 HD
ENDBRANCH  12  16
BRANCH  14  18
HETATM   18  O   UNK     0     180.625 179.474 172.521  0.00  0.00    -0.390 OA
HETATM   19  H   UNK     0     180.718 178.800 171.825  0.00  0.00     0.210 HD
ENDBRANCH  14  18
BRANCH  15  20
HETATM   20  O   UNK     0     183.368 179.798 172.869  0.00  0.00    -0.388 OA
HETATM   21  H   UNK     0     182.843 179.028 172.591  0.00  0.00     0.210 HD
ENDBRANCH  15  20
ENDBRANCH   8   9
ENDBRANCH   7   8
ENDBRANCH   2   7
BRANCH   6  22
HETATM   22  O   UNK     0     185.570 187.097 171.817  0.00  0.00    -0.311 OA
BRANCH  22  23
HETATM   23  C   UNK     0     186.000 186.637 170.592  0.00  0.00     0.157 A 
HETATM   24  C   UNK     0     185.167 186.392 169.565  0.00  0.00     0.124 A 
HETATM   25  O   UNK     0     185.562 185.898 168.332  0.00  0.00    -0.306 OA
HETATM   26  C   UNK     0     186.895 185.654 168.121  0.00  0.00     0.096 A 
HETATM   27  C   UNK     0     187.865 185.872 169.097  0.00  0.00     0.084 A 
HETATM   28  C   UNK     0     187.263 185.166 166.867  0.00  0.00     0.075 A 
HETATM   29  C   UNK     0     187.450 186.384 170.412  0.00  0.00     0.223 A 
HETATM   30  C   UNK     0     189.210 185.605 168.827  0.00  0.00     0.085 A 
HETATM   31  O   UNK     0     188.257 186.589 171.309  0.00  0.00    -0.284 OA
HETATM   32  C   UNK     0     189.576 185.117 167.571  0.00  0.00     0.074 A 
HETATM   33  C   UNK     0     188.605 184.899 166.593  0.00  0.00     0.071 A 
BRANCH  24  34
HETATM   34  C   UNK     0     183.712 186.608 169.657  0.00  0.00     0.004 A 
HETATM   35  C   UNK     0     182.875 185.565 170.055  0.00  0.00     0.053 A 
HETATM   36  C   UNK     0     181.498 185.769 170.143  0.00  0.00     0.099 A 
HETATM   37  C   UNK     0     180.957 187.017 169.833  0.00  0.00     0.098 A 
HETATM   38  C   UNK     0     181.793 188.060 169.435  0.00  0.00     0.040 A 
HETATM   39  C   UNK     0     183.170 187.856 169.348  0.00  0.00     0.017 A 
BRANCH  36  40
HETATM   40  O   UNK     0     180.691 184.742 170.531  0.00  0.00    -0.358 OA
HETATM   41  H   UNK     0     179.814 184.846 170.128  0.00  0.00     0.217 HD
ENDBRANCH  36  40
BRANCH  37  42
HETATM   42  O   UNK     0     179.614 187.229 169.917  0.00  0.00    -0.358 OA
HETATM   43  H   UNK     0     179.146 186.582 169.366  0.00  0.00     0.217 HD
ENDBRANCH  37  42
ENDBRANCH  24  34
BRANCH  30  44
HETATM   44  O   UNK     0     190.197 185.799 169.744  0.00  0.00    -0.360 OA
HETATM   45  H   UNK     0     190.353 184.973 170.234  0.00  0.00     0.217 HD
ENDBRANCH  30  44
BRANCH  33  46
HETATM   46  O   UNK     0     188.966 184.423 165.370  0.00  0.00    -0.361 OA
HETATM   47  H   UNK     0     189.733 184.928 165.049  0.00  0.00     0.217 HD
ENDBRANCH  33  46
ENDBRANCH  22  23
ENDBRANCH   6  22
BRANCH   3  48
HETATM   48  O   UNK     0     184.589 183.891 176.197  0.00  0.00    -0.390 OA
HETATM   49  H   UNK     0     183.844 184.001 176.812  0.00  0.00     0.210 HD
ENDBRANCH   3  48
BRANCH   5  50
HETATM   50  O   UNK     0     187.381 187.106 173.992  0.00  0.00    -0.388 OA
HETATM   51  H   UNK     0     187.690 186.852 173.106  0.00  0.00     0.210 HD
ENDBRANCH   5  50
BRANCH   4  52
HETATM   52  O   UNK     0     186.067 186.354 176.520  0.00  0.00    -0.390 OA
HETATM   53  H   UNK     0     185.685 187.241 176.413  0.00  0.00     0.210 HD
ENDBRANCH   4  52
TORSDOF 16
ENDMDL
MODEL 5
REMARK VINA RESULT:      -8.0      7.000     11.131
REMARK  16 active torsions:
REMARK  status: ('A' for Active; 'I' for Inactive)
REMARK    1  A    between atoms: O_2  and  C_22 
REMARK    2  A    between atoms: O_2  and  C_26 
REMARK    3  A    between atoms: O_4  and  C_18 
REMARK    4  A    between atoms: O_5  and  C_19 
REMARK    5  A    between atoms: O_6  and  C_25 
REMARK    6  A    between atoms: O_6  and  C_29 
REMARK    7  A    between atoms: O_7  and  C_20 
REMARK    8  A    between atoms: O_8  and  C_21 
REMARK    9  A    between atoms: O_9  and  C_23 
REMARK   10  A    between atoms: O_10  and  C_24 
REMARK   11  A    between atoms: O_13  and  C_35 
REMARK   12  A    between atoms: O_14  and  C_40 
REMARK   13  A    between atoms: O_15  and  C_41 
REMARK   14  A    between atoms: O_16  and  C_43 
REMARK   15  A    between atoms: C_17  and  C_26 
REMARK   16  A    between atoms: C_30  and  C_33 
ROOT
HETATM    1  O   UNK     0     179.498 177.036 170.592  0.00  0.00    -0.348 OA
HETATM    2  C   UNK     0     179.634 176.529 169.262  0.00  0.00     0.180 C 
HETATM    3  C   UNK     0     180.545 175.300 169.263  0.00  0.00     0.180 C 
HETATM    4  C   UNK     0     181.902 175.630 169.886  0.00  0.00     0.183 C 
HETATM    5  C   UNK     0     181.736 176.339 171.230  0.00  0.00     0.205 C 
HETATM    6  C   UNK     0     180.737 177.492 171.131  0.00  0.00     0.298 C 
ENDROOT
BRANCH   2   7
HETATM    7  C   UNK     0     178.235 176.195 168.754  0.00  0.00     0.205 C 
BRANCH   7   8
HETATM    8  O   UNK     0     177.842 174.934 169.274  0.00  0.00    -0.356 OA
BRANCH   8   9
HETATM    9  C   UNK     0     176.618 175.026 169.995  0.00  0.00     0.291 C 
HETATM   10  O   UNK     0     176.815 175.406 171.360  0.00  0.00    -0.351 OA
HETATM   11  C   UNK     0     177.549 174.452 172.134  0.00  0.00     0.152 C 
HETATM   12  C   UNK     0     176.836 173.093 172.153  0.00  0.00     0.178 C 
HETATM   13  C   UNK     0     177.701 175.037 173.537  0.00  0.00     0.042 C 
HETATM   14  C   UNK     0     176.574 172.616 170.724  0.00  0.00     0.183 C 
HETATM   15  C   UNK     0     175.866 173.699 169.908  0.00  0.00     0.204 C 
BRANCH  12  16
HETATM   16  O   UNK     0     177.648 172.118 172.804  0.00  0.00    -0.390 OA
HETATM   17  H   UNK     0     178.559 172.225 172.481  0.00  0.00     0.210 HD
ENDBRANCH  12  16
BRANCH  14  18
HETATM   18  O   UNK     0     175.776 171.436 170.761  0.00  0.00    -0.390 OA
HETATM   19  H   UNK     0     176.209 170.767 170.203  0.00  0.00     0.210 HD
ENDBRANCH  14  18
BRANCH  15  20
HETATM   20  O   UNK     0     174.549 173.911 170.418  0.00  0.00    -0.388 OA
HETATM   21  H   UNK     0     173.909 173.602 169.753  0.00  0.00     0.210 HD
ENDBRANCH  15  20
ENDBRANCH   8   9
ENDBRANCH   7   8
ENDBRANCH   2   7
BRANCH   6  22
HETATM   22  O   UNK     0     180.529 178.007 172.446  0.00  0.00    -0.311 OA
BRANCH  22  23
HETATM   23  C   UNK     0     180.563 179.384 172.461  0.00  0.00     0.157 A 
HETATM   24  C   UNK     0     179.478 180.148 172.241  0.00  0.00     0.124 A 
HETATM   25  O   UNK     0     179.483 181.535 172.218  0.00  0.00    -0.306 OA
HETATM   26  C   UNK     0     180.665 182.188 172.453  0.00  0.00     0.096 A 
HETATM   27  C   UNK     0     181.861 181.518 172.703  0.00  0.00     0.084 A 
HETATM   28  C   UNK     0     180.637 183.583 172.433  0.00  0.00     0.075 A 
HETATM   29  C   UNK     0     181.864 180.047 172.716  0.00  0.00     0.223 A 
HETATM   30  C   UNK     0     183.037 182.237 172.935  0.00  0.00     0.085 A 
HETATM   31  O   UNK     0     182.885 179.406 172.925  0.00  0.00    -0.284 OA
HETATM   32  C   UNK     0     183.006 183.632 172.914  0.00  0.00     0.074 A 
HETATM   33  C   UNK     0     181.809 184.304 172.664  0.00  0.00     0.071 A 
BRANCH  24  34
HETATM   34  C   UNK     0     178.146 179.575 171.973  0.00  0.00     0.004 A 
HETATM   35  C   UNK     0     177.550 179.749 170.724  0.00  0.00     0.053 A 
HETATM   36  C   UNK     0     176.291 179.206 170.470  0.00  0.00     0.099 A 
HETATM   37  C   UNK     0     175.627 178.489 171.465  0.00  0.00     0.098 A 
HETATM   38  C   UNK     0     176.222 178.315 172.714  0.00  0.00     0.040 A 
HETATM   39  C   UNK     0     177.482 178.858 172.968  0.00  0.00     0.017 A 
BRANCH  36  40
HETATM   40  O   UNK     0     175.719 179.384 169.246  0.00  0.00    -0.358 OA
HETATM   41  H   UNK     0     174.867 178.918 169.213  0.00  0.00     0.217 HD
ENDBRANCH  36  40
BRANCH  37  42
HETATM   42  O   UNK     0     174.397 177.953 171.228  0.00  0.00    -0.358 OA
HETATM   43  H   UNK     0     174.182 177.309 171.921  0.00  0.00     0.217 HD
ENDBRANCH  37  42
ENDBRANCH  24  34
BRANCH  30  44
HETATM   44  O   UNK     0     184.231 181.632 173.183  0.00  0.00    -0.360 OA
HETATM   45  H   UNK     0     184.122 180.979 173.896  0.00  0.00     0.217 HD
ENDBRANCH  30  44
BRANCH  33  46
HETATM   46  O   UNK     0     181.784 185.664 172.645  0.00  0.00    -0.361 OA
HETATM   47  H   UNK     0     181.568 185.963 171.745  0.00  0.00     0.217 HD
ENDBRANCH  33  46
ENDBRANCH  22  23
ENDBRANCH   6  22
BRANCH   3  48
HETATM   48  O   UNK     0     180.738 174.855 167.923  0.00  0.00    -0.390 OA
HETATM   49  H   UNK     0     180.031 175.236 167.375  0.00  0.00     0.210 HD
ENDBRANCH   3  48
BRANCH   5  50
HETATM   50  O   UNK     0     182.994 176.871 171.644  0.00  0.00    -0.388 OA
HETATM   51  H   UNK     0     183.233 177.589 171.035  0.00  0.00     0.210 HD
ENDBRANCH   5  50
BRANCH   4  52
HETATM   52  O   UNK     0     182.610 174.404 170.079  0.00  0.00    -0.390 OA
HETATM   53  H   UNK     0     182.040 173.819 170.607  0.00  0.00     0.210 HD
ENDBRANCH   4  52
TORSDOF 16
ENDMDL
MODEL 6
REMARK VINA RESULT:      -8.0      2.749      6.503
REMARK  16 active torsions:
REMARK  status: ('A' for Active; 'I' for Inactive)
REMARK    1  A    between atoms: O_2  and  C_22 
REMARK    2  A    between atoms: O_2  and  C_26 
REMARK    3  A    between atoms: O_4  and  C_18 
REMARK    4  A    between atoms: O_5  and  C_19 
REMARK    5  A    between atoms: O_6  and  C_25 
REMARK    6  A    between atoms: O_6  and  C_29 
REMARK    7  A    between atoms: O_7  and  C_20 
REMARK    8  A    between atoms: O_8  and  C_21 
REMARK    9  A    between atoms: O_9  and  C_23 
REMARK   10  A    between atoms: O_10  and  C_24 
REMARK   11  A    between atoms: O_13  and  C_35 
REMARK   12  A    between atoms: O_14  and  C_40 
REMARK   13  A    between atoms: O_15  and  C_41 
REMARK   14  A    between atoms: O_16  and  C_43 
REMARK   15  A    between atoms: C_17  and  C_26 
REMARK   16  A    between atoms: C_30  and  C_33 
ROOT
HETATM    1  O   UNK     0     184.264 185.558 172.964  0.00  0.00    -0.348 OA
HETATM    2  C   UNK     0     184.191 184.511 173.933  0.00  0.00     0.180 C 
HETATM    3  C   UNK     0     184.555 185.055 175.317  0.00  0.00     0.180 C 
HETATM    4  C   UNK     0     185.934 185.714 175.295  0.00  0.00     0.183 C 
HETATM    5  C   UNK     0     186.058 186.703 174.136  0.00  0.00     0.205 C 
HETATM    6  C   UNK     0     185.583 186.081 172.822  0.00  0.00     0.298 C 
ENDROOT
BRANCH   2   7
HETATM    7  C   UNK     0     182.771 183.954 173.901  0.00  0.00     0.205 C 
BRANCH   7   8
HETATM    8  O   UNK     0     182.828 182.557 173.650  0.00  0.00    -0.356 OA
BRANCH   8   9
HETATM    9  C   UNK     0     182.676 182.271 172.263  0.00  0.00     0.291 C 
HETATM   10  O   UNK     0     181.331 181.920 171.923  0.00  0.00    -0.351 OA
HETATM   11  C   UNK     0     180.869 180.710 172.533  0.00  0.00     0.152 C 
HETATM   12  C   UNK     0     181.752 179.519 172.132  0.00  0.00     0.178 C 
HETATM   13  C   UNK     0     179.418 180.517 172.098  0.00  0.00     0.042 C 
HETATM   14  C   UNK     0     183.216 179.819 172.453  0.00  0.00     0.183 C 
HETATM   15  C   UNK     0     183.644 181.161 171.856  0.00  0.00     0.204 C 
BRANCH  12  16
HETATM   16  O   UNK     0     181.368 178.354 172.859  0.00  0.00    -0.390 OA
HETATM   17  H   UNK     0     181.786 177.586 172.434  0.00  0.00     0.210 HD
ENDBRANCH  12  16
BRANCH  14  18
HETATM   18  O   UNK     0     184.034 178.774 171.933  0.00  0.00    -0.390 OA
HETATM   19  H   UNK     0     184.892 179.163 171.686  0.00  0.00     0.210 HD
ENDBRANCH  14  18
BRANCH  15  20
HETATM   20  O   UNK     0     183.640 181.083 170.430  0.00  0.00    -0.388 OA
HETATM   21  H   UNK     0     184.326 180.450 170.155  0.00  0.00     0.210 HD
ENDBRANCH  15  20
ENDBRANCH   8   9
ENDBRANCH   7   8
ENDBRANCH   2   7
BRANCH   6  22
HETATM   22  O   UNK     0     185.592 187.100 171.824  0.00  0.00    -0.311 OA
BRANCH  22  23
HETATM   23  C   UNK     0     186.007 186.612 170.604  0.00  0.00     0.157 A 
HETATM   24  C   UNK     0     185.158 186.331 169.599  0.00  0.00     0.124 A 
HETATM   25  O   UNK     0     185.538 185.808 168.372  0.00  0.00    -0.306 OA
HETATM   26  C   UNK     0     186.870 185.576 168.145  0.00  0.00     0.096 A 
HETATM   27  C   UNK     0     187.854 185.831 169.097  0.00  0.00     0.084 A 
HETATM   28  C   UNK     0     187.222 185.059 166.897  0.00  0.00     0.075 A 
HETATM   29  C   UNK     0     187.456 186.373 170.405  0.00  0.00     0.223 A 
HETATM   30  C   UNK     0     189.198 185.573 168.810  0.00  0.00     0.085 A 
HETATM   31  O   UNK     0     188.276 186.611 171.282  0.00  0.00    -0.284 OA
HETATM   32  C   UNK     0     189.547 185.056 167.561  0.00  0.00     0.074 A 
HETATM   33  C   UNK     0     188.562 184.800 166.607  0.00  0.00     0.071 A 
BRANCH  24  34
HETATM   34  C   UNK     0     183.703 186.531 169.711  0.00  0.00     0.004 A 
HETATM   35  C   UNK     0     182.882 185.479 170.116  0.00  0.00     0.053 A 
HETATM   36  C   UNK     0     181.505 185.669 170.224  0.00  0.00     0.099 A 
HETATM   37  C   UNK     0     180.947 186.911 169.926  0.00  0.00     0.098 A 
HETATM   38  C   UNK     0     181.767 187.964 169.519  0.00  0.00     0.040 A 
HETATM   39  C   UNK     0     183.144 187.774 169.413  0.00  0.00     0.017 A 
BRANCH  36  40
HETATM   40  O   UNK     0     180.713 184.632 170.620  0.00  0.00    -0.358 OA
HETATM   41  H   UNK     0     180.952 183.832 170.124  0.00  0.00     0.217 HD
ENDBRANCH  36  40
BRANCH  37  42
HETATM   42  O   UNK     0     179.603 187.109 170.028  0.00  0.00    -0.358 OA
HETATM   43  H   UNK     0     179.329 187.025 170.954  0.00  0.00     0.217 HD
ENDBRANCH  37  42
ENDBRANCH  24  34
BRANCH  30  44
HETATM   44  O   UNK     0     190.198 185.803 169.704  0.00  0.00    -0.360 OA
HETATM   45  H   UNK     0     190.766 185.016 169.767  0.00  0.00     0.217 HD
ENDBRANCH  30  44
BRANCH  33  46
HETATM   46  O   UNK     0     188.908 184.297 165.391  0.00  0.00    -0.361 OA
HETATM   47  H   UNK     0     189.611 184.849 165.008  0.00  0.00     0.217 HD
ENDBRANCH  33  46
ENDBRANCH  22  23
ENDBRANCH   6  22
BRANCH   3  48
HETATM   48  O   UNK     0     184.559 183.985 176.258  0.00  0.00    -0.390 OA
HETATM   49  H   UNK     0     183.688 183.959 176.688  0.00  0.00     0.210 HD
ENDBRANCH   3  48
BRANCH   5  50
HETATM   50  O   UNK     0     187.424 187.086 173.982  0.00  0.00    -0.388 OA
HETATM   51  H   UNK     0     187.532 187.467 173.095  0.00  0.00     0.210 HD
ENDBRANCH   5  50
BRANCH   4  52
HETATM   52  O   UNK     0     186.112 186.408 176.532  0.00  0.00    -0.390 OA
HETATM   53  H   UNK     0     186.400 185.755 177.193  0.00  0.00     0.210 HD
ENDBRANCH   4  52
TORSDOF 16
ENDMDL
MODEL 7
REMARK VINA RESULT:      -8.0      1.693      2.322
REMARK  16 active torsions:
REMARK  status: ('A' for Active; 'I' for Inactive)
REMARK    1  A    between atoms: O_2  and  C_22 
REMARK    2  A    between atoms: O_2  and  C_26 
REMARK    3  A    between atoms: O_4  and  C_18 
REMARK    4  A    between atoms: O_5  and  C_19 
REMARK    5  A    between atoms: O_6  and  C_25 
REMARK    6  A    between atoms: O_6  and  C_29 
REMARK    7  A    between atoms: O_7  and  C_20 
REMARK    8  A    between atoms: O_8  and  C_21 
REMARK    9  A    between atoms: O_9  and  C_23 
REMARK   10  A    between atoms: O_10  and  C_24 
REMARK   11  A    between atoms: O_13  and  C_35 
REMARK   12  A    between atoms: O_14  and  C_40 
REMARK   13  A    between atoms: O_15  and  C_41 
REMARK   14  A    between atoms: O_16  and  C_43 
REMARK   15  A    between atoms: C_17  and  C_26 
REMARK   16  A    between atoms: C_30  and  C_33 
ROOT
HETATM    1  O   UNK     0     183.131 186.952 170.384  0.00  0.00    -0.348 OA
HETATM    2  C   UNK     0     184.228 186.117 170.759  0.00  0.00     0.180 C 
HETATM    3  C   UNK     0     185.430 186.980 171.150  0.00  0.00     0.180 C 
HETATM    4  C   UNK     0     185.805 187.934 170.016  0.00  0.00     0.183 C 
HETATM    5  C   UNK     0     184.580 188.691 169.502  0.00  0.00     0.205 C 
HETATM    6  C   UNK     0     183.414 187.741 169.230  0.00  0.00     0.298 C 
ENDROOT
BRANCH   2   7
HETATM    7  C   UNK     0     183.761 185.239 171.916  0.00  0.00     0.205 C 
BRANCH   7   8
HETATM    8  O   UNK     0     184.656 184.146 172.056  0.00  0.00    -0.356 OA
BRANCH   8   9
HETATM    9  C   UNK     0     184.540 183.539 173.339  0.00  0.00     0.291 C 
HETATM   10  O   UNK     0     184.288 184.496 174.374  0.00  0.00    -0.351 OA
HETATM   11  C   UNK     0     185.351 185.432 174.579  0.00  0.00     0.152 C 
HETATM   12  C   UNK     0     186.655 184.713 174.950  0.00  0.00     0.178 C 
HETATM   13  C   UNK     0     184.895 186.392 175.675  0.00  0.00     0.042 C 
HETATM   14  C   UNK     0     186.993 183.658 173.896  0.00  0.00     0.183 C 
HETATM   15  C   UNK     0     185.801 182.733 173.645  0.00  0.00     0.204 C 
BRANCH  12  16
HETATM   16  O   UNK     0     187.734 185.644 175.008  0.00  0.00    -0.390 OA
HETATM   17  H   UNK     0     188.327 185.460 174.260  0.00  0.00     0.210 HD
ENDBRANCH  12  16
BRANCH  14  18
HETATM   18  O   UNK     0     188.115 182.897 174.335  0.00  0.00    -0.390 OA
HETATM   19  H   UNK     0     188.274 183.115 175.270  0.00  0.00     0.210 HD
ENDBRANCH  14  18
BRANCH  15  20
HETATM   20  O   UNK     0     185.542 181.946 174.809  0.00  0.00    -0.388 OA
HETATM   21  H   UNK     0     185.431 182.546 175.567  0.00  0.00     0.210 HD
ENDBRANCH  15  20
ENDBRANCH   8   9
ENDBRANCH   7   8
ENDBRANCH   2   7
BRANCH   6  22
HETATM   22  O   UNK     0     182.273 188.530 168.894  0.00  0.00    -0.311 OA
BRANCH  22  23
HETATM   23  C   UNK     0     181.557 187.971 167.858  0.00  0.00     0.157 A 
HETATM   24  C   UNK     0     180.461 187.215 168.046  0.00  0.00     0.124 A 
HETATM   25  O   UNK     0     179.737 186.612 167.028  0.00  0.00    -0.306 OA
HETATM   26  C   UNK     0     180.143 186.807 165.733  0.00  0.00     0.096 A 
HETATM   27  C   UNK     0     181.257 187.574 165.398  0.00  0.00     0.084 A 
HETATM   28  C   UNK     0     179.389 186.196 164.731  0.00  0.00     0.075 A 
HETATM   29  C   UNK     0     182.036 188.206 166.474  0.00  0.00     0.223 A 
HETATM   30  C   UNK     0     181.625 187.737 164.060  0.00  0.00     0.085 A 
HETATM   31  O   UNK     0     183.026 188.886 166.241  0.00  0.00    -0.284 OA
HETATM   32  C   UNK     0     180.869 187.124 163.059  0.00  0.00     0.074 A 
HETATM   33  C   UNK     0     179.754 186.356 163.393  0.00  0.00     0.071 A 
BRANCH  24  34
HETATM   34  C   UNK     0     179.918 186.925 169.385  0.00  0.00     0.004 A 
HETATM   35  C   UNK     0     180.045 185.646 169.927  0.00  0.00     0.053 A 
HETATM   36  C   UNK     0     179.534 185.372 171.195  0.00  0.00     0.099 A 
HETATM   37  C   UNK     0     178.894 186.376 171.921  0.00  0.00     0.098 A 
HETATM   38  C   UNK     0     178.766 187.655 171.379  0.00  0.00     0.040 A 
HETATM   39  C   UNK     0     179.279 187.930 170.112  0.00  0.00     0.017 A 
BRANCH  36  40
HETATM   40  O   UNK     0     179.662 184.118 171.713  0.00  0.00    -0.358 OA
HETATM   41  H   UNK     0     179.265 184.089 172.599  0.00  0.00     0.217 HD
ENDBRANCH  36  40
BRANCH  37  42
HETATM   42  O   UNK     0     178.390 186.120 173.161  0.00  0.00    -0.358 OA
HETATM   43  H   UNK     0     177.422 186.161 173.136  0.00  0.00     0.217 HD
ENDBRANCH  37  42
ENDBRANCH  24  34
BRANCH  30  44
HETATM   44  O   UNK     0     182.703 188.475 163.679  0.00  0.00    -0.360 OA
HETATM   45  H   UNK     0     182.780 188.463 162.709  0.00  0.00     0.217 HD
ENDBRANCH  30  44
BRANCH  33  46
HETATM   46  O   UNK     0     179.019 185.761 162.414  0.00  0.00    -0.361 OA
HETATM   47  H   UNK     0     178.421 185.110 162.819  0.00  0.00     0.217 HD
ENDBRANCH  33  46
ENDBRANCH  22  23
ENDBRANCH   6  22
BRANCH   3  48
HETATM   48  O   UNK     0     186.541 186.135 171.441  0.00  0.00    -0.390 OA
HETATM   49  H   UNK     0     187.196 186.658 171.931  0.00  0.00     0.210 HD
ENDBRANCH   3  48
BRANCH   5  50
HETATM   50  O   UNK     0     184.910 189.355 168.283  0.00  0.00    -0.388 OA
HETATM   51  H   UNK     0     185.352 190.192 168.506  0.00  0.00     0.210 HD
ENDBRANCH   5  50
BRANCH   4  52
HETATM   52  O   UNK     0     186.762 188.867 170.523  0.00  0.00    -0.390 OA
HETATM   53  H   UNK     0     186.438 189.759 170.312  0.00  0.00     0.210 HD
ENDBRANCH   4  52
TORSDOF 16
ENDMDL
MODEL 8
REMARK VINA RESULT:      -7.9      1.167      1.444
REMARK  16 active torsions:
REMARK  status: ('A' for Active; 'I' for Inactive)
REMARK    1  A    between atoms: O_2  and  C_22 
REMARK    2  A    between atoms: O_2  and  C_26 
REMARK    3  A    between atoms: O_4  and  C_18 
REMARK    4  A    between atoms: O_5  and  C_19 
REMARK    5  A    between atoms: O_6  and  C_25 
REMARK    6  A    between atoms: O_6  and  C_29 
REMARK    7  A    between atoms: O_7  and  C_20 
REMARK    8  A    between atoms: O_8  and  C_21 
REMARK    9  A    between atoms: O_9  and  C_23 
REMARK   10  A    between atoms: O_10  and  C_24 
REMARK   11  A    between atoms: O_13  and  C_35 
REMARK   12  A    between atoms: O_14  and  C_40 
REMARK   13  A    between atoms: O_15  and  C_41 
REMARK   14  A    between atoms: O_16  and  C_43 
REMARK   15  A    between atoms: C_17  and  C_26 
REMARK   16  A    between atoms: C_30  and  C_33 
ROOT
HETATM    1  O   UNK     0     184.213 186.134 169.963  0.00  0.00    -0.348 OA
HETATM    2  C   UNK     0     185.561 185.784 169.646  0.00  0.00     0.180 C 
HETATM    3  C   UNK     0     186.514 186.877 170.136  0.00  0.00     0.180 C 
HETATM    4  C   UNK     0     186.127 188.235 169.551  0.00  0.00     0.183 C 
HETATM    5  C   UNK     0     184.636 188.515 169.739  0.00  0.00     0.205 C 
HETATM    6  C   UNK     0     183.787 187.322 169.300  0.00  0.00     0.298 C 
ENDROOT
BRANCH   2   7
HETATM    7  C   UNK     0     185.854 184.440 170.307  0.00  0.00     0.205 C 
BRANCH   7   8
HETATM    8  O   UNK     0     185.173 184.380 171.552  0.00  0.00    -0.356 OA
BRANCH   8   9
HETATM    9  C   UNK     0     186.004 183.840 172.574  0.00  0.00     0.291 C 
HETATM   10  O   UNK     0     185.256 183.142 173.574  0.00  0.00    -0.351 OA
HETATM   11  C   UNK     0     184.359 183.970 174.321  0.00  0.00     0.152 C 
HETATM   12  C   UNK     0     185.117 185.094 175.042  0.00  0.00     0.178 C 
HETATM   13  C   UNK     0     183.620 183.061 175.300  0.00  0.00     0.042 C 
HETATM   14  C   UNK     0     185.957 185.887 174.040  0.00  0.00     0.183 C 
HETATM   15  C   UNK     0     186.837 184.956 173.204  0.00  0.00     0.204 C 
BRANCH  12  16
HETATM   16  O   UNK     0     184.198 185.993 175.660  0.00  0.00    -0.390 OA
HETATM   17  H   UNK     0     184.498 186.146 176.571  0.00  0.00     0.210 HD
ENDBRANCH  12  16
BRANCH  14  18
HETATM   18  O   UNK     0     186.772 186.821 174.746  0.00  0.00    -0.390 OA
HETATM   19  H   UNK     0     187.500 187.084 174.157  0.00  0.00     0.210 HD
ENDBRANCH  14  18
BRANCH  15  20
HETATM   20  O   UNK     0     187.826 184.344 174.035  0.00  0.00    -0.388 OA
HETATM   21  H   UNK     0     188.182 185.021 174.636  0.00  0.00     0.210 HD
ENDBRANCH  15  20
ENDBRANCH   8   9
ENDBRANCH   7   8
ENDBRANCH   2   7
BRANCH   6  22
HETATM   22  O   UNK     0     182.429 187.601 169.637  0.00  0.00    -0.311 OA
BRANCH  22  23
HETATM   23  C   UNK     0     181.559 187.103 168.693  0.00  0.00     0.157 A 
HETATM   24  C   UNK     0     180.680 186.118 168.950  0.00  0.00     0.124 A 
HETATM   25  O   UNK     0     179.814 185.572 168.014  0.00  0.00    -0.306 OA
HETATM   26  C   UNK     0     179.829 186.074 166.739  0.00  0.00     0.096 A 
HETATM   27  C   UNK     0     180.683 187.100 166.341  0.00  0.00     0.084 A 
HETATM   28  C   UNK     0     178.939 185.511 165.822  0.00  0.00     0.075 A 
HETATM   29  C   UNK     0     181.613 187.674 167.325  0.00  0.00     0.223 A 
HETATM   30  C   UNK     0     180.656 187.571 165.025  0.00  0.00     0.085 A 
HETATM   31  O   UNK     0     182.391 188.572 167.032  0.00  0.00    -0.284 OA
HETATM   32  C   UNK     0     179.765 187.006 164.111  0.00  0.00     0.074 A 
HETATM   33  C   UNK     0     178.908 185.979 164.509  0.00  0.00     0.071 A 
BRANCH  24  34
HETATM   34  C   UNK     0     180.561 185.489 170.277  0.00  0.00     0.004 A 
HETATM   35  C   UNK     0     179.654 185.992 171.210  0.00  0.00     0.053 A 
HETATM   36  C   UNK     0     179.541 185.396 172.465  0.00  0.00     0.099 A 
HETATM   37  C   UNK     0     180.335 184.296 172.790  0.00  0.00     0.098 A 
HETATM   38  C   UNK     0     181.243 183.793 171.858  0.00  0.00     0.040 A 
HETATM   39  C   UNK     0     181.355 184.389 170.602  0.00  0.00     0.017 A 
BRANCH  36  40
HETATM   40  O   UNK     0     178.652 185.898 173.369  0.00  0.00    -0.358 OA
HETATM   41  H   UNK     0     179.116 186.125 174.191  0.00  0.00     0.217 HD
ENDBRANCH  36  40
BRANCH  37  42
HETATM   42  O   UNK     0     180.233 183.705 174.013  0.00  0.00    -0.358 OA
HETATM   43  H   UNK     0     181.015 183.918 174.545  0.00  0.00     0.217 HD
ENDBRANCH  37  42
ENDBRANCH  24  34
BRANCH  30  44
HETATM   44  O   UNK     0     181.469 188.569 164.585  0.00  0.00    -0.360 OA
HETATM   45  H   UNK     0     182.253 188.185 164.155  0.00  0.00     0.217 HD
ENDBRANCH  30  44
BRANCH  33  46
HETATM   46  O   UNK     0     178.042 185.431 163.613  0.00  0.00    -0.361 OA
HETATM   47  H   UNK     0     177.775 184.551 163.930  0.00  0.00     0.217 HD
ENDBRANCH  33  46
ENDBRANCH  22  23
ENDBRANCH   6  22
BRANCH   3  48
HETATM   48  O   UNK     0     187.844 186.555 169.740  0.00  0.00    -0.390 OA
HETATM   49  H   UNK     0     187.960 186.837 168.817  0.00  0.00     0.210 HD
ENDBRANCH   3  48
BRANCH   5  50
HETATM   50  O   UNK     0     184.263 189.645 168.951  0.00  0.00    -0.388 OA
HETATM   51  H   UNK     0     185.064 190.164 168.769  0.00  0.00     0.210 HD
ENDBRANCH   5  50
BRANCH   4  52
HETATM   52  O   UNK     0     186.888 189.239 170.226  0.00  0.00    -0.390 OA
HETATM   53  H   UNK     0     187.075 188.910 171.121  0.00  0.00     0.210 HD
ENDBRANCH   4  52
TORSDOF 16
ENDMDL
MODEL 9
REMARK VINA RESULT:      -7.8      2.710      5.413
REMARK  16 active torsions:
REMARK  status: ('A' for Active; 'I' for Inactive)
REMARK    1  A    between atoms: O_2  and  C_22 
REMARK    2  A    between atoms: O_2  and  C_26 
REMARK    3  A    between atoms: O_4  and  C_18 
REMARK    4  A    between atoms: O_5  and  C_19 
REMARK    5  A    between atoms: O_6  and  C_25 
REMARK    6  A    between atoms: O_6  and  C_29 
REMARK    7  A    between atoms: O_7  and  C_20 
REMARK    8  A    between atoms: O_8  and  C_21 
REMARK    9  A    between atoms: O_9  and  C_23 
REMARK   10  A    between atoms: O_10  and  C_24 
REMARK   11  A    between atoms: O_13  and  C_35 
REMARK   12  A    between atoms: O_14  and  C_40 
REMARK   13  A    between atoms: O_15  and  C_41 
REMARK   14  A    between atoms: O_16  and  C_43 
REMARK   15  A    between atoms: C_17  and  C_26 
REMARK   16  A    between atoms: C_30  and  C_33 
ROOT
HETATM    1  O   UNK     0     185.979 185.003 170.064  0.00  0.00    -0.348 OA
HETATM    2  C   UNK     0     187.300 184.603 170.436  0.00  0.00     0.180 C 
HETATM    3  C   UNK     0     188.328 185.534 169.789  0.00  0.00     0.180 C 
HETATM    4  C   UNK     0     188.151 185.568 168.271  0.00  0.00     0.183 C 
HETATM    5  C   UNK     0     186.692 185.818 167.890  0.00  0.00     0.205 C 
HETATM    6  C   UNK     0     185.750 184.893 168.661  0.00  0.00     0.298 C 
ENDROOT
BRANCH   2   7
HETATM    7  C   UNK     0     187.380 184.642 171.959  0.00  0.00     0.205 C 
BRANCH   7   8
HETATM    8  O   UNK     0     186.345 183.833 172.497  0.00  0.00    -0.356 OA
BRANCH   8   9
HETATM    9  C   UNK     0     186.695 183.326 173.781  0.00  0.00     0.291 C 
HETATM   10  O   UNK     0     185.612 182.632 174.407  0.00  0.00    -0.351 OA
HETATM   11  C   UNK     0     184.482 183.457 174.708  0.00  0.00     0.152 C 
HETATM   12  C   UNK     0     184.873 184.606 175.648  0.00  0.00     0.178 C 
HETATM   13  C   UNK     0     183.419 182.551 175.324  0.00  0.00     0.042 C 
HETATM   14  C   UNK     0     186.040 185.396 175.055  0.00  0.00     0.183 C 
HETATM   15  C   UNK     0     187.191 184.466 174.668  0.00  0.00     0.204 C 
BRANCH  12  16
HETATM   16  O   UNK     0     183.775 185.499 175.820  0.00  0.00    -0.390 OA
HETATM   17  H   UNK     0     183.850 186.197 175.149  0.00  0.00     0.210 HD
ENDBRANCH  12  16
BRANCH  14  18
HETATM   18  O   UNK     0     186.490 186.356 176.009  0.00  0.00    -0.390 OA
HETATM   19  H   UNK     0     187.431 186.530 175.833  0.00  0.00     0.210 HD
ENDBRANCH  14  18
BRANCH  15  20
HETATM   20  O   UNK     0     187.764 183.886 175.842  0.00  0.00    -0.388 OA
HETATM   21  H   UNK     0     187.106 183.927 176.557  0.00  0.00     0.210 HD
ENDBRANCH  15  20
ENDBRANCH   8   9
ENDBRANCH   7   8
ENDBRANCH   2   7
BRANCH   6  22
HETATM   22  O   UNK     0     184.409 185.281 168.361  0.00  0.00    -0.311 OA
BRANCH  22  23
HETATM   23  C   UNK     0     183.590 185.168 169.462  0.00  0.00     0.157 A 
HETATM   24  C   UNK     0     183.234 186.218 170.224  0.00  0.00     0.124 A 
HETATM   25  O   UNK     0     182.439 186.135 171.357  0.00  0.00    -0.306 OA
HETATM   26  C   UNK     0     181.956 184.906 171.728  0.00  0.00     0.096 A 
HETATM   27  C   UNK     0     182.240 183.739 171.023  0.00  0.00     0.084 A 
HETATM   28  C   UNK     0     181.151 184.856 172.866  0.00  0.00     0.075 A 
HETATM   29  C   UNK     0     183.095 183.819 169.828  0.00  0.00     0.223 A 
HETATM   30  C   UNK     0     181.722 182.513 171.449  0.00  0.00     0.085 A 
HETATM   31  O   UNK     0     183.383 182.827 169.172  0.00  0.00    -0.284 OA
HETATM   32  C   UNK     0     180.916 182.466 172.587  0.00  0.00     0.074 A 
HETATM   33  C   UNK     0     180.631 183.634 173.294  0.00  0.00     0.071 A 
BRANCH  24  34
HETATM   34  C   UNK     0     183.685 187.592 169.939  0.00  0.00     0.004 A 
HETATM   35  C   UNK     0     182.919 188.422 169.120  0.00  0.00     0.053 A 
HETATM   36  C   UNK     0     183.343 189.723 168.852  0.00  0.00     0.099 A 
HETATM   37  C   UNK     0     184.535 190.195 169.401  0.00  0.00     0.098 A 
HETATM   38  C   UNK     0     185.302 189.365 170.220  0.00  0.00     0.040 A 
HETATM   39  C   UNK     0     184.876 188.065 170.489  0.00  0.00     0.017 A 
BRANCH  36  40
HETATM   40  O   UNK     0     182.587 190.523 168.048  0.00  0.00    -0.358 OA
HETATM   41  H   UNK     0     183.027 191.382 167.936  0.00  0.00     0.217 HD
ENDBRANCH  36  40
BRANCH  37  42
HETATM   42  O   UNK     0     184.960 191.464 169.146  0.00  0.00    -0.358 OA
HETATM   43  H   UNK     0     184.229 192.087 169.278  0.00  0.00     0.217 HD
ENDBRANCH  37  42
ENDBRANCH  24  34
BRANCH  30  44
HETATM   44  O   UNK     0     181.969 181.344 170.797  0.00  0.00    -0.360 OA
HETATM   45  H   UNK     0     181.155 180.812 170.763  0.00  0.00     0.217 HD
ENDBRANCH  30  44
BRANCH  33  46
HETATM   46  O   UNK     0     179.844 183.583 174.404  0.00  0.00    -0.361 OA
HETATM   47  H   UNK     0     178.970 183.238 174.156  0.00  0.00     0.217 HD
ENDBRANCH  33  46
ENDBRANCH  22  23
ENDBRANCH   6  22
BRANCH   3  48
HETATM   48  O   UNK     0     189.641 185.075 170.100  0.00  0.00    -0.390 OA
HETATM   49  H   UNK     0     190.261 185.806 169.942  0.00  0.00     0.210 HD
ENDBRANCH   3  48
BRANCH   5  50
HETATM   50  O   UNK     0     186.518 185.571 166.495  0.00  0.00    -0.388 OA
HETATM   51  H   UNK     0     187.208 186.058 166.014  0.00  0.00     0.210 HD
ENDBRANCH   5  50
BRANCH   4  52
HETATM   52  O   UNK     0     188.964 186.624 167.756  0.00  0.00    -0.390 OA
HETATM   53  H   UNK     0     189.777 186.221 167.406  0.00  0.00     0.210 HD
ENDBRANCH   4  52
TORSDOF 16
ENDMDL
MODEL 10
REMARK VINA RESULT:      -7.8      1.643      2.187
REMARK  16 active torsions:
REMARK  status: ('A' for Active; 'I' for Inactive)
REMARK    1  A    between atoms: O_2  and  C_22 
REMARK    2  A    between atoms: O_2  and  C_26 
REMARK    3  A    between atoms: O_4  and  C_18 
REMARK    4  A    between atoms: O_5  and  C_19 
REMARK    5  A    between atoms: O_6  and  C_25 
REMARK    6  A    between atoms: O_6  and  C_29 
REMARK    7  A    between atoms: O_7  and  C_20 
REMARK    8  A    between atoms: O_8  and  C_21 
REMARK    9  A    between atoms: O_9  and  C_23 
REMARK   10  A    between atoms: O_10  and  C_24 
REMARK   11  A    between atoms: O_13  and  C_35 
REMARK   12  A    between atoms: O_14  and  C_40 
REMARK   13  A    between atoms: O_15  and  C_41 
REMARK   14  A    between atoms: O_16  and  C_43 
REMARK   15  A    between atoms: C_17  and  C_26 
REMARK   16  A    between atoms: C_30  and  C_33 
ROOT
HETATM    1  O   UNK     0     183.676 186.704 169.707  0.00  0.00    -0.348 OA
HETATM    2  C   UNK     0     184.970 186.102 169.765  0.00  0.00     0.180 C 
HETATM    3  C   UNK     0     185.993 187.113 170.289  0.00  0.00     0.180 C 
HETATM    4  C   UNK     0     185.994 188.378 169.431  0.00  0.00     0.183 C 
HETATM    5  C   UNK     0     184.575 188.910 169.227  0.00  0.00     0.205 C 
HETATM    6  C   UNK     0     183.622 187.796 168.791  0.00  0.00     0.298 C 
ENDROOT
BRANCH   2   7
HETATM    7  C   UNK     0     184.868 184.880 170.673  0.00  0.00     0.205 C 
BRANCH   7   8
HETATM    8  O   UNK     0     185.594 185.129 171.867  0.00  0.00    -0.356 OA
BRANCH   8   9
HETATM    9  C   UNK     0     185.990 183.915 172.499  0.00  0.00     0.291 C 
HETATM   10  O   UNK     0     184.903 183.270 173.169  0.00  0.00    -0.351 OA
HETATM   11  C   UNK     0     184.362 184.016 174.264  0.00  0.00     0.152 C 
HETATM   12  C   UNK     0     185.435 184.291 175.326  0.00  0.00     0.178 C 
HETATM   13  C   UNK     0     183.197 183.205 174.825  0.00  0.00     0.042 C 
HETATM   14  C   UNK     0     186.645 184.973 174.687  0.00  0.00     0.183 C 
HETATM   15  C   UNK     0     187.137 184.189 173.470  0.00  0.00     0.204 C 
BRANCH  12  16
HETATM   16  O   UNK     0     184.920 185.156 176.336  0.00  0.00    -0.390 OA
HETATM   17  H   UNK     0     185.123 184.759 177.201  0.00  0.00     0.210 HD
ENDBRANCH  12  16
BRANCH  14  18
HETATM   18  O   UNK     0     187.690 185.078 175.652  0.00  0.00    -0.390 OA
HETATM   19  H   UNK     0     187.478 185.824 176.240  0.00  0.00     0.210 HD
ENDBRANCH  14  18
BRANCH  15  20
HETATM   20  O   UNK     0     187.666 182.928 173.884  0.00  0.00    -0.388 OA
HETATM   21  H   UNK     0     188.483 183.088 174.386  0.00  0.00     0.210 HD
ENDBRANCH  15  20
ENDBRANCH   8   9
ENDBRANCH   7   8
ENDBRANCH   2   7
BRANCH   6  22
HETATM   22  O   UNK     0     182.300 188.334 168.761  0.00  0.00    -0.311 OA
BRANCH  22  23
HETATM   23  C   UNK     0     181.535 187.746 167.779  0.00  0.00     0.157 A 
HETATM   24  C   UNK     0     180.487 186.946 168.044  0.00  0.00     0.124 A 
HETATM   25  O   UNK     0     179.716 186.313 167.081  0.00  0.00    -0.306 OA
HETATM   26  C   UNK     0     180.020 186.522 165.760  0.00  0.00     0.096 A 
HETATM   27  C   UNK     0     181.074 187.333 165.347  0.00  0.00     0.084 A 
HETATM   28  C   UNK     0     179.221 185.879 164.814  0.00  0.00     0.075 A 
HETATM   29  C   UNK     0     181.903 187.997 166.365  0.00  0.00     0.223 A 
HETATM   30  C   UNK     0     181.338 187.508 163.985  0.00  0.00     0.085 A 
HETATM   31  O   UNK     0     182.845 188.716 166.061  0.00  0.00    -0.284 OA
HETATM   32  C   UNK     0     180.536 186.864 163.041  0.00  0.00     0.074 A 
HETATM   33  C   UNK     0     179.480 186.052 163.454  0.00  0.00     0.071 A 
BRANCH  24  34
HETATM   34  C   UNK     0     180.055 186.637 169.419  0.00  0.00     0.004 A 
HETATM   35  C   UNK     0     180.201 185.344 169.922  0.00  0.00     0.053 A 
HETATM   36  C   UNK     0     179.794 185.051 171.223  0.00  0.00     0.099 A 
HETATM   37  C   UNK     0     179.239 186.050 172.022  0.00  0.00     0.098 A 
HETATM   38  C   UNK     0     179.092 187.343 171.520  0.00  0.00     0.040 A 
HETATM   39  C   UNK     0     179.500 187.636 170.219  0.00  0.00     0.017 A 
BRANCH  36  40
HETATM   40  O   UNK     0     179.941 183.783 171.703  0.00  0.00    -0.358 OA
HETATM   41  H   UNK     0     179.806 183.780 172.664  0.00  0.00     0.217 HD
ENDBRANCH  36  40
BRANCH  37  42
HETATM   42  O   UNK     0     178.838 185.776 173.295  0.00  0.00    -0.358 OA
HETATM   43  H   UNK     0     179.364 186.297 173.923  0.00  0.00     0.217 HD
ENDBRANCH  37  42
ENDBRANCH  24  34
BRANCH  30  44
HETATM   44  O   UNK     0     182.355 188.289 163.529  0.00  0.00    -0.360 OA
HETATM   45  H   UNK     0     182.006 188.939 162.894  0.00  0.00     0.217 HD
ENDBRANCH  30  44
BRANCH  33  46
HETATM   46  O   UNK     0     178.702 185.425 162.530  0.00  0.00    -0.361 OA
HETATM   47  H   UNK     0     179.188 185.377 161.689  0.00  0.00     0.217 HD
ENDBRANCH  33  46
ENDBRANCH  22  23
ENDBRANCH   6  22
BRANCH   3  48
HETATM   48  O   UNK     0     187.292 186.526 170.263  0.00  0.00    -0.390 OA
HETATM   49  H   UNK     0     187.900 187.161 169.849  0.00  0.00     0.210 HD
ENDBRANCH   3  48
BRANCH   5  50
HETATM   50  O   UNK     0     184.585 189.912 168.211  0.00  0.00    -0.388 OA
HETATM   51  H   UNK     0     184.517 190.780 168.644  0.00  0.00     0.210 HD
ENDBRANCH   5  50
BRANCH   4  52
HETATM   52  O   UNK     0     186.779 189.366 170.101  0.00  0.00    -0.390 OA
HETATM   53  H   UNK     0     187.496 189.626 169.498  0.00  0.00     0.210 HD
ENDBRANCH   4  52
TORSDOF 16
ENDMDL
