REMARK VINA RESULT:      -7.9      1.167      1.444
REMARK  16 active torsions:
REMARK  status: ('A' for Active; 'I' for Inactive)
REMARK    1  A    between atoms: O_2  and  C_22 
REMARK    2  A    between atoms: O_2  and  C_26 
REMARK    3  A    between atoms: O_4  and  C_18 
REMARK    4  A    between atoms: O_5  and  C_19 
REMARK    5  A    between atoms: O_6  and  C_25 
REMARK    6  A    between atoms: O_6  and  C_29 
REMARK    7  A    between atoms: O_7  and  C_20 
REMARK    8  A    between atoms: O_8  and  C_21 
REMARK    9  A    between atoms: O_9  and  C_23 
REMARK   10  A    between atoms: O_10  and  C_24 
REMARK   11  A    between atoms: O_13  and  C_35 
REMARK   12  A    between atoms: O_14  and  C_40 
REMARK   13  A    between atoms: O_15  and  C_41 
REMARK   14  A    between atoms: O_16  and  C_43 
REMARK   15  A    between atoms: C_17  and  C_26 
REMARK   16  A    between atoms: C_30  and  C_33 
ROOT
HETATM    1  O   UNK     0     184.213 186.134 169.963  0.00  0.00    -0.348 OA
HETATM    2  C   UNK     0     185.561 185.784 169.646  0.00  0.00     0.180 C 
HETATM    3  C   UNK     0     186.514 186.877 170.136  0.00  0.00     0.180 C 
HETATM    4  C   UNK     0     186.127 188.235 169.551  0.00  0.00     0.183 C 
HETATM    5  C   UNK     0     184.636 188.515 169.739  0.00  0.00     0.205 C 
HETATM    6  C   UNK     0     183.787 187.322 169.300  0.00  0.00     0.298 C 
ENDROOT
BRANCH   2   7
HETATM    7  C   UNK     0     185.854 184.440 170.307  0.00  0.00     0.205 C 
BRANCH   7   8
HETATM    8  O   UNK     0     185.173 184.380 171.552  0.00  0.00    -0.356 OA
BRANCH   8   9
HETATM    9  C   UNK     0     186.004 183.840 172.574  0.00  0.00     0.291 C 
HETATM   10  O   UNK     0     185.256 183.142 173.574  0.00  0.00    -0.351 OA
HETATM   11  C   UNK     0     184.359 183.970 174.321  0.00  0.00     0.152 C 
HETATM   12  C   UNK     0     185.117 185.094 175.042  0.00  0.00     0.178 C 
HETATM   13  C   UNK     0     183.620 183.061 175.300  0.00  0.00     0.042 C 
HETATM   14  C   UNK     0     185.957 185.887 174.040  0.00  0.00     0.183 C 
HETATM   15  C   UNK     0     186.837 184.956 173.204  0.00  0.00     0.204 C 
BRANCH  12  16
HETATM   16  O   UNK     0     184.198 185.993 175.660  0.00  0.00    -0.390 OA
HETATM   17  H   UNK     0     184.498 186.146 176.571  0.00  0.00     0.210 HD
ENDBRANCH  12  16
BRANCH  14  18
HETATM   18  O   UNK     0     186.772 186.821 174.746  0.00  0.00    -0.390 OA
HETATM   19  H   UNK     0     187.500 187.084 174.157  0.00  0.00     0.210 HD
ENDBRANCH  14  18
BRANCH  15  20
HETATM   20  O   UNK     0     187.826 184.344 174.035  0.00  0.00    -0.388 OA
HETATM   21  H   UNK     0     188.182 185.021 174.636  0.00  0.00     0.210 HD
ENDBRANCH  15  20
ENDBRANCH   8   9
ENDBRANCH   7   8
ENDBRANCH   2   7
BRANCH   6  22
HETATM   22  O   UNK     0     182.429 187.601 169.637  0.00  0.00    -0.311 OA
BRANCH  22  23
HETATM   23  C   UNK     0     181.559 187.103 168.693  0.00  0.00     0.157 A 
HETATM   24  C   UNK     0     180.680 186.118 168.950  0.00  0.00     0.124 A 
HETATM   25  O   UNK     0     179.814 185.572 168.014  0.00  0.00    -0.306 OA
HETATM   26  C   UNK     0     179.829 186.074 166.739  0.00  0.00     0.096 A 
HETATM   27  C   UNK     0     180.683 187.100 166.341  0.00  0.00     0.084 A 
HETATM   28  C   UNK     0     178.939 185.511 165.822  0.00  0.00     0.075 A 
HETATM   29  C   UNK     0     181.613 187.674 167.325  0.00  0.00     0.223 A 
HETATM   30  C   UNK     0     180.656 187.571 165.025  0.00  0.00     0.085 A 
HETATM   31  O   UNK     0     182.391 188.572 167.032  0.00  0.00    -0.284 OA
HETATM   32  C   UNK     0     179.765 187.006 164.111  0.00  0.00     0.074 A 
HETATM   33  C   UNK     0     178.908 185.979 164.509  0.00  0.00     0.071 A 
BRANCH  24  34
HETATM   34  C   UNK     0     180.561 185.489 170.277  0.00  0.00     0.004 A 
HETATM   35  C   UNK     0     179.654 185.992 171.210  0.00  0.00     0.053 A 
HETATM   36  C   UNK     0     179.541 185.396 172.465  0.00  0.00     0.099 A 
HETATM   37  C   UNK     0     180.335 184.296 172.790  0.00  0.00     0.098 A 
HETATM   38  C   UNK     0     181.243 183.793 171.858  0.00  0.00     0.040 A 
HETATM   39  C   UNK     0     181.355 184.389 170.602  0.00  0.00     0.017 A 
BRANCH  36  40
HETATM   40  O   UNK     0     178.652 185.898 173.369  0.00  0.00    -0.358 OA
HETATM   41  H   UNK     0     179.116 186.125 174.191  0.00  0.00     0.217 HD
ENDBRANCH  36  40
BRANCH  37  42
HETATM   42  O   UNK     0     180.233 183.705 174.013  0.00  0.00    -0.358 OA
HETATM   43  H   UNK     0     181.015 183.918 174.545  0.00  0.00     0.217 HD
ENDBRANCH  37  42
ENDBRANCH  24  34
BRANCH  30  44
HETATM   44  O   UNK     0     181.469 188.569 164.585  0.00  0.00    -0.360 OA
HETATM   45  H   UNK     0     182.253 188.185 164.155  0.00  0.00     0.217 HD
ENDBRANCH  30  44
BRANCH  33  46
HETATM   46  O   UNK     0     178.042 185.431 163.613  0.00  0.00    -0.361 OA
HETATM   47  H   UNK     0     177.775 184.551 163.930  0.00  0.00     0.217 HD
ENDBRANCH  33  46
ENDBRANCH  22  23
ENDBRANCH   6  22
BRANCH   3  48
HETATM   48  O   UNK     0     187.844 186.555 169.740  0.00  0.00    -0.390 OA
HETATM   49  H   UNK     0     187.960 186.837 168.817  0.00  0.00     0.210 HD
ENDBRANCH   3  48
BRANCH   5  50
HETATM   50  O   UNK     0     184.263 189.645 168.951  0.00  0.00    -0.388 OA
HETATM   51  H   UNK     0     185.064 190.164 168.769  0.00  0.00     0.210 HD
ENDBRANCH   5  50
BRANCH   4  52
HETATM   52  O   UNK     0     186.888 189.239 170.226  0.00  0.00    -0.390 OA
HETATM   53  H   UNK     0     187.075 188.910 171.121  0.00  0.00     0.210 HD
ENDBRANCH   4  52
TORSDOF 16
