REMARK VINA RESULT:      -8.0      2.736      6.571
REMARK  16 active torsions:
REMARK  status: ('A' for Active; 'I' for Inactive)
REMARK    1  A    between atoms: O_2  and  C_22 
REMARK    2  A    between atoms: O_2  and  C_26 
REMARK    3  A    between atoms: O_4  and  C_18 
REMARK    4  A    between atoms: O_5  and  C_19 
REMARK    5  A    between atoms: O_6  and  C_25 
REMARK    6  A    between atoms: O_6  and  C_29 
REMARK    7  A    between atoms: O_7  and  C_20 
REMARK    8  A    between atoms: O_8  and  C_21 
REMARK    9  A    between atoms: O_9  and  C_23 
REMARK   10  A    between atoms: O_10  and  C_24 
REMARK   11  A    between atoms: O_13  and  C_35 
REMARK   12  A    between atoms: O_14  and  C_40 
REMARK   13  A    between atoms: O_15  and  C_41 
REMARK   14  A    between atoms: O_16  and  C_43 
REMARK   15  A    between atoms: C_17  and  C_26 
REMARK   16  A    between atoms: C_30  and  C_33 
ROOT
HETATM    1  O   UNK     0     184.277 185.501 172.922  0.00  0.00    -0.348 OA
HETATM    2  C   UNK     0     184.226 184.439 173.877  0.00  0.00     0.180 C 
HETATM    3  C   UNK     0     184.561 184.974 175.271  0.00  0.00     0.180 C 
HETATM    4  C   UNK     0     185.921 185.673 175.272  0.00  0.00     0.183 C 
HETATM    5  C   UNK     0     186.026 186.681 174.127  0.00  0.00     0.205 C 
HETATM    6  C   UNK     0     185.582 186.064 172.801  0.00  0.00     0.298 C 
ENDROOT
BRANCH   2   7
HETATM    7  C   UNK     0     182.824 183.840 173.823  0.00  0.00     0.205 C 
BRANCH   7   8
HETATM    8  O   UNK     0     182.589 183.329 172.520  0.00  0.00    -0.356 OA
BRANCH   8   9
HETATM    9  C   UNK     0     183.301 182.116 172.299  0.00  0.00     0.291 C 
HETATM   10  O   UNK     0     183.586 181.895 170.915  0.00  0.00    -0.351 OA
HETATM   11  C   UNK     0     182.425 181.714 170.098  0.00  0.00     0.152 C 
HETATM   12  C   UNK     0     181.596 180.514 170.575  0.00  0.00     0.178 C 
HETATM   13  C   UNK     0     182.912 181.537 168.662  0.00  0.00     0.042 C 
HETATM   14  C   UNK     0     181.256 180.666 172.058  0.00  0.00     0.183 C 
HETATM   15  C   UNK     0     182.514 180.943 172.883  0.00  0.00     0.204 C 
BRANCH  12  16
HETATM   16  O   UNK     0     180.373 180.437 169.846  0.00  0.00    -0.390 OA
HETATM   17  H   UNK     0     179.689 180.897 170.361  0.00  0.00     0.210 HD
ENDBRANCH  12  16
BRANCH  14  18
HETATM   18  O   UNK     0     180.625 179.474 172.521  0.00  0.00    -0.390 OA
HETATM   19  H   UNK     0     180.718 178.800 171.825  0.00  0.00     0.210 HD
ENDBRANCH  14  18
BRANCH  15  20
HETATM   20  O   UNK     0     183.368 179.798 172.869  0.00  0.00    -0.388 OA
HETATM   21  H   UNK     0     182.843 179.028 172.591  0.00  0.00     0.210 HD
ENDBRANCH  15  20
ENDBRANCH   8   9
ENDBRANCH   7   8
ENDBRANCH   2   7
BRANCH   6  22
HETATM   22  O   UNK     0     185.570 187.097 171.817  0.00  0.00    -0.311 OA
BRANCH  22  23
HETATM   23  C   UNK     0     186.000 186.637 170.592  0.00  0.00     0.157 A 
HETATM   24  C   UNK     0     185.167 186.392 169.565  0.00  0.00     0.124 A 
HETATM   25  O   UNK     0     185.562 185.898 168.332  0.00  0.00    -0.306 OA
HETATM   26  C   UNK     0     186.895 185.654 168.121  0.00  0.00     0.096 A 
HETATM   27  C   UNK     0     187.865 185.872 169.097  0.00  0.00     0.084 A 
HETATM   28  C   UNK     0     187.263 185.166 166.867  0.00  0.00     0.075 A 
HETATM   29  C   UNK     0     187.450 186.384 170.412  0.00  0.00     0.223 A 
HETATM   30  C   UNK     0     189.210 185.605 168.827  0.00  0.00     0.085 A 
HETATM   31  O   UNK     0     188.257 186.589 171.309  0.00  0.00    -0.284 OA
HETATM   32  C   UNK     0     189.576 185.117 167.571  0.00  0.00     0.074 A 
HETATM   33  C   UNK     0     188.605 184.899 166.593  0.00  0.00     0.071 A 
BRANCH  24  34
HETATM   34  C   UNK     0     183.712 186.608 169.657  0.00  0.00     0.004 A 
HETATM   35  C   UNK     0     182.875 185.565 170.055  0.00  0.00     0.053 A 
HETATM   36  C   UNK     0     181.498 185.769 170.143  0.00  0.00     0.099 A 
HETATM   37  C   UNK     0     180.957 187.017 169.833  0.00  0.00     0.098 A 
HETATM   38  C   UNK     0     181.793 188.060 169.435  0.00  0.00     0.040 A 
HETATM   39  C   UNK     0     183.170 187.856 169.348  0.00  0.00     0.017 A 
BRANCH  36  40
HETATM   40  O   UNK     0     180.691 184.742 170.531  0.00  0.00    -0.358 OA
HETATM   41  H   UNK     0     179.814 184.846 170.128  0.00  0.00     0.217 HD
ENDBRANCH  36  40
BRANCH  37  42
HETATM   42  O   UNK     0     179.614 187.229 169.917  0.00  0.00    -0.358 OA
HETATM   43  H   UNK     0     179.146 186.582 169.366  0.00  0.00     0.217 HD
ENDBRANCH  37  42
ENDBRANCH  24  34
BRANCH  30  44
HETATM   44  O   UNK     0     190.197 185.799 169.744  0.00  0.00    -0.360 OA
HETATM   45  H   UNK     0     190.353 184.973 170.234  0.00  0.00     0.217 HD
ENDBRANCH  30  44
BRANCH  33  46
HETATM   46  O   UNK     0     188.966 184.423 165.370  0.00  0.00    -0.361 OA
HETATM   47  H   UNK     0     189.733 184.928 165.049  0.00  0.00     0.217 HD
ENDBRANCH  33  46
ENDBRANCH  22  23
ENDBRANCH   6  22
BRANCH   3  48
HETATM   48  O   UNK     0     184.589 183.891 176.197  0.00  0.00    -0.390 OA
HETATM   49  H   UNK     0     183.844 184.001 176.812  0.00  0.00     0.210 HD
ENDBRANCH   3  48
BRANCH   5  50
HETATM   50  O   UNK     0     187.381 187.106 173.992  0.00  0.00    -0.388 OA
HETATM   51  H   UNK     0     187.690 186.852 173.106  0.00  0.00     0.210 HD
ENDBRANCH   5  50
BRANCH   4  52
HETATM   52  O   UNK     0     186.067 186.354 176.520  0.00  0.00    -0.390 OA
HETATM   53  H   UNK     0     185.685 187.241 176.413  0.00  0.00     0.210 HD
ENDBRANCH   4  52
TORSDOF 16
