REMARK VINA RESULT:      -7.8      2.710      5.413
REMARK  16 active torsions:
REMARK  status: ('A' for Active; 'I' for Inactive)
REMARK    1  A    between atoms: O_2  and  C_22 
REMARK    2  A    between atoms: O_2  and  C_26 
REMARK    3  A    between atoms: O_4  and  C_18 
REMARK    4  A    between atoms: O_5  and  C_19 
REMARK    5  A    between atoms: O_6  and  C_25 
REMARK    6  A    between atoms: O_6  and  C_29 
REMARK    7  A    between atoms: O_7  and  C_20 
REMARK    8  A    between atoms: O_8  and  C_21 
REMARK    9  A    between atoms: O_9  and  C_23 
REMARK   10  A    between atoms: O_10  and  C_24 
REMARK   11  A    between atoms: O_13  and  C_35 
REMARK   12  A    between atoms: O_14  and  C_40 
REMARK   13  A    between atoms: O_15  and  C_41 
REMARK   14  A    between atoms: O_16  and  C_43 
REMARK   15  A    between atoms: C_17  and  C_26 
REMARK   16  A    between atoms: C_30  and  C_33 
ROOT
HETATM    1  O   UNK     0     185.979 185.003 170.064  0.00  0.00    -0.348 OA
HETATM    2  C   UNK     0     187.300 184.603 170.436  0.00  0.00     0.180 C 
HETATM    3  C   UNK     0     188.328 185.534 169.789  0.00  0.00     0.180 C 
HETATM    4  C   UNK     0     188.151 185.568 168.271  0.00  0.00     0.183 C 
HETATM    5  C   UNK     0     186.692 185.818 167.890  0.00  0.00     0.205 C 
HETATM    6  C   UNK     0     185.750 184.893 168.661  0.00  0.00     0.298 C 
ENDROOT
BRANCH   2   7
HETATM    7  C   UNK     0     187.380 184.642 171.959  0.00  0.00     0.205 C 
BRANCH   7   8
HETATM    8  O   UNK     0     186.345 183.833 172.497  0.00  0.00    -0.356 OA
BRANCH   8   9
HETATM    9  C   UNK     0     186.695 183.326 173.781  0.00  0.00     0.291 C 
HETATM   10  O   UNK     0     185.612 182.632 174.407  0.00  0.00    -0.351 OA
HETATM   11  C   UNK     0     184.482 183.457 174.708  0.00  0.00     0.152 C 
HETATM   12  C   UNK     0     184.873 184.606 175.648  0.00  0.00     0.178 C 
HETATM   13  C   UNK     0     183.419 182.551 175.324  0.00  0.00     0.042 C 
HETATM   14  C   UNK     0     186.040 185.396 175.055  0.00  0.00     0.183 C 
HETATM   15  C   UNK     0     187.191 184.466 174.668  0.00  0.00     0.204 C 
BRANCH  12  16
HETATM   16  O   UNK     0     183.775 185.499 175.820  0.00  0.00    -0.390 OA
HETATM   17  H   UNK     0     183.850 186.197 175.149  0.00  0.00     0.210 HD
ENDBRANCH  12  16
BRANCH  14  18
HETATM   18  O   UNK     0     186.490 186.356 176.009  0.00  0.00    -0.390 OA
HETATM   19  H   UNK     0     187.431 186.530 175.833  0.00  0.00     0.210 HD
ENDBRANCH  14  18
BRANCH  15  20
HETATM   20  O   UNK     0     187.764 183.886 175.842  0.00  0.00    -0.388 OA
HETATM   21  H   UNK     0     187.106 183.927 176.557  0.00  0.00     0.210 HD
ENDBRANCH  15  20
ENDBRANCH   8   9
ENDBRANCH   7   8
ENDBRANCH   2   7
BRANCH   6  22
HETATM   22  O   UNK     0     184.409 185.281 168.361  0.00  0.00    -0.311 OA
BRANCH  22  23
HETATM   23  C   UNK     0     183.590 185.168 169.462  0.00  0.00     0.157 A 
HETATM   24  C   UNK     0     183.234 186.218 170.224  0.00  0.00     0.124 A 
HETATM   25  O   UNK     0     182.439 186.135 171.357  0.00  0.00    -0.306 OA
HETATM   26  C   UNK     0     181.956 184.906 171.728  0.00  0.00     0.096 A 
HETATM   27  C   UNK     0     182.240 183.739 171.023  0.00  0.00     0.084 A 
HETATM   28  C   UNK     0     181.151 184.856 172.866  0.00  0.00     0.075 A 
HETATM   29  C   UNK     0     183.095 183.819 169.828  0.00  0.00     0.223 A 
HETATM   30  C   UNK     0     181.722 182.513 171.449  0.00  0.00     0.085 A 
HETATM   31  O   UNK     0     183.383 182.827 169.172  0.00  0.00    -0.284 OA
HETATM   32  C   UNK     0     180.916 182.466 172.587  0.00  0.00     0.074 A 
HETATM   33  C   UNK     0     180.631 183.634 173.294  0.00  0.00     0.071 A 
BRANCH  24  34
HETATM   34  C   UNK     0     183.685 187.592 169.939  0.00  0.00     0.004 A 
HETATM   35  C   UNK     0     182.919 188.422 169.120  0.00  0.00     0.053 A 
HETATM   36  C   UNK     0     183.343 189.723 168.852  0.00  0.00     0.099 A 
HETATM   37  C   UNK     0     184.535 190.195 169.401  0.00  0.00     0.098 A 
HETATM   38  C   UNK     0     185.302 189.365 170.220  0.00  0.00     0.040 A 
HETATM   39  C   UNK     0     184.876 188.065 170.489  0.00  0.00     0.017 A 
BRANCH  36  40
HETATM   40  O   UNK     0     182.587 190.523 168.048  0.00  0.00    -0.358 OA
HETATM   41  H   UNK     0     183.027 191.382 167.936  0.00  0.00     0.217 HD
ENDBRANCH  36  40
BRANCH  37  42
HETATM   42  O   UNK     0     184.960 191.464 169.146  0.00  0.00    -0.358 OA
HETATM   43  H   UNK     0     184.229 192.087 169.278  0.00  0.00     0.217 HD
ENDBRANCH  37  42
ENDBRANCH  24  34
BRANCH  30  44
HETATM   44  O   UNK     0     181.969 181.344 170.797  0.00  0.00    -0.360 OA
HETATM   45  H   UNK     0     181.155 180.812 170.763  0.00  0.00     0.217 HD
ENDBRANCH  30  44
BRANCH  33  46
HETATM   46  O   UNK     0     179.844 183.583 174.404  0.00  0.00    -0.361 OA
HETATM   47  H   UNK     0     178.970 183.238 174.156  0.00  0.00     0.217 HD
ENDBRANCH  33  46
ENDBRANCH  22  23
ENDBRANCH   6  22
BRANCH   3  48
HETATM   48  O   UNK     0     189.641 185.075 170.100  0.00  0.00    -0.390 OA
HETATM   49  H   UNK     0     190.261 185.806 169.942  0.00  0.00     0.210 HD
ENDBRANCH   3  48
BRANCH   5  50
HETATM   50  O   UNK     0     186.518 185.571 166.495  0.00  0.00    -0.388 OA
HETATM   51  H   UNK     0     187.208 186.058 166.014  0.00  0.00     0.210 HD
ENDBRANCH   5  50
BRANCH   4  52
HETATM   52  O   UNK     0     188.964 186.624 167.756  0.00  0.00    -0.390 OA
HETATM   53  H   UNK     0     189.777 186.221 167.406  0.00  0.00     0.210 HD
ENDBRANCH   4  52
TORSDOF 16
