MODEL 1
REMARK VINA RESULT:     -12.0      0.000      0.000
REMARK  Name = 5280637
REMARK                            x       y       z     vdW  Elec       q    Type
REMARK                         _______ _______ _______ _____ _____    ______ ____
ROOT
ATOM     13  C   LIG    1       11.987  20.369  25.112  0.00  0.00    +0.131 A 
ATOM     14  C   LIG    1       12.701  20.754  26.247  0.00  0.00    +0.092 A 
ATOM     15  C   LIG    1       13.240  19.787  27.098  0.00  0.00    +0.135 A 
ATOM     16  C   LIG    1       13.059  18.434  26.804  0.00  0.00    +0.105 A 
ATOM     17  C   LIG    1       13.614  17.392  27.682  0.00  0.00    +0.197 A 
ATOM     18  C   LIG    1       13.364  15.994  27.275  0.00  0.00    +0.098 A 
ATOM     19  C   LIG    1       12.666  15.750  26.155  0.00  0.00    +0.139 A 
ATOM     30  O   LIG    1       12.138  16.734  25.333  0.00  0.00    -0.454 OA
ATOM     31  O   LIG    1       14.246  17.659  28.694  0.00  0.00    -0.287 OA
ATOM     32  C   LIG    1       12.346  18.048  25.670  0.00  0.00    +0.146 A 
ATOM     35  C   LIG    1       11.808  19.016  24.822  0.00  0.00    +0.093 A 
ENDROOT
BRANCH  19  20
ATOM     20  C   LIG    1       12.378  14.373  25.703  0.00  0.00    +0.021 A 
ATOM     21  C   LIG    1       12.787  13.283  26.474  0.00  0.00    +0.015 A 
ATOM     22  C   LIG    1       12.517  11.983  26.046  0.00  0.00    +0.050 A 
ATOM     23  C   LIG    1       11.835  11.770  24.848  0.00  0.00    +0.158 A 
ATOM     24  C   LIG    1       11.426  12.858  24.076  0.00  0.00    +0.159 A 
ATOM     29  C   LIG    1       11.697  14.158  24.503  0.00  0.00    +0.060 A 
BRANCH  24  25
ATOM     25  O   LIG    1       10.758  12.661  22.905  0.00  0.00    -0.503 OA
ATOM     26  H   LIG    1       11.013  13.365  22.285  0.00  0.00    +0.292 HD
ENDBRANCH  24  25
BRANCH  23  27
ATOM     27  O   LIG    1       11.577  10.496  24.441  0.00  0.00    -0.503 OA
ATOM     28  H   LIG    1       12.100   9.879  24.982  0.00  0.00    +0.292 HD
ENDBRANCH  23  27
ENDBRANCH  19  20
BRANCH  15  33
ATOM     33  O   LIG    1       13.928  20.214  28.193  0.00  0.00    -0.506 OA
ATOM     34  H   LIG    1       13.369  20.172  28.984  0.00  0.00    +0.292 HD
ENDBRANCH  15  33
BRANCH  13  12
ATOM     12  O   LIG    1       11.462  21.318  24.284  0.00  0.00    -0.461 OA
BRANCH  12   2
ATOM      1  O   LIG    1        9.924  20.166  22.961  0.00  0.00    -0.331 OA
ATOM      2  C   LIG    1       10.082  21.180  23.951  0.00  0.00    +0.339 C 
ATOM      3  C   LIG    1        9.590  22.527  23.420  0.00  0.00    +0.214 C 
ATOM      4  C   LIG    1        8.156  22.429  22.897  0.00  0.00    +0.180 C 
ATOM      5  C   LIG    1        7.989  21.230  21.963  0.00  0.00    +0.177 C 
ATOM     36  C   LIG    1        8.557  19.960  22.600  0.00  0.00    +0.179 C 
BRANCH   5   6
ATOM      6  O   LIG    1        6.605  21.040  21.683  0.00  0.00    -0.386 OA
ATOM      7  H   LIG    1        6.527  20.673  20.786  0.00  0.00    +0.210 HD
ENDBRANCH   5   6
BRANCH   4   8
ATOM      8  O   LIG    1        7.836  23.611  22.162  0.00  0.00    -0.386 OA
ATOM      9  H   LIG    1        7.450  24.247  22.789  0.00  0.00    +0.210 HD
ENDBRANCH   4   8
BRANCH   3  10
ATOM     10  O   LIG    1        9.641  23.474  24.487  0.00  0.00    -0.383 OA
ATOM     11  H   LIG    1        9.560  22.988  25.325  0.00  0.00    +0.210 HD
ENDBRANCH   3  10
BRANCH  36  37
ATOM     37  C   LIG    1        8.507  18.776  21.640  0.00  0.00    +0.190 C 
BRANCH  37  38
ATOM     38  O   LIG    1        7.157  18.384  21.478  0.00  0.00    -0.392 OA
ATOM     39  H   LIG    1        6.788  18.220  22.363  0.00  0.00    +0.210 HD
ENDBRANCH  37  38
ENDBRANCH  36  37
ENDBRANCH  12   2
ENDBRANCH  13  12
TORSDOF 11
ENDMDL
MODEL 2
REMARK VINA RESULT:     -11.1     20.698     24.093
REMARK  Name = 5280637
REMARK                            x       y       z     vdW  Elec       q    Type
REMARK                         _______ _______ _______ _____ _____    ______ ____
ROOT
ATOM     13  C   LIG    1       22.553  31.352  12.326  0.00  0.00    +0.131 A 
ATOM     14  C   LIG    1       22.616  31.636  10.961  0.00  0.00    +0.092 A 
ATOM     15  C   LIG    1       22.987  32.909  10.526  0.00  0.00    +0.135 A 
ATOM     16  C   LIG    1       23.296  33.895  11.465  0.00  0.00    +0.105 A 
ATOM     17  C   LIG    1       23.690  35.246  11.037  0.00  0.00    +0.197 A 
ATOM     18  C   LIG    1       23.996  36.209  12.115  0.00  0.00    +0.098 A 
ATOM     19  C   LIG    1       23.906  35.814  13.395  0.00  0.00    +0.139 A 
ATOM     30  O   LIG    1       23.527  34.542  13.795  0.00  0.00    -0.454 OA
ATOM     31  O   LIG    1       23.762  35.563   9.858  0.00  0.00    -0.287 OA
ATOM     32  C   LIG    1       23.235  33.613  12.829  0.00  0.00    +0.146 A 
ATOM     35  C   LIG    1       22.862  32.340  13.262  0.00  0.00    +0.093 A 
ENDROOT
BRANCH  19  20
ATOM     20  C   LIG    1       24.191  36.736  14.514  0.00  0.00    +0.021 A 
ATOM     21  C   LIG    1       23.400  37.870  14.707  0.00  0.00    +0.015 A 
ATOM     22  C   LIG    1       23.671  38.740  15.763  0.00  0.00    +0.050 A 
ATOM     23  C   LIG    1       24.733  38.478  16.629  0.00  0.00    +0.158 A 
ATOM     24  C   LIG    1       25.525  37.346  16.437  0.00  0.00    +0.159 A 
ATOM     29  C   LIG    1       25.255  36.476  15.381  0.00  0.00    +0.060 A 
BRANCH  24  25
ATOM     25  O   LIG    1       26.564  37.080  17.278  0.00  0.00    -0.503 OA
ATOM     26  H   LIG    1       26.504  36.149  17.553  0.00  0.00    +0.292 HD
ENDBRANCH  24  25
BRANCH  23  27
ATOM     27  O   LIG    1       24.987  39.336  17.655  0.00  0.00    -0.503 OA
ATOM     28  H   LIG    1       25.831  39.791  17.487  0.00  0.00    +0.292 HD
ENDBRANCH  23  27
ENDBRANCH  19  20
BRANCH  15  33
ATOM     33  O   LIG    1       23.033  33.135   9.183  0.00  0.00    -0.506 OA
ATOM     34  H   LIG    1       22.146  33.074   8.798  0.00  0.00    +0.292 HD
ENDBRANCH  15  33
BRANCH  13  12
ATOM     12  O   LIG    1       22.189  30.107  12.746  0.00  0.00    -0.461 OA
BRANCH  12   2
ATOM      1  O   LIG    1       21.956  28.842  10.800  0.00  0.00    -0.331 OA
ATOM      2  C   LIG    1       22.705  29.005  12.001  0.00  0.00    +0.339 C 
ATOM      3  C   LIG    1       22.597  27.755  12.875  0.00  0.00    +0.214 C 
ATOM      4  C   LIG    1       22.991  26.498  12.098  0.00  0.00    +0.180 C 
ATOM      5  C   LIG    1       22.286  26.441  10.743  0.00  0.00    +0.177 C 
ATOM     36  C   LIG    1       22.441  27.766   9.994  0.00  0.00    +0.179 C 
BRANCH   5   6
ATOM      6  O   LIG    1       22.848  25.389   9.963  0.00  0.00    -0.386 OA
ATOM      7  H   LIG    1       23.266  24.756  10.571  0.00  0.00    +0.210 HD
ENDBRANCH   5   6
BRANCH   4   8
ATOM      8  O   LIG    1       22.611  25.340  12.844  0.00  0.00    -0.386 OA
ATOM      9  H   LIG    1       23.075  24.579  12.454  0.00  0.00    +0.210 HD
ENDBRANCH   4   8
BRANCH   3  10
ATOM     10  O   LIG    1       23.469  27.913  13.994  0.00  0.00    -0.383 OA
ATOM     11  H   LIG    1       23.154  27.332  14.706  0.00  0.00    +0.210 HD
ENDBRANCH   3  10
BRANCH  36  37
ATOM     37  C   LIG    1       21.647  27.774   8.691  0.00  0.00    +0.190 C 
BRANCH  37  38
ATOM     38  O   LIG    1       22.248  28.697   7.803  0.00  0.00    -0.392 OA
ATOM     39  H   LIG    1       23.210  28.658   7.942  0.00  0.00    +0.210 HD
ENDBRANCH  37  38
ENDBRANCH  36  37
ENDBRANCH  12   2
ENDBRANCH  13  12
TORSDOF 11
ENDMDL
MODEL 3
REMARK VINA RESULT:     -10.9      2.148      3.888
REMARK  Name = 5280637
REMARK                            x       y       z     vdW  Elec       q    Type
REMARK                         _______ _______ _______ _____ _____    ______ ____
ROOT
ATOM     13  C   LIG    1       13.046  18.514  26.546  0.00  0.00    +0.131 A 
ATOM     14  C   LIG    1       13.701  17.858  27.588  0.00  0.00    +0.092 A 
ATOM     15  C   LIG    1       13.732  16.464  27.631  0.00  0.00    +0.135 A 
ATOM     16  C   LIG    1       13.102  15.730  26.623  0.00  0.00    +0.105 A 
ATOM     17  C   LIG    1       13.116  14.260  26.641  0.00  0.00    +0.197 A 
ATOM     18  C   LIG    1       12.421  13.587  25.525  0.00  0.00    +0.098 A 
ATOM     19  C   LIG    1       11.830  14.329  24.575  0.00  0.00    +0.139 A 
ATOM     30  O   LIG    1       11.812  15.715  24.564  0.00  0.00    -0.454 OA
ATOM     31  O   LIG    1       13.669  13.622  27.527  0.00  0.00    -0.287 OA
ATOM     32  C   LIG    1       12.447  16.384  25.580  0.00  0.00    +0.146 A 
ATOM     35  C   LIG    1       12.418  17.778  25.540  0.00  0.00    +0.093 A 
ENDROOT
BRANCH  19  20
ATOM     20  C   LIG    1       11.113  13.711  23.440  0.00  0.00    +0.021 A 
ATOM     21  C   LIG    1       11.015  12.321  23.346  0.00  0.00    +0.015 A 
ATOM     22  C   LIG    1       10.339  11.738  22.275  0.00  0.00    +0.050 A 
ATOM     23  C   LIG    1        9.759  12.543  21.294  0.00  0.00    +0.158 A 
ATOM     24  C   LIG    1        9.857  13.932  21.385  0.00  0.00    +0.159 A 
ATOM     29  C   LIG    1       10.532  14.515  22.457  0.00  0.00    +0.060 A 
BRANCH  24  25
ATOM     25  O   LIG    1        9.292  14.728  20.434  0.00  0.00    -0.503 OA
ATOM     26  H   LIG    1        9.794  15.559  20.393  0.00  0.00    +0.292 HD
ENDBRANCH  24  25
BRANCH  23  27
ATOM     27  O   LIG    1        9.103  11.962  20.252  0.00  0.00    -0.503 OA
ATOM     28  H   LIG    1        8.237  12.392  20.143  0.00  0.00    +0.292 HD
ENDBRANCH  23  27
ENDBRANCH  19  20
BRANCH  15  33
ATOM     33  O   LIG    1       14.384  15.872  28.670  0.00  0.00    -0.506 OA
ATOM     34  H   LIG    1       13.759  15.626  29.369  0.00  0.00    +0.292 HD
ENDBRANCH  15  33
BRANCH  13  12
ATOM     12  O   LIG    1       13.019  19.877  26.509  0.00  0.00    -0.461 OA
BRANCH  12   2
ATOM      1  O   LIG    1       11.378  20.930  25.227  0.00  0.00    -0.331 OA
ATOM      2  C   LIG    1       11.731  20.490  26.536  0.00  0.00    +0.339 C 
ATOM      3  C   LIG    1       11.794  21.675  27.500  0.00  0.00    +0.214 C 
ATOM      4  C   LIG    1       10.496  22.482  27.476  0.00  0.00    +0.180 C 
ATOM      5  C   LIG    1       10.066  22.797  26.044  0.00  0.00    +0.177 C 
ATOM     36  C   LIG    1       10.084  21.533  25.181  0.00  0.00    +0.179 C 
BRANCH   5   6
ATOM      6  O   LIG    1        8.749  23.341  26.055  0.00  0.00    -0.386 OA
ATOM      7  H   LIG    1        8.790  24.218  26.473  0.00  0.00    +0.210 HD
ENDBRANCH   5   6
BRANCH   4   8
ATOM      8  O   LIG    1       10.693  23.720  28.162  0.00  0.00    -0.386 OA
ATOM      9  H   LIG    1       10.753  23.520  29.112  0.00  0.00    +0.210 HD
ENDBRANCH   4   8
BRANCH   3  10
ATOM     10  O   LIG    1       12.014  21.171  28.817  0.00  0.00    -0.383 OA
ATOM     11  H   LIG    1       11.560  20.314  28.891  0.00  0.00    +0.210 HD
ENDBRANCH   3  10
BRANCH  36  37
ATOM     37  C   LIG    1        9.772  21.842  23.720  0.00  0.00    +0.190 C 
BRANCH  37  38
ATOM     38  O   LIG    1        9.898  23.238  23.518  0.00  0.00    -0.392 OA
ATOM     39  H   LIG    1        9.461  23.455  22.677  0.00  0.00    +0.210 HD
ENDBRANCH  37  38
ENDBRANCH  36  37
ENDBRANCH  12   2
ENDBRANCH  13  12
TORSDOF 11
ENDMDL
MODEL 4
REMARK VINA RESULT:     -10.7     19.635     21.970
REMARK  Name = 5280637
REMARK                            x       y       z     vdW  Elec       q    Type
REMARK                         _______ _______ _______ _____ _____    ______ ____
ROOT
ATOM     13  C   LIG    1       23.007  32.725  12.879  0.00  0.00    +0.131 A 
ATOM     14  C   LIG    1       23.176  33.138  11.558  0.00  0.00    +0.092 A 
ATOM     15  C   LIG    1       22.942  32.248  10.509  0.00  0.00    +0.135 A 
ATOM     16  C   LIG    1       22.536  30.942  10.792  0.00  0.00    +0.105 A 
ATOM     17  C   LIG    1       22.282  29.981   9.708  0.00  0.00    +0.197 A 
ATOM     18  C   LIG    1       21.856  28.628  10.122  0.00  0.00    +0.098 A 
ATOM     19  C   LIG    1       21.722  28.352  11.428  0.00  0.00    +0.139 A 
ATOM     30  O   LIG    1       21.969  29.258  12.448  0.00  0.00    -0.454 OA
ATOM     31  O   LIG    1       22.415  30.276   8.528  0.00  0.00    -0.287 OA
ATOM     32  C   LIG    1       22.365  30.528  12.112  0.00  0.00    +0.146 A 
ATOM     35  C   LIG    1       22.602  31.419  13.159  0.00  0.00    +0.093 A 
ENDROOT
BRANCH  19  20
ATOM     20  C   LIG    1       21.307  27.015  11.901  0.00  0.00    +0.021 A 
ATOM     21  C   LIG    1       21.849  25.867  11.320  0.00  0.00    +0.015 A 
ATOM     22  C   LIG    1       21.457  24.605  11.766  0.00  0.00    +0.050 A 
ATOM     23  C   LIG    1       20.522  24.488  12.794  0.00  0.00    +0.158 A 
ATOM     24  C   LIG    1       19.978  25.633  13.375  0.00  0.00    +0.159 A 
ATOM     29  C   LIG    1       20.370  26.895  12.930  0.00  0.00    +0.060 A 
BRANCH  24  25
ATOM     25  O   LIG    1       19.065  25.530  14.382  0.00  0.00    -0.503 OA
ATOM     26  H   LIG    1       19.471  25.864  15.199  0.00  0.00    +0.292 HD
ENDBRANCH  24  25
BRANCH  23  27
ATOM     27  O   LIG    1       20.146  23.249  13.220  0.00  0.00    -0.503 OA
ATOM     28  H   LIG    1       20.775  22.942  13.895  0.00  0.00    +0.292 HD
ENDBRANCH  23  27
ENDBRANCH  19  20
BRANCH  15  33
ATOM     33  O   LIG    1       23.122  32.700   9.237  0.00  0.00    -0.506 OA
ATOM     34  H   LIG    1       23.838  33.353   9.205  0.00  0.00    +0.292 HD
ENDBRANCH  15  33
BRANCH  13  12
ATOM     12  O   LIG    1       23.239  33.599  13.901  0.00  0.00    -0.461 OA
BRANCH  12   2
ATOM      1  O   LIG    1       23.473  35.582  12.695  0.00  0.00    -0.331 OA
ATOM      2  C   LIG    1       22.744  34.926  13.730  0.00  0.00    +0.339 C 
ATOM      3  C   LIG    1       22.915  35.666  15.057  0.00  0.00    +0.214 C 
ATOM      4  C   LIG    1       22.548  37.144  14.921  0.00  0.00    +0.180 C 
ATOM      5  C   LIG    1       23.225  37.772  13.703  0.00  0.00    +0.177 C 
ATOM     36  C   LIG    1       23.008  36.912  12.456  0.00  0.00    +0.179 C 
BRANCH   5   6
ATOM      6  O   LIG    1       22.683  39.071  13.480  0.00  0.00    -0.386 OA
ATOM      7  H   LIG    1       23.146  39.694  14.066  0.00  0.00    +0.210 HD
ENDBRANCH   5   6
BRANCH   4   8
ATOM      8  O   LIG    1       22.984  37.851  16.084  0.00  0.00    -0.386 OA
ATOM      9  H   LIG    1       23.879  38.185  15.902  0.00  0.00    +0.210 HD
ENDBRANCH   4   8
BRANCH   3  10
ATOM     10  O   LIG    1       22.062  35.053  16.024  0.00  0.00    -0.383 OA
ATOM     11  H   LIG    1       21.219  34.839  15.590  0.00  0.00    +0.210 HD
ENDBRANCH   3  10
BRANCH  36  37
ATOM     37  C   LIG    1       23.772  37.458  11.254  0.00  0.00    +0.190 C 
BRANCH  37  38
ATOM     38  O   LIG    1       23.187  36.937  10.075  0.00  0.00    -0.392 OA
ATOM     39  H   LIG    1       23.266  37.615   9.381  0.00  0.00    +0.210 HD
ENDBRANCH  37  38
ENDBRANCH  36  37
ENDBRANCH  12   2
ENDBRANCH  13  12
TORSDOF 11
ENDMDL
MODEL 5
REMARK VINA RESULT:     -10.4     24.227     26.889
REMARK  Name = 5280637
REMARK                            x       y       z     vdW  Elec       q    Type
REMARK                         _______ _______ _______ _____ _____    ______ ____
ROOT
ATOM     13  C   LIG    1       24.023  37.877  10.589  0.00  0.00    +0.131 A 
ATOM     14  C   LIG    1       23.877  38.438  11.857  0.00  0.00    +0.092 A 
ATOM     15  C   LIG    1       23.538  37.633  12.946  0.00  0.00    +0.135 A 
ATOM     16  C   LIG    1       23.347  36.262  12.756  0.00  0.00    +0.105 A 
ATOM     17  C   LIG    1       22.988  35.388  13.883  0.00  0.00    +0.197 A 
ATOM     18  C   LIG    1       22.812  33.956  13.568  0.00  0.00    +0.098 A 
ATOM     19  C   LIG    1       22.986  33.534  12.305  0.00  0.00    +0.139 A 
ATOM     30  O   LIG    1       23.316  34.361  11.243  0.00  0.00    -0.454 OA
ATOM     31  O   LIG    1       22.841  35.815  15.019  0.00  0.00    -0.287 OA
ATOM     32  C   LIG    1       23.493  35.700  11.488  0.00  0.00    +0.146 A 
ATOM     35  C   LIG    1       23.830  36.507  10.402  0.00  0.00    +0.093 A 
ENDROOT
BRANCH  19  20
ATOM     20  C   LIG    1       22.815  32.115  11.930  0.00  0.00    +0.021 A 
ATOM     21  C   LIG    1       22.543  31.769  10.605  0.00  0.00    +0.015 A 
ATOM     22  C   LIG    1       22.380  30.430  10.251  0.00  0.00    +0.050 A 
ATOM     23  C   LIG    1       22.489  29.433  11.221  0.00  0.00    +0.158 A 
ATOM     24  C   LIG    1       22.760  29.777  12.546  0.00  0.00    +0.159 A 
ATOM     29  C   LIG    1       22.923  31.116  12.900  0.00  0.00    +0.060 A 
BRANCH  24  25
ATOM     25  O   LIG    1       22.870  28.811  13.501  0.00  0.00    -0.503 OA
ATOM     26  H   LIG    1       22.797  27.943  13.069  0.00  0.00    +0.292 HD
ENDBRANCH  24  25
BRANCH  23  27
ATOM     27  O   LIG    1       22.327  28.129  10.863  0.00  0.00    -0.503 OA
ATOM     28  H   LIG    1       21.381  27.957  10.713  0.00  0.00    +0.292 HD
ENDBRANCH  23  27
ENDBRANCH  19  20
BRANCH  15  33
ATOM     33  O   LIG    1       23.407  38.229  14.163  0.00  0.00    -0.506 OA
ATOM     34  H   LIG    1       22.587  38.743  14.204  0.00  0.00    +0.292 HD
ENDBRANCH  15  33
BRANCH  13  12
ATOM     12  O   LIG    1       24.353  38.668   9.528  0.00  0.00    -0.461 OA
BRANCH  12   2
ATOM      1  O   LIG    1       25.014  40.897   9.717  0.00  0.00    -0.331 OA
ATOM      2  C   LIG    1       25.464  39.545   9.707  0.00  0.00    +0.339 C 
ATOM      3  C   LIG    1       26.438  39.312   8.552  0.00  0.00    +0.214 C 
ATOM      4  C   LIG    1       27.589  40.318   8.584  0.00  0.00    +0.180 C 
ATOM      5  C   LIG    1       27.072  41.746   8.756  0.00  0.00    +0.177 C 
ATOM     36  C   LIG    1       26.080  41.828   9.919  0.00  0.00    +0.179 C 
BRANCH   5   6
ATOM      6  O   LIG    1       28.170  42.618   9.011  0.00  0.00    -0.386 OA
ATOM      7  H   LIG    1       28.578  42.843   8.158  0.00  0.00    +0.210 HD
ENDBRANCH   5   6
BRANCH   4   8
ATOM      8  O   LIG    1       28.310  40.254   7.352  0.00  0.00    -0.386 OA
ATOM      9  H   LIG    1       28.953  40.985   7.354  0.00  0.00    +0.210 HD
ENDBRANCH   4   8
BRANCH   3  10
ATOM     10  O   LIG    1       26.962  37.989   8.667  0.00  0.00    -0.383 OA
ATOM     11  H   LIG    1       26.232  37.396   8.915  0.00  0.00    +0.210 HD
ENDBRANCH   3  10
BRANCH  36  37
ATOM     37  C   LIG    1       25.461  43.217  10.036  0.00  0.00    +0.190 C 
BRANCH  37  38
ATOM     38  O   LIG    1       26.461  44.120  10.473  0.00  0.00    -0.392 OA
ATOM     39  H   LIG    1       26.732  44.654   9.707  0.00  0.00    +0.210 HD
ENDBRANCH  37  38
ENDBRANCH  36  37
ENDBRANCH  12   2
ENDBRANCH  13  12
TORSDOF 11
ENDMDL
MODEL 6
REMARK VINA RESULT:     -10.3     17.212     20.968
REMARK  Name = 5280637
REMARK                            x       y       z     vdW  Elec       q    Type
REMARK                         _______ _______ _______ _____ _____    ______ ____
ROOT
ATOM     13  C   LIG    1       15.731  39.023  27.747  0.00  0.00    +0.131 A 
ATOM     14  C   LIG    1       16.374  39.899  26.871  0.00  0.00    +0.092 A 
ATOM     15  C   LIG    1       17.461  39.461  26.113  0.00  0.00    +0.135 A 
ATOM     16  C   LIG    1       17.900  38.141  26.237  0.00  0.00    +0.105 A 
ATOM     17  C   LIG    1       19.043  37.650  25.453  0.00  0.00    +0.197 A 
ATOM     18  C   LIG    1       19.420  36.237  25.662  0.00  0.00    +0.098 A 
ATOM     19  C   LIG    1       18.719  35.491  26.531  0.00  0.00    +0.139 A 
ATOM     30  O   LIG    1       17.646  35.958  27.274  0.00  0.00    -0.454 OA
ATOM     31  O   LIG    1       19.653  38.365  24.670  0.00  0.00    -0.287 OA
ATOM     32  C   LIG    1       17.258  37.264  27.112  0.00  0.00    +0.146 A 
ATOM     35  C   LIG    1       16.173  37.705  27.869  0.00  0.00    +0.093 A 
ENDROOT
BRANCH  19  20
ATOM     20  C   LIG    1       19.055  34.075  26.787  0.00  0.00    +0.021 A 
ATOM     21  C   LIG    1       20.133  33.481  26.127  0.00  0.00    +0.015 A 
ATOM     22  C   LIG    1       20.449  32.144  26.369  0.00  0.00    +0.050 A 
ATOM     23  C   LIG    1       19.690  31.399  27.271  0.00  0.00    +0.158 A 
ATOM     24  C   LIG    1       18.612  31.990  27.930  0.00  0.00    +0.159 A 
ATOM     29  C   LIG    1       18.296  33.327  27.689  0.00  0.00    +0.060 A 
BRANCH  24  25
ATOM     25  O   LIG    1       17.865  31.272  28.815  0.00  0.00    -0.503 OA
ATOM     26  H   LIG    1       16.929  31.497  28.678  0.00  0.00    +0.292 HD
ENDBRANCH  24  25
BRANCH  23  27
ATOM     27  O   LIG    1       20.009  30.094  27.497  0.00  0.00    -0.503 OA
ATOM     28  H   LIG    1       20.182  29.970  28.446  0.00  0.00    +0.292 HD
ENDBRANCH  23  27
ENDBRANCH  19  20
BRANCH  15  33
ATOM     33  O   LIG    1       18.054  40.354  25.273  0.00  0.00    -0.506 OA
ATOM     34  H   LIG    1       17.448  41.081  25.066  0.00  0.00    +0.292 HD
ENDBRANCH  15  33
BRANCH  13  12
ATOM     12  O   LIG    1       14.670  39.457  28.486  0.00  0.00    -0.461 OA
BRANCH  12   2
ATOM      1  O   LIG    1       15.521  38.819  30.562  0.00  0.00    -0.331 OA
ATOM      2  C   LIG    1       14.953  39.891  29.815  0.00  0.00    +0.339 C 
ATOM      3  C   LIG    1       13.639  40.350  30.449  0.00  0.00    +0.214 C 
ATOM      4  C   LIG    1       13.825  40.693  31.928  0.00  0.00    +0.180 C 
ATOM      5  C   LIG    1       14.582  39.585  32.661  0.00  0.00    +0.177 C 
ATOM     36  C   LIG    1       15.851  39.198  31.900  0.00  0.00    +0.179 C 
BRANCH   5   6
ATOM      6  O   LIG    1       14.934  40.040  33.966  0.00  0.00    -0.386 OA
ATOM      7  H   LIG    1       15.528  39.380  34.363  0.00  0.00    +0.210 HD
ENDBRANCH   5   6
BRANCH   4   8
ATOM      8  O   LIG    1       12.546  40.840  32.546  0.00  0.00    -0.386 OA
ATOM      9  H   LIG    1       11.978  41.330  31.926  0.00  0.00    +0.210 HD
ENDBRANCH   4   8
BRANCH   3  10
ATOM     10  O   LIG    1       13.183  41.507  29.749  0.00  0.00    -0.383 OA
ATOM     11  H   LIG    1       13.689  41.577  28.920  0.00  0.00    +0.210 HD
ENDBRANCH   3  10
BRANCH  36  37
ATOM     37  C   LIG    1       16.561  38.015  32.551  0.00  0.00    +0.190 C 
BRANCH  37  38
ATOM     38  O   LIG    1       17.340  37.360  31.567  0.00  0.00    -0.392 OA
ATOM     39  H   LIG    1       16.729  36.933  30.942  0.00  0.00    +0.210 HD
ENDBRANCH  37  38
ENDBRANCH  36  37
ENDBRANCH  12   2
ENDBRANCH  13  12
TORSDOF 11
ENDMDL
MODEL 7
REMARK VINA RESULT:     -10.3     15.123     16.444
REMARK  Name = 5280637
REMARK                            x       y       z     vdW  Elec       q    Type
REMARK                         _______ _______ _______ _____ _____    ______ ____
ROOT
ATOM     13  C   LIG    1       25.908  21.979  23.538  0.00  0.00    +0.131 A 
ATOM     14  C   LIG    1       26.041  21.209  22.383  0.00  0.00    +0.092 A 
ATOM     15  C   LIG    1       26.392  19.861  22.475  0.00  0.00    +0.135 A 
ATOM     16  C   LIG    1       26.607  19.290  23.731  0.00  0.00    +0.105 A 
ATOM     17  C   LIG    1       26.978  17.872  23.859  0.00  0.00    +0.197 A 
ATOM     18  C   LIG    1       27.179  17.373  25.235  0.00  0.00    +0.098 A 
ATOM     19  C   LIG    1       27.015  18.212  26.270  0.00  0.00    +0.139 A 
ATOM     30  O   LIG    1       26.673  19.549  26.145  0.00  0.00    -0.454 OA
ATOM     31  O   LIG    1       27.116  17.142  22.888  0.00  0.00    -0.287 OA
ATOM     32  C   LIG    1       26.473  20.058  24.887  0.00  0.00    +0.146 A 
ATOM     35  C   LIG    1       26.124  21.405  24.792  0.00  0.00    +0.093 A 
ENDROOT
BRANCH  19  20
ATOM     20  C   LIG    1       27.211  17.770  27.666  0.00  0.00    +0.021 A 
ATOM     21  C   LIG    1       27.394  18.713  28.680  0.00  0.00    +0.015 A 
ATOM     22  C   LIG    1       27.580  18.297  29.998  0.00  0.00    +0.050 A 
ATOM     23  C   LIG    1       27.584  16.936  30.306  0.00  0.00    +0.158 A 
ATOM     24  C   LIG    1       27.402  15.992  29.295  0.00  0.00    +0.159 A 
ATOM     29  C   LIG    1       27.216  16.409  27.977  0.00  0.00    +0.060 A 
BRANCH  24  25
ATOM     25  O   LIG    1       27.402  14.660  29.585  0.00  0.00    -0.503 OA
ATOM     26  H   LIG    1       26.784  14.507  30.319  0.00  0.00    +0.292 HD
ENDBRANCH  24  25
BRANCH  23  27
ATOM     27  O   LIG    1       27.768  16.542  31.597  0.00  0.00    -0.503 OA
ATOM     28  H   LIG    1       26.909  16.538  32.053  0.00  0.00    +0.292 HD
ENDBRANCH  23  27
ENDBRANCH  19  20
BRANCH  15  33
ATOM     33  O   LIG    1       26.510  19.153  21.317  0.00  0.00    -0.506 OA
ATOM     34  H   LIG    1       26.378  18.208  21.481  0.00  0.00    +0.292 HD
ENDBRANCH  15  33
BRANCH  13  12
ATOM     12  O   LIG    1       25.566  23.296  23.443  0.00  0.00    -0.461 OA
BRANCH  12   2
ATOM      1  O   LIG    1       24.668  24.668  25.103  0.00  0.00    -0.331 OA
ATOM      2  C   LIG    1       25.870  24.117  24.570  0.00  0.00    +0.339 C 
ATOM      3  C   LIG    1       26.808  25.230  24.101  0.00  0.00    +0.214 C 
ATOM      4  C   LIG    1       27.066  26.246  25.214  0.00  0.00    +0.180 C 
ATOM      5  C   LIG    1       25.759  26.692  25.870  0.00  0.00    +0.177 C 
ATOM     36  C   LIG    1       24.903  25.483  26.253  0.00  0.00    +0.179 C 
BRANCH   5   6
ATOM      6  O   LIG    1       26.054  27.451  27.040  0.00  0.00    -0.386 OA
ATOM      7  H   LIG    1       27.019  27.467  27.152  0.00  0.00    +0.210 HD
ENDBRANCH   5   6
BRANCH   4   8
ATOM      8  O   LIG    1       27.703  27.401  24.665  0.00  0.00    -0.386 OA
ATOM      9  H   LIG    1       27.965  27.970  25.410  0.00  0.00    +0.210 HD
ENDBRANCH   4   8
BRANCH   3  10
ATOM     10  O   LIG    1       28.044  24.637  23.705  0.00  0.00    -0.383 OA
ATOM     11  H   LIG    1       28.171  24.809  22.756  0.00  0.00    +0.210 HD
ENDBRANCH   3  10
BRANCH  36  37
ATOM     37  C   LIG    1       23.543  25.906  26.802  0.00  0.00    +0.190 C 
BRANCH  37  38
ATOM     38  O   LIG    1       23.382  27.295  26.585  0.00  0.00    -0.392 OA
ATOM     39  H   LIG    1       24.198  27.737  26.878  0.00  0.00    +0.210 HD
ENDBRANCH  37  38
ENDBRANCH  36  37
ENDBRANCH  12   2
ENDBRANCH  13  12
TORSDOF 11
ENDMDL
MODEL 8
REMARK VINA RESULT:     -10.2     15.006     17.135
REMARK  Name = 5280637
REMARK                            x       y       z     vdW  Elec       q    Type
REMARK                         _______ _______ _______ _____ _____    ______ ____
ROOT
ATOM     13  C   LIG    1       25.888  21.609  23.609  0.00  0.00    +0.131 A 
ATOM     14  C   LIG    1       26.623  21.159  22.512  0.00  0.00    +0.092 A 
ATOM     15  C   LIG    1       27.613  20.190  22.681  0.00  0.00    +0.135 A 
ATOM     16  C   LIG    1       27.862  19.674  23.956  0.00  0.00    +0.105 A 
ATOM     17  C   LIG    1       28.900  18.653  24.166  0.00  0.00    +0.197 A 
ATOM     18  C   LIG    1       29.076  18.178  25.553  0.00  0.00    +0.098 A 
ATOM     19  C   LIG    1       28.301  18.685  26.525  0.00  0.00    +0.139 A 
ATOM     30  O   LIG    1       27.329  19.653  26.326  0.00  0.00    -0.454 OA
ATOM     31  O   LIG    1       29.582  18.217  23.250  0.00  0.00    -0.287 OA
ATOM     32  C   LIG    1       27.127  20.123  25.052  0.00  0.00    +0.146 A 
ATOM     35  C   LIG    1       26.140  21.092  24.881  0.00  0.00    +0.093 A 
ENDROOT
BRANCH  19  20
ATOM     20  C   LIG    1       28.439  18.254  27.932  0.00  0.00    +0.021 A 
ATOM     21  C   LIG    1       29.490  17.417  28.309  0.00  0.00    +0.015 A 
ATOM     22  C   LIG    1       29.619  17.009  29.637  0.00  0.00    +0.050 A 
ATOM     23  C   LIG    1       28.697  17.440  30.591  0.00  0.00    +0.158 A 
ATOM     24  C   LIG    1       27.645  18.276  30.217  0.00  0.00    +0.159 A 
ATOM     29  C   LIG    1       27.516  18.683  28.889  0.00  0.00    +0.060 A 
BRANCH  24  25
ATOM     25  O   LIG    1       26.740  18.703  31.142  0.00  0.00    -0.503 OA
ATOM     26  H   LIG    1       27.087  19.510  31.559  0.00  0.00    +0.292 HD
ENDBRANCH  24  25
BRANCH  23  27
ATOM     27  O   LIG    1       28.833  17.034  31.885  0.00  0.00    -0.503 OA
ATOM     28  H   LIG    1       28.626  16.085  31.943  0.00  0.00    +0.292 HD
ENDBRANCH  23  27
ENDBRANCH  19  20
BRANCH  15  33
ATOM     33  O   LIG    1       28.303  19.784  21.579  0.00  0.00    -0.506 OA
ATOM     34  H   LIG    1       28.073  20.330  20.813  0.00  0.00    +0.292 HD
ENDBRANCH  15  33
BRANCH  13  12
ATOM     12  O   LIG    1       24.922  22.557  23.438  0.00  0.00    -0.461 OA
BRANCH  12   2
ATOM      1  O   LIG    1       26.706  23.970  23.952  0.00  0.00    -0.331 OA
ATOM      2  C   LIG    1       25.317  23.913  23.639  0.00  0.00    +0.339 C 
ATOM      3  C   LIG    1       24.485  24.478  24.791  0.00  0.00    +0.214 C 
ATOM      4  C   LIG    1       24.948  25.884  25.175  0.00  0.00    +0.180 C 
ATOM      5  C   LIG    1       26.467  25.940  25.344  0.00  0.00    +0.177 C 
ATOM     36  C   LIG    1       27.171  25.308  24.141  0.00  0.00    +0.179 C 
BRANCH   5   6
ATOM      6  O   LIG    1       26.877  27.298  25.471  0.00  0.00    -0.386 OA
ATOM      7  H   LIG    1       26.096  27.862  25.341  0.00  0.00    +0.210 HD
ENDBRANCH   5   6
BRANCH   4   8
ATOM      8  O   LIG    1       24.350  26.260  26.417  0.00  0.00    -0.386 OA
ATOM      9  H   LIG    1       24.101  27.198  26.347  0.00  0.00    +0.210 HD
ENDBRANCH   4   8
BRANCH   3  10
ATOM     10  O   LIG    1       23.120  24.526  24.377  0.00  0.00    -0.383 OA
ATOM     11  H   LIG    1       22.712  25.315  24.774  0.00  0.00    +0.210 HD
ENDBRANCH   3  10
BRANCH  36  37
ATOM     37  C   LIG    1       28.682  25.246  24.341  0.00  0.00    +0.190 C 
BRANCH  37  38
ATOM     38  O   LIG    1       29.275  26.316  23.628  0.00  0.00    -0.392 OA
ATOM     39  H   LIG    1       30.237  26.265  23.764  0.00  0.00    +0.210 HD
ENDBRANCH  37  38
ENDBRANCH  36  37
ENDBRANCH  12   2
ENDBRANCH  13  12
TORSDOF 11
ENDMDL
MODEL 9
REMARK VINA RESULT:     -10.1     20.050     22.718
REMARK  Name = 5280637
REMARK                            x       y       z     vdW  Elec       q    Type
REMARK                         _______ _______ _______ _____ _____    ______ ____
ROOT
ATOM     13  C   LIG    1       21.936  27.305   8.261  0.00  0.00    +0.131 A 
ATOM     14  C   LIG    1       21.962  26.270   9.195  0.00  0.00    +0.092 A 
ATOM     15  C   LIG    1       22.160  26.550  10.547  0.00  0.00    +0.135 A 
ATOM     16  C   LIG    1       22.332  27.874  10.958  0.00  0.00    +0.105 A 
ATOM     17  C   LIG    1       22.544  28.201  12.376  0.00  0.00    +0.197 A 
ATOM     18  C   LIG    1       22.711  29.633  12.698  0.00  0.00    +0.098 A 
ATOM     19  C   LIG    1       22.660  30.540  11.709  0.00  0.00    +0.139 A 
ATOM     30  O   LIG    1       22.468  30.228  10.372  0.00  0.00    -0.454 OA
ATOM     31  O   LIG    1       22.581  27.343  13.247  0.00  0.00    -0.287 OA
ATOM     32  C   LIG    1       22.305  28.910  10.025  0.00  0.00    +0.146 A 
ATOM     35  C   LIG    1       22.108  28.627   8.674  0.00  0.00    +0.093 A 
ENDROOT
BRANCH  19  20
ATOM     20  C   LIG    1       22.829  31.984  11.970  0.00  0.00    +0.021 A 
ATOM     21  C   LIG    1       23.206  32.844  10.935  0.00  0.00    +0.015 A 
ATOM     22  C   LIG    1       23.367  34.207  11.182  0.00  0.00    +0.050 A 
ATOM     23  C   LIG    1       23.151  34.715  12.463  0.00  0.00    +0.158 A 
ATOM     24  C   LIG    1       22.776  33.858  13.498  0.00  0.00    +0.159 A 
ATOM     29  C   LIG    1       22.614  32.495  13.252  0.00  0.00    +0.060 A 
BRANCH  24  25
ATOM     25  O   LIG    1       22.560  34.344  14.753  0.00  0.00    -0.503 OA
ATOM     26  H   LIG    1       21.958  33.738  15.217  0.00  0.00    +0.292 HD
ENDBRANCH  24  25
BRANCH  23  27
ATOM     27  O   LIG    1       23.312  36.048  12.691  0.00  0.00    -0.503 OA
ATOM     28  H   LIG    1       24.204  36.312  12.407  0.00  0.00    +0.292 HD
ENDBRANCH  23  27
ENDBRANCH  19  20
BRANCH  15  33
ATOM     33  O   LIG    1       22.179  25.504  11.420  0.00  0.00    -0.506 OA
ATOM     34  H   LIG    1       22.702  25.724  12.205  0.00  0.00    +0.292 HD
ENDBRANCH  15  33
BRANCH  13  12
ATOM     12  O   LIG    1       21.743  27.025   6.939  0.00  0.00    -0.461 OA
BRANCH  12   2
ATOM      1  O   LIG    1       21.274  24.889   6.128  0.00  0.00    -0.331 OA
ATOM      2  C   LIG    1       20.706  26.096   6.629  0.00  0.00    +0.339 C 
ATOM      3  C   LIG    1       19.799  26.738   5.578  0.00  0.00    +0.214 C 
ATOM      4  C   LIG    1       18.744  25.751   5.076  0.00  0.00    +0.180 C 
ATOM      5  C   LIG    1       19.375  24.411   4.700  0.00  0.00    +0.177 C 
ATOM     36  C   LIG    1       20.285  23.904   5.821  0.00  0.00    +0.179 C 
BRANCH   5   6
ATOM      6  O   LIG    1       18.344  23.455   4.461  0.00  0.00    -0.386 OA
ATOM      7  H   LIG    1       17.843  23.342   5.286  0.00  0.00    +0.210 HD
ENDBRANCH   5   6
BRANCH   4   8
ATOM      8  O   LIG    1       18.109  26.285   3.913  0.00  0.00    -0.386 OA
ATOM      9  H   LIG    1       17.318  26.767   4.209  0.00  0.00    +0.210 HD
ENDBRANCH   4   8
BRANCH   3  10
ATOM     10  O   LIG    1       19.151  27.862   6.172  0.00  0.00    -0.383 OA
ATOM     11  H   LIG    1       19.592  28.053   7.017  0.00  0.00    +0.210 HD
ENDBRANCH   3  10
BRANCH  36  37
ATOM     37  C   LIG    1       21.016  22.627   5.420  0.00  0.00    +0.190 C 
BRANCH  37  38
ATOM     38  O   LIG    1       21.073  22.565   4.007  0.00  0.00    -0.392 OA
ATOM     39  H   LIG    1       21.619  21.797   3.766  0.00  0.00    +0.210 HD
ENDBRANCH  37  38
ENDBRANCH  36  37
ENDBRANCH  12   2
ENDBRANCH  13  12
TORSDOF 11
ENDMDL
