MODEL 1
REMARK VINA RESULT:     -10.5      0.000      0.000
REMARK  Name = 5280637
REMARK                            x       y       z     vdW  Elec       q    Type
REMARK                         _______ _______ _______ _____ _____    ______ ____
ROOT
ATOM     13  C   LIG    1       13.237  21.487  92.106  0.00  0.00    +0.131 A 
ATOM     14  C   LIG    1       14.073  20.867  93.035  0.00  0.00    +0.092 A 
ATOM     15  C   LIG    1       15.370  21.342  93.237  0.00  0.00    +0.135 A 
ATOM     16  C   LIG    1       15.823  22.441  92.504  0.00  0.00    +0.105 A 
ATOM     17  C   LIG    1       17.185  22.963  92.694  0.00  0.00    +0.197 A 
ATOM     18  C   LIG    1       17.557  24.130  91.868  0.00  0.00    +0.098 A 
ATOM     19  C   LIG    1       16.660  24.643  91.012  0.00  0.00    +0.139 A 
ATOM     30  O   LIG    1       15.380  24.144  90.829  0.00  0.00    -0.454 OA
ATOM     31  O   LIG    1       17.970  22.466  93.488  0.00  0.00    -0.287 OA
ATOM     32  C   LIG    1       14.987  23.062  91.576  0.00  0.00    +0.146 A 
ATOM     35  C   LIG    1       13.692  22.585  91.375  0.00  0.00    +0.093 A 
ENDROOT
BRANCH  19  20
ATOM     20  C   LIG    1       16.979  25.803  90.154  0.00  0.00    +0.021 A 
ATOM     21  C   LIG    1       18.107  26.582  90.420  0.00  0.00    +0.015 A 
ATOM     22  C   LIG    1       18.408  27.678  89.612  0.00  0.00    +0.050 A 
ATOM     23  C   LIG    1       17.582  27.997  88.534  0.00  0.00    +0.158 A 
ATOM     24  C   LIG    1       16.454  27.221  88.266  0.00  0.00    +0.159 A 
ATOM     29  C   LIG    1       16.153  26.125  89.075  0.00  0.00    +0.060 A 
BRANCH  24  25
ATOM     25  O   LIG    1       15.641  27.523  87.215  0.00  0.00    -0.503 OA
ATOM     26  H   LIG    1       16.055  27.188  86.402  0.00  0.00    +0.292 HD
ENDBRANCH  24  25
BRANCH  23  27
ATOM     27  O   LIG    1       17.886  29.070  87.752  0.00  0.00    -0.503 OA
ATOM     28  H   LIG    1       18.789  29.367  87.958  0.00  0.00    +0.292 HD
ENDBRANCH  23  27
ENDBRANCH  19  20
BRANCH  15  33
ATOM     33  O   LIG    1       16.147  20.702  94.154  0.00  0.00    -0.506 OA
ATOM     34  H   LIG    1       17.061  20.635  93.839  0.00  0.00    +0.292 HD
ENDBRANCH  15  33
BRANCH  13  12
ATOM     12  O   LIG    1       11.970  21.018  91.912  0.00  0.00    -0.461 OA
BRANCH  12   2
ATOM      1  O   LIG    1       13.060  18.972  92.167  0.00  0.00    -0.331 OA
ATOM      2  C   LIG    1       11.801  19.602  91.951  0.00  0.00    +0.339 C 
ATOM      3  C   LIG    1       11.205  19.164  90.613  0.00  0.00    +0.214 C 
ATOM      4  C   LIG    1       11.129  17.640  90.510  0.00  0.00    +0.180 C 
ATOM      5  C   LIG    1       12.456  16.992  90.906  0.00  0.00    +0.177 C 
ATOM     36  C   LIG    1       12.955  17.549  92.241  0.00  0.00    +0.179 C 
BRANCH   5   6
ATOM      6  O   LIG    1       12.277  15.583  91.020  0.00  0.00    -0.386 OA
ATOM      7  H   LIG    1       12.834  15.268  91.752  0.00  0.00    +0.210 HD
ENDBRANCH   5   6
BRANCH   4   8
ATOM      8  O   LIG    1       10.839  17.268  89.162  0.00  0.00    -0.386 OA
ATOM      9  H   LIG    1       11.338  16.455  88.971  0.00  0.00    +0.210 HD
ENDBRANCH   4   8
BRANCH   3  10
ATOM     10  O   LIG    1        9.891  19.711  90.506  0.00  0.00    -0.383 OA
ATOM     11  H   LIG    1        9.364  19.123  89.938  0.00  0.00    +0.210 HD
ENDBRANCH   3  10
BRANCH  36  37
ATOM     37  C   LIG    1       14.334  17.004  92.599  0.00  0.00    +0.190 C 
BRANCH  37  38
ATOM     38  O   LIG    1       14.842  16.295  91.484  0.00  0.00    -0.392 OA
ATOM     39  H   LIG    1       14.307  16.541  90.709  0.00  0.00    +0.210 HD
ENDBRANCH  37  38
ENDBRANCH  36  37
ENDBRANCH  12   2
ENDBRANCH  13  12
TORSDOF 11
ENDMDL
MODEL 2
REMARK VINA RESULT:     -10.5     12.946     18.217
REMARK  Name = 5280637
REMARK                            x       y       z     vdW  Elec       q    Type
REMARK                         _______ _______ _______ _____ _____    ______ ____
ROOT
ATOM     13  C   LIG    1        8.719  10.494  79.662  0.00  0.00    +0.131 A 
ATOM     14  C   LIG    1        7.718  10.542  78.691  0.00  0.00    +0.092 A 
ATOM     15  C   LIG    1        6.389  10.301  79.042  0.00  0.00    +0.135 A 
ATOM     16  C   LIG    1        6.069  10.012  80.371  0.00  0.00    +0.105 A 
ATOM     17  C   LIG    1        4.678   9.752  80.770  0.00  0.00    +0.197 A 
ATOM     18  C   LIG    1        4.454   9.459  82.201  0.00  0.00    +0.098 A 
ATOM     19  C   LIG    1        5.500   9.447  83.041  0.00  0.00    +0.139 A 
ATOM     30  O   LIG    1        6.811   9.685  82.660  0.00  0.00    -0.454 OA
ATOM     31  O   LIG    1        3.753   9.775  79.971  0.00  0.00    -0.287 OA
ATOM     32  C   LIG    1        7.068   9.964  81.342  0.00  0.00    +0.146 A 
ATOM     35  C   LIG    1        8.396  10.204  80.988  0.00  0.00    +0.093 A 
ENDROOT
BRANCH  19  20
ATOM     20  C   LIG    1        5.338   9.152  84.480  0.00  0.00    +0.021 A 
ATOM     21  C   LIG    1        5.920   8.009  85.031  0.00  0.00    +0.015 A 
ATOM     22  C   LIG    1        5.766   7.729  86.389  0.00  0.00    +0.050 A 
ATOM     23  C   LIG    1        5.029   8.593  87.199  0.00  0.00    +0.158 A 
ATOM     24  C   LIG    1        4.445   9.735  86.651  0.00  0.00    +0.159 A 
ATOM     29  C   LIG    1        4.599  10.015  85.293  0.00  0.00    +0.060 A 
BRANCH  24  25
ATOM     25  O   LIG    1        3.725  10.587  87.434  0.00  0.00    -0.503 OA
ATOM     26  H   LIG    1        4.307  10.924  88.136  0.00  0.00    +0.292 HD
ENDBRANCH  24  25
BRANCH  23  27
ATOM     27  O   LIG    1        4.884   8.309  88.524  0.00  0.00    -0.503 OA
ATOM     28  H   LIG    1        5.656   7.800  88.825  0.00  0.00    +0.292 HD
ENDBRANCH  23  27
ENDBRANCH  19  20
BRANCH  15  33
ATOM     33  O   LIG    1        5.450  10.359  78.058  0.00  0.00    -0.506 OA
ATOM     34  H   LIG    1        5.080  11.252  77.992  0.00  0.00    +0.292 HD
ENDBRANCH  15  33
BRANCH  13  12
ATOM     12  O   LIG    1       10.017  10.729  79.314  0.00  0.00    -0.461 OA
BRANCH  12   2
ATOM      1  O   LIG    1       10.575  12.218  81.021  0.00  0.00    -0.331 OA
ATOM      2  C   LIG    1       10.926  10.994  80.381  0.00  0.00    +0.339 C 
ATOM      3  C   LIG    1       12.333  11.082  79.789  0.00  0.00    +0.214 C 
ATOM      4  C   LIG    1       13.354  11.512  80.843  0.00  0.00    +0.180 C 
ATOM      5  C   LIG    1       12.867  12.737  81.618  0.00  0.00    +0.177 C 
ATOM     36  C   LIG    1       11.436  12.529  82.119  0.00  0.00    +0.179 C 
BRANCH   5   6
ATOM      6  O   LIG    1       13.727  12.964  82.731  0.00  0.00    -0.386 OA
ATOM      7  H   LIG    1       13.847  12.118  83.195  0.00  0.00    +0.210 HD
ENDBRANCH   5   6
BRANCH   4   8
ATOM      8  O   LIG    1       14.584  11.854  80.202  0.00  0.00    -0.386 OA
ATOM      9  H   LIG    1       15.279  11.845  80.883  0.00  0.00    +0.210 HD
ENDBRANCH   4   8
BRANCH   3  10
ATOM     10  O   LIG    1       12.688   9.795  79.284  0.00  0.00    -0.383 OA
ATOM     11  H   LIG    1       12.154   9.130  79.751  0.00  0.00    +0.210 HD
ENDBRANCH   3  10
BRANCH  36  37
ATOM     37  C   LIG    1       10.886  13.782  82.793  0.00  0.00    +0.190 C 
BRANCH  37  38
ATOM     38  O   LIG    1       11.165  13.707  84.179  0.00  0.00    -0.392 OA
ATOM     39  H   LIG    1       10.432  13.226  84.602  0.00  0.00    +0.210 HD
ENDBRANCH  37  38
ENDBRANCH  36  37
ENDBRANCH  12   2
ENDBRANCH  13  12
TORSDOF 11
ENDMDL
MODEL 3
REMARK VINA RESULT:     -10.4     17.175     20.169
REMARK  Name = 5280637
REMARK                            x       y       z     vdW  Elec       q    Type
REMARK                         _______ _______ _______ _____ _____    ______ ____
ROOT
ATOM     13  C   LIG    1       21.428  25.444  73.396  0.00  0.00    +0.131 A 
ATOM     14  C   LIG    1       20.920  24.611  72.400  0.00  0.00    +0.092 A 
ATOM     15  C   LIG    1       19.924  25.075  71.539  0.00  0.00    +0.135 A 
ATOM     16  C   LIG    1       19.442  26.377  71.681  0.00  0.00    +0.105 A 
ATOM     17  C   LIG    1       18.392  26.894  70.790  0.00  0.00    +0.197 A 
ATOM     18  C   LIG    1       17.958  28.285  71.029  0.00  0.00    +0.098 A 
ATOM     19  C   LIG    1       18.529  28.991  72.018  0.00  0.00    +0.139 A 
ATOM     30  O   LIG    1       19.513  28.499  72.862  0.00  0.00    -0.454 OA
ATOM     31  O   LIG    1       17.900  26.216  69.898  0.00  0.00    -0.287 OA
ATOM     32  C   LIG    1       19.950  27.212  72.676  0.00  0.00    +0.146 A 
ATOM     35  C   LIG    1       20.944  26.746  73.536  0.00  0.00    +0.093 A 
ENDROOT
BRANCH  19  20
ATOM     20  C   LIG    1       18.130  30.383  72.310  0.00  0.00    +0.021 A 
ATOM     21  C   LIG    1       18.970  31.211  73.057  0.00  0.00    +0.015 A 
ATOM     22  C   LIG    1       18.592  32.525  73.333  0.00  0.00    +0.050 A 
ATOM     23  C   LIG    1       17.374  33.015  72.862  0.00  0.00    +0.158 A 
ATOM     24  C   LIG    1       16.533  32.189  72.116  0.00  0.00    +0.159 A 
ATOM     29  C   LIG    1       16.910  30.875  71.840  0.00  0.00    +0.060 A 
BRANCH  24  25
ATOM     25  O   LIG    1       15.341  32.658  71.649  0.00  0.00    -0.503 OA
ATOM     26  H   LIG    1       15.211  33.559  71.992  0.00  0.00    +0.292 HD
ENDBRANCH  24  25
BRANCH  23  27
ATOM     27  O   LIG    1       17.016  34.300  73.139  0.00  0.00    -0.503 OA
ATOM     28  H   LIG    1       16.849  34.383  74.094  0.00  0.00    +0.292 HD
ENDBRANCH  23  27
ENDBRANCH  19  20
BRANCH  15  33
ATOM     33  O   LIG    1       19.460  24.222  70.583  0.00  0.00    -0.506 OA
ATOM     34  H   LIG    1       18.499  24.301  70.494  0.00  0.00    +0.292 HD
ENDBRANCH  15  33
BRANCH  13  12
ATOM     12  O   LIG    1       22.401  24.987  74.236  0.00  0.00    -0.461 OA
BRANCH  12   2
ATOM      1  O   LIG    1       22.436  22.901  75.282  0.00  0.00    -0.331 OA
ATOM      2  C   LIG    1       22.772  23.616  74.095  0.00  0.00    +0.339 C 
ATOM      3  C   LIG    1       24.279  23.561  73.845  0.00  0.00    +0.214 C 
ATOM      4  C   LIG    1       24.788  22.119  73.832  0.00  0.00    +0.180 C 
ATOM      5  C   LIG    1       24.272  21.338  75.041  0.00  0.00    +0.177 C 
ATOM     36  C   LIG    1       22.760  21.512  75.195  0.00  0.00    +0.179 C 
BRANCH   5   6
ATOM      6  O   LIG    1       24.573  19.955  74.873  0.00  0.00    -0.386 OA
ATOM      7  H   LIG    1       25.303  19.882  74.234  0.00  0.00    +0.210 HD
ENDBRANCH   5   6
BRANCH   4   8
ATOM      8  O   LIG    1       26.216  22.118  73.880  0.00  0.00    -0.386 OA
ATOM      9  H   LIG    1       26.526  21.403  73.297  0.00  0.00    +0.210 HD
ENDBRANCH   4   8
BRANCH   3  10
ATOM     10  O   LIG    1       24.547  24.169  72.582  0.00  0.00    -0.383 OA
ATOM     11  H   LIG    1       25.046  24.988  72.741  0.00  0.00    +0.210 HD
ENDBRANCH   3  10
BRANCH  36  37
ATOM     37  C   LIG    1       22.241  20.839  76.462  0.00  0.00    +0.190 C 
BRANCH  37  38
ATOM     38  O   LIG    1       22.025  19.467  76.187  0.00  0.00    -0.392 OA
ATOM     39  H   LIG    1       21.200  19.394  75.677  0.00  0.00    +0.210 HD
ENDBRANCH  37  38
ENDBRANCH  36  37
ENDBRANCH  12   2
ENDBRANCH  13  12
TORSDOF 11
ENDMDL
MODEL 4
REMARK VINA RESULT:     -10.1     15.813     20.208
REMARK  Name = 5280637
REMARK                            x       y       z     vdW  Elec       q    Type
REMARK                         _______ _______ _______ _____ _____    ______ ____
ROOT
ATOM     13  C   LIG    1       19.770  28.862  74.226  0.00  0.00    +0.131 A 
ATOM     14  C   LIG    1       18.821  28.835  75.248  0.00  0.00    +0.092 A 
ATOM     15  C   LIG    1       18.732  27.727  76.093  0.00  0.00    +0.135 A 
ATOM     16  C   LIG    1       19.599  26.648  75.907  0.00  0.00    +0.105 A 
ATOM     17  C   LIG    1       19.528  25.467  76.781  0.00  0.00    +0.197 A 
ATOM     18  C   LIG    1       20.493  24.385  76.495  0.00  0.00    +0.098 A 
ATOM     19  C   LIG    1       21.364  24.531  75.484  0.00  0.00    +0.139 A 
ATOM     30  O   LIG    1       21.423  25.642  74.658  0.00  0.00    -0.454 OA
ATOM     31  O   LIG    1       18.719  25.376  77.693  0.00  0.00    -0.287 OA
ATOM     32  C   LIG    1       20.548  26.674  74.886  0.00  0.00    +0.146 A 
ATOM     35  C   LIG    1       20.634  27.781  74.043  0.00  0.00    +0.093 A 
ENDROOT
BRANCH  19  20
ATOM     20  C   LIG    1       22.346  23.480  75.147  0.00  0.00    +0.021 A 
ATOM     21  C   LIG    1       23.316  23.714  74.170  0.00  0.00    +0.015 A 
ATOM     22  C   LIG    1       24.242  22.721  73.851  0.00  0.00    +0.050 A 
ATOM     23  C   LIG    1       24.201  21.492  74.508  0.00  0.00    +0.158 A 
ATOM     24  C   LIG    1       23.233  21.255  75.484  0.00  0.00    +0.159 A 
ATOM     29  C   LIG    1       22.306  22.248  75.803  0.00  0.00    +0.060 A 
BRANCH  24  25
ATOM     25  O   LIG    1       23.185  20.058  76.133  0.00  0.00    -0.503 OA
ATOM     26  H   LIG    1       22.965  20.224  77.066  0.00  0.00    +0.292 HD
ENDBRANCH  24  25
BRANCH  23  27
ATOM     27  O   LIG    1       25.110  20.530  74.187  0.00  0.00    -0.503 OA
ATOM     28  H   LIG    1       24.746  19.973  73.478  0.00  0.00    +0.292 HD
ENDBRANCH  23  27
ENDBRANCH  19  20
BRANCH  15  33
ATOM     33  O   LIG    1       17.789  27.749  77.075  0.00  0.00    -0.506 OA
ATOM     34  H   LIG    1       18.163  27.440  77.914  0.00  0.00    +0.292 HD
ENDBRANCH  15  33
BRANCH  13  12
ATOM     12  O   LIG    1       19.852  29.946  73.402  0.00  0.00    -0.461 OA
BRANCH  12   2
ATOM      1  O   LIG    1       17.941  30.871  72.435  0.00  0.00    -0.331 OA
ATOM      2  C   LIG    1       18.833  30.935  73.545  0.00  0.00    +0.339 C 
ATOM      3  C   LIG    1       19.513  32.303  73.609  0.00  0.00    +0.214 C 
ATOM      4  C   LIG    1       18.484  33.435  73.611  0.00  0.00    +0.180 C 
ATOM      5  C   LIG    1       17.448  33.244  72.504  0.00  0.00    +0.177 C 
ATOM     36  C   LIG    1       16.879  31.823  72.531  0.00  0.00    +0.179 C 
BRANCH   5   6
ATOM      6  O   LIG    1       16.388  34.179  72.683  0.00  0.00    -0.386 OA
ATOM      7  H   LIG    1       16.229  34.619  71.830  0.00  0.00    +0.210 HD
ENDBRANCH   5   6
BRANCH   4   8
ATOM      8  O   LIG    1       19.147  34.680  73.388  0.00  0.00    -0.386 OA
ATOM      9  H   LIG    1       19.857  34.519  72.742  0.00  0.00    +0.210 HD
ENDBRANCH   4   8
BRANCH   3  10
ATOM     10  O   LIG    1       20.286  32.364  74.807  0.00  0.00    -0.383 OA
ATOM     11  H   LIG    1       19.821  32.941  75.437  0.00  0.00    +0.210 HD
ENDBRANCH   3  10
BRANCH  36  37
ATOM     37  C   LIG    1       15.931  31.573  71.363  0.00  0.00    +0.190 C 
BRANCH  37  38
ATOM     38  O   LIG    1       14.664  32.115  71.687  0.00  0.00    -0.392 OA
ATOM     39  H   LIG    1       14.751  32.584  72.535  0.00  0.00    +0.210 HD
ENDBRANCH  37  38
ENDBRANCH  36  37
ENDBRANCH  12   2
ENDBRANCH  13  12
TORSDOF 11
ENDMDL
MODEL 5
REMARK VINA RESULT:     -10.0     16.118     18.881
REMARK  Name = 5280637
REMARK                            x       y       z     vdW  Elec       q    Type
REMARK                         _______ _______ _______ _____ _____    ______ ____
ROOT
ATOM     13  C   LIG    1       20.514  26.650 108.080  0.00  0.00    +0.131 A 
ATOM     14  C   LIG    1       20.448  25.517 107.270  0.00  0.00    +0.092 A 
ATOM     15  C   LIG    1       20.205  25.647 105.902  0.00  0.00    +0.135 A 
ATOM     16  C   LIG    1       20.028  26.918 105.351  0.00  0.00    +0.105 A 
ATOM     17  C   LIG    1       19.769  27.086 103.913  0.00  0.00    +0.197 A 
ATOM     18  C   LIG    1       19.599  28.475 103.439  0.00  0.00    +0.098 A 
ATOM     19  C   LIG    1       19.691  29.486 104.317  0.00  0.00    +0.139 A 
ATOM     30  O   LIG    1       19.927  29.324 105.673  0.00  0.00    -0.454 OA
ATOM     31  O   LIG    1       19.695  26.136 103.147  0.00  0.00    -0.287 OA
ATOM     32  C   LIG    1       20.094  28.051 106.160  0.00  0.00    +0.146 A 
ATOM     35  C   LIG    1       20.336  27.919 107.527  0.00  0.00    +0.093 A 
ENDROOT
BRANCH  19  20
ATOM     20  C   LIG    1       19.521  30.894 103.902  0.00  0.00    +0.021 A 
ATOM     21  C   LIG    1       19.435  31.219 102.547  0.00  0.00    +0.015 A 
ATOM     22  C   LIG    1       19.277  32.548 102.155  0.00  0.00    +0.050 A 
ATOM     23  C   LIG    1       19.203  33.555 103.117  0.00  0.00    +0.158 A 
ATOM     24  C   LIG    1       19.289  33.233 104.472  0.00  0.00    +0.159 A 
ATOM     29  C   LIG    1       19.448  31.904 104.864  0.00  0.00    +0.060 A 
BRANCH  24  25
ATOM     25  O   LIG    1       19.216  34.209 105.420  0.00  0.00    -0.503 OA
ATOM     26  H   LIG    1       18.349  34.147 105.856  0.00  0.00    +0.292 HD
ENDBRANCH  24  25
BRANCH  23  27
ATOM     27  O   LIG    1       19.049  34.850 102.722  0.00  0.00    -0.503 OA
ATOM     28  H   LIG    1       19.019  34.883 101.750  0.00  0.00    +0.292 HD
ENDBRANCH  23  27
ENDBRANCH  19  20
BRANCH  15  33
ATOM     33  O   LIG    1       20.150  24.510 105.153  0.00  0.00    -0.506 OA
ATOM     34  H   LIG    1       21.042  24.195 104.946  0.00  0.00    +0.292 HD
ENDBRANCH  15  33
BRANCH  13  12
ATOM     12  O   LIG    1       20.751  26.518 109.417  0.00  0.00    -0.461 OA
BRANCH  12   2
ATOM      1  O   LIG    1       21.529  24.601 110.496  0.00  0.00    -0.331 OA
ATOM      2  C   LIG    1       21.913  25.777 109.789  0.00  0.00    +0.339 C 
ATOM      3  C   LIG    1       22.780  26.675 110.672  0.00  0.00    +0.214 C 
ATOM      4  C   LIG    1       23.975  25.909 111.240  0.00  0.00    +0.180 C 
ATOM      5  C   LIG    1       23.540  24.576 111.849  0.00  0.00    +0.177 C 
ATOM     36  C   LIG    1       22.649  23.800 110.876  0.00  0.00    +0.179 C 
BRANCH   5   6
ATOM      6  O   LIG    1       24.694  23.798 112.154  0.00  0.00    -0.386 OA
ATOM      7  H   LIG    1       24.736  23.689 113.120  0.00  0.00    +0.210 HD
ENDBRANCH   5   6
BRANCH   4   8
ATOM      8  O   LIG    1       24.592  26.685 112.269  0.00  0.00    -0.386 OA
ATOM      9  H   LIG    1       25.367  27.124 111.876  0.00  0.00    +0.210 HD
ENDBRANCH   4   8
BRANCH   3  10
ATOM     10  O   LIG    1       23.249  27.765 109.880  0.00  0.00    -0.383 OA
ATOM     11  H   LIG    1       23.818  28.322 110.439  0.00  0.00    +0.210 HD
ENDBRANCH   3  10
BRANCH  36  37
ATOM     37  C   LIG    1       22.107  22.520 111.506  0.00  0.00    +0.190 C 
BRANCH  37  38
ATOM     38  O   LIG    1       22.957  21.447 111.148  0.00  0.00    -0.392 OA
ATOM     39  H   LIG    1       22.727  21.177 110.242  0.00  0.00    +0.210 HD
ENDBRANCH  37  38
ENDBRANCH  36  37
ENDBRANCH  12   2
ENDBRANCH  13  12
TORSDOF 11
ENDMDL
MODEL 6
REMARK VINA RESULT:      -9.9     20.575     24.550
REMARK  Name = 5280637
REMARK                            x       y       z     vdW  Elec       q    Type
REMARK                         _______ _______ _______ _____ _____    ______ ____
ROOT
ATOM     13  C   LIG    1       16.904  43.032  99.476  0.00  0.00    +0.131 A 
ATOM     14  C   LIG    1       16.115  43.801  98.620  0.00  0.00    +0.092 A 
ATOM     15  C   LIG    1       15.589  45.018  99.056  0.00  0.00    +0.135 A 
ATOM     16  C   LIG    1       15.858  45.460 100.353  0.00  0.00    +0.105 A 
ATOM     17  C   LIG    1       15.316  46.737 100.841  0.00  0.00    +0.197 A 
ATOM     18  C   LIG    1       15.666  47.107 102.228  0.00  0.00    +0.098 A 
ATOM     19  C   LIG    1       16.440  46.284 102.952  0.00  0.00    +0.139 A 
ATOM     30  O   LIG    1       16.943  45.077 102.492  0.00  0.00    -0.454 OA
ATOM     31  O   LIG    1       14.615  47.458 100.145  0.00  0.00    -0.287 OA
ATOM     32  C   LIG    1       16.647  44.692 101.209  0.00  0.00    +0.146 A 
ATOM     35  C   LIG    1       17.171  43.476 100.771  0.00  0.00    +0.093 A 
ENDROOT
BRANCH  19  20
ATOM     20  C   LIG    1       16.815  46.598 104.347  0.00  0.00    +0.021 A 
ATOM     21  C   LIG    1       18.074  46.238 104.832  0.00  0.00    +0.015 A 
ATOM     22  C   LIG    1       18.427  46.533 106.149  0.00  0.00    +0.050 A 
ATOM     23  C   LIG    1       17.522  47.189 106.984  0.00  0.00    +0.158 A 
ATOM     24  C   LIG    1       16.263  47.548 106.501  0.00  0.00    +0.159 A 
ATOM     29  C   LIG    1       15.910  47.254 105.185  0.00  0.00    +0.060 A 
BRANCH  24  25
ATOM     25  O   LIG    1       15.373  48.191 107.308  0.00  0.00    -0.503 OA
ATOM     26  H   LIG    1       15.664  49.113 107.412  0.00  0.00    +0.292 HD
ENDBRANCH  24  25
BRANCH  23  27
ATOM     27  O   LIG    1       17.878  47.470 108.268  0.00  0.00    -0.503 OA
ATOM     28  H   LIG    1       17.087  47.743 108.764  0.00  0.00    +0.292 HD
ENDBRANCH  23  27
ENDBRANCH  19  20
BRANCH  15  33
ATOM     33  O   LIG    1       14.824  45.731  98.182  0.00  0.00    -0.506 OA
ATOM     34  H   LIG    1       13.893  45.469  98.252  0.00  0.00    +0.292 HD
ENDBRANCH  15  33
BRANCH  13  12
ATOM     12  O   LIG    1       17.415  41.843  99.045  0.00  0.00    -0.461 OA
BRANCH  12   2
ATOM      1  O   LIG    1       18.406  40.072 100.198  0.00  0.00    -0.331 OA
ATOM      2  C   LIG    1       17.171  40.706  99.873  0.00  0.00    +0.339 C 
ATOM      3  C   LIG    1       16.264  39.749  99.100  0.00  0.00    +0.214 C 
ATOM      4  C   LIG    1       16.073  38.433  99.855  0.00  0.00    +0.180 C 
ATOM      5  C   LIG    1       17.411  37.866 100.327  0.00  0.00    +0.177 C 
ATOM     36  C   LIG    1       18.232  38.937 101.048  0.00  0.00    +0.179 C 
BRANCH   5   6
ATOM      6  O   LIG    1       17.175  36.776 101.214  0.00  0.00    -0.386 OA
ATOM      7  H   LIG    1       17.795  36.062 100.985  0.00  0.00    +0.210 HD
ENDBRANCH   5   6
BRANCH   4   8
ATOM      8  O   LIG    1       15.465  37.472  98.989  0.00  0.00    -0.386 OA
ATOM      9  H   LIG    1       14.905  37.960  98.362  0.00  0.00    +0.210 HD
ENDBRANCH   4   8
BRANCH   3  10
ATOM     10  O   LIG    1       14.996  40.379  98.919  0.00  0.00    -0.383 OA
ATOM     11  H   LIG    1       14.920  40.641  97.986  0.00  0.00    +0.210 HD
ENDBRANCH   3  10
BRANCH  36  37
ATOM     37  C   LIG    1       19.619  38.428 101.425  0.00  0.00    +0.190 C 
BRANCH  37  38
ATOM     38  O   LIG    1       19.982  37.399 100.522  0.00  0.00    -0.392 OA
ATOM     39  H   LIG    1       19.440  37.505  99.721  0.00  0.00    +0.210 HD
ENDBRANCH  37  38
ENDBRANCH  36  37
ENDBRANCH  12   2
ENDBRANCH  13  12
TORSDOF 11
ENDMDL
MODEL 7
REMARK VINA RESULT:      -9.7     19.520     23.426
REMARK  Name = 5280637
REMARK                            x       y       z     vdW  Elec       q    Type
REMARK                         _______ _______ _______ _____ _____    ______ ____
ROOT
ATOM     13  C   LIG    1       18.261  40.105 105.365  0.00  0.00    +0.131 A 
ATOM     14  C   LIG    1       18.461  40.848 104.201  0.00  0.00    +0.092 A 
ATOM     15  C   LIG    1       18.803  40.207 103.010  0.00  0.00    +0.135 A 
ATOM     16  C   LIG    1       18.944  38.818 102.991  0.00  0.00    +0.105 A 
ATOM     17  C   LIG    1       19.305  38.114 101.751  0.00  0.00    +0.197 A 
ATOM     18  C   LIG    1       19.425  36.645 101.845  0.00  0.00    +0.098 A 
ATOM     19  C   LIG    1       19.201  36.041 103.023  0.00  0.00    +0.139 A 
ATOM     30  O   LIG    1       18.869  36.707 104.192  0.00  0.00    -0.454 OA
ATOM     31  O   LIG    1       19.498  38.704 100.697  0.00  0.00    -0.287 OA
ATOM     32  C   LIG    1       18.744  38.073 104.153  0.00  0.00    +0.146 A 
ATOM     35  C   LIG    1       18.403  38.716 105.342  0.00  0.00    +0.093 A 
ENDROOT
BRANCH  19  20
ATOM     20  C   LIG    1       19.315  34.576 103.179  0.00  0.00    +0.021 A 
ATOM     21  C   LIG    1       19.376  33.754 102.052  0.00  0.00    +0.015 A 
ATOM     22  C   LIG    1       19.481  32.371 102.200  0.00  0.00    +0.050 A 
ATOM     23  C   LIG    1       19.528  31.807 103.475  0.00  0.00    +0.158 A 
ATOM     24  C   LIG    1       19.466  32.626 104.602  0.00  0.00    +0.159 A 
ATOM     29  C   LIG    1       19.360  34.009 104.455  0.00  0.00    +0.060 A 
BRANCH  24  25
ATOM     25  O   LIG    1       19.512  32.085 105.852  0.00  0.00    -0.503 OA
ATOM     26  H   LIG    1       19.909  31.201 105.788  0.00  0.00    +0.292 HD
ENDBRANCH  24  25
BRANCH  23  27
ATOM     27  O   LIG    1       19.630  30.455 103.606  0.00  0.00    -0.503 OA
ATOM     28  H   LIG    1       19.907  30.074 102.754  0.00  0.00    +0.292 HD
ENDBRANCH  23  27
ENDBRANCH  19  20
BRANCH  15  33
ATOM     33  O   LIG    1       18.988  40.978 101.902  0.00  0.00    -0.506 OA
ATOM     34  H   LIG    1       19.718  41.601 102.038  0.00  0.00    +0.292 HD
ENDBRANCH  15  33
BRANCH  13  12
ATOM     12  O   LIG    1       17.928  40.736 106.527  0.00  0.00    -0.461 OA
BRANCH  12   2
ATOM      1  O   LIG    1       17.053  42.887 106.748  0.00  0.00    -0.331 OA
ATOM      2  C   LIG    1       16.735  41.519 106.508  0.00  0.00    +0.339 C 
ATOM      3  C   LIG    1       15.806  40.986 107.599  0.00  0.00    +0.214 C 
ATOM      4  C   LIG    1       14.563  41.864 107.750  0.00  0.00    +0.180 C 
ATOM      5  C   LIG    1       14.939  43.343 107.843  0.00  0.00    +0.177 C 
ATOM     36  C   LIG    1       15.900  43.731 106.717  0.00  0.00    +0.179 C 
BRANCH   5   6
ATOM      6  O   LIG    1       13.759  44.136 107.750  0.00  0.00    -0.386 OA
ATOM      7  H   LIG    1       13.702  44.685 108.550  0.00  0.00    +0.210 HD
ENDBRANCH   5   6
BRANCH   4   8
ATOM      8  O   LIG    1       13.871  41.507 108.947  0.00  0.00    -0.386 OA
ATOM      9  H   LIG    1       13.394  42.298 109.254  0.00  0.00    +0.210 HD
ENDBRANCH   4   8
BRANCH   3  10
ATOM     10  O   LIG    1       15.409  39.662 107.243  0.00  0.00    -0.383 OA
ATOM     11  H   LIG    1       15.799  39.046 107.887  0.00  0.00    +0.210 HD
ENDBRANCH   3  10
BRANCH  36  37
ATOM     37  C   LIG    1       16.381  45.172 106.858  0.00  0.00    +0.190 C 
BRANCH  37  38
ATOM     38  O   LIG    1       15.438  46.025 106.235  0.00  0.00    -0.392 OA
ATOM     39  H   LIG    1       14.815  46.327 106.919  0.00  0.00    +0.210 HD
ENDBRANCH  37  38
ENDBRANCH  36  37
ENDBRANCH  12   2
ENDBRANCH  13  12
TORSDOF 11
ENDMDL
MODEL 8
REMARK VINA RESULT:      -9.6     15.477     18.236
REMARK  Name = 5280637
REMARK                            x       y       z     vdW  Elec       q    Type
REMARK                         _______ _______ _______ _____ _____    ______ ____
ROOT
ATOM     13  C   LIG    1       19.884  26.365 106.556  0.00  0.00    +0.131 A 
ATOM     14  C   LIG    1       20.066  25.472 105.500  0.00  0.00    +0.092 A 
ATOM     15  C   LIG    1       20.117  25.940 104.187  0.00  0.00    +0.135 A 
ATOM     16  C   LIG    1       19.984  27.308 103.937  0.00  0.00    +0.105 A 
ATOM     17  C   LIG    1       20.032  27.831 102.563  0.00  0.00    +0.197 A 
ATOM     18  C   LIG    1       19.883  29.293 102.416  0.00  0.00    +0.098 A 
ATOM     19  C   LIG    1       19.719  30.051 103.511  0.00  0.00    +0.139 A 
ATOM     30  O   LIG    1       19.667  29.554 104.805  0.00  0.00    -0.454 OA
ATOM     31  O   LIG    1       20.185  27.103 101.592  0.00  0.00    -0.287 OA
ATOM     32  C   LIG    1       19.803  28.202 104.991  0.00  0.00    +0.146 A 
ATOM     35  C   LIG    1       19.752  27.732 106.303  0.00  0.00    +0.093 A 
ENDROOT
BRANCH  19  20
ATOM     20  C   LIG    1       19.557  31.517 103.425  0.00  0.00    +0.021 A 
ATOM     21  C   LIG    1       19.544  32.148 102.179  0.00  0.00    +0.015 A 
ATOM     22  C   LIG    1       19.391  33.532 102.098  0.00  0.00    +0.050 A 
ATOM     23  C   LIG    1       19.251  34.289 103.262  0.00  0.00    +0.158 A 
ATOM     24  C   LIG    1       19.264  33.660 104.507  0.00  0.00    +0.159 A 
ATOM     29  C   LIG    1       19.416  32.276 104.589  0.00  0.00    +0.060 A 
BRANCH  24  25
ATOM     25  O   LIG    1       19.126  34.389 105.650  0.00  0.00    -0.503 OA
ATOM     26  H   LIG    1       19.957  34.333 106.151  0.00  0.00    +0.292 HD
ENDBRANCH  24  25
BRANCH  23  27
ATOM     27  O   LIG    1       19.104  35.640 103.169  0.00  0.00    -0.503 OA
ATOM     28  H   LIG    1       18.717  35.974 103.996  0.00  0.00    +0.292 HD
ENDBRANCH  23  27
ENDBRANCH  19  20
BRANCH  15  33
ATOM     33  O   LIG    1       20.295  25.027 103.191  0.00  0.00    -0.506 OA
ATOM     34  H   LIG    1       20.649  25.454 102.397  0.00  0.00    +0.292 HD
ENDBRANCH  15  33
BRANCH  13  12
ATOM     12  O   LIG    1       19.835  25.903 107.838  0.00  0.00    -0.461 OA
BRANCH  12   2
ATOM      1  O   LIG    1       21.858  25.451 108.909  0.00  0.00    -0.331 OA
ATOM      2  C   LIG    1       20.818  26.411 108.738  0.00  0.00    +0.339 C 
ATOM      3  C   LIG    1       20.130  26.698 110.073  0.00  0.00    +0.214 C 
ATOM      4  C   LIG    1       21.143  27.106 111.144  0.00  0.00    +0.180 C 
ATOM      5  C   LIG    1       22.325  26.138 111.186  0.00  0.00    +0.177 C 
ATOM     36  C   LIG    1       22.891  25.911 109.782  0.00  0.00    +0.179 C 
BRANCH   5   6
ATOM      6  O   LIG    1       23.345  26.674 112.025  0.00  0.00    -0.386 OA
ATOM      7  H   LIG    1       24.016  25.983 112.160  0.00  0.00    +0.210 HD
ENDBRANCH   5   6
BRANCH   4   8
ATOM      8  O   LIG    1       20.512  27.090 112.426  0.00  0.00    -0.386 OA
ATOM      9  H   LIG    1       19.939  26.304 112.457  0.00  0.00    +0.210 HD
ENDBRANCH   4   8
BRANCH   3  10
ATOM     10  O   LIG    1       19.196  27.759 109.877  0.00  0.00    -0.383 OA
ATOM     11  H   LIG    1       18.301  27.379 109.890  0.00  0.00    +0.210 HD
ENDBRANCH   3  10
BRANCH  36  37
ATOM     37  C   LIG    1       23.996  24.859 109.782  0.00  0.00    +0.190 C 
BRANCH  37  38
ATOM     38  O   LIG    1       23.819  24.021 110.910  0.00  0.00    -0.392 OA
ATOM     39  H   LIG    1       24.472  24.287 111.581  0.00  0.00    +0.210 HD
ENDBRANCH  37  38
ENDBRANCH  36  37
ENDBRANCH  12   2
ENDBRANCH  13  12
TORSDOF 11
ENDMDL
MODEL 9
REMARK VINA RESULT:      -9.5     14.433     20.125
REMARK  Name = 5280637
REMARK                            x       y       z     vdW  Elec       q    Type
REMARK                         _______ _______ _______ _____ _____    ______ ____
ROOT
ATOM     13  C   LIG    1        8.814  10.354  79.655  0.00  0.00    +0.131 A 
ATOM     14  C   LIG    1        8.492  10.153  80.998  0.00  0.00    +0.092 A 
ATOM     15  C   LIG    1        7.226   9.687  81.353  0.00  0.00    +0.135 A 
ATOM     16  C   LIG    1        6.284   9.423  80.356  0.00  0.00    +0.105 A 
ATOM     17  C   LIG    1        4.940   8.933  80.700  0.00  0.00    +0.197 A 
ATOM     18  C   LIG    1        4.026   8.686  79.566  0.00  0.00    +0.098 A 
ATOM     19  C   LIG    1        4.455   8.912  78.314  0.00  0.00    +0.139 A 
ATOM     30  O   LIG    1        5.719   9.382  77.994  0.00  0.00    -0.454 OA
ATOM     31  O   LIG    1        4.592   8.738  81.856  0.00  0.00    -0.287 OA
ATOM     32  C   LIG    1        6.604   9.624  79.014  0.00  0.00    +0.146 A 
ATOM     35  C   LIG    1        7.870  10.090  78.661  0.00  0.00    +0.093 A 
ENDROOT
BRANCH  19  20
ATOM     20  C   LIG    1        3.582   8.692  77.143  0.00  0.00    +0.021 A 
ATOM     21  C   LIG    1        3.296   9.746  76.273  0.00  0.00    +0.015 A 
ATOM     22  C   LIG    1        2.471   9.538  75.168  0.00  0.00    +0.050 A 
ATOM     23  C   LIG    1        1.930   8.274  74.929  0.00  0.00    +0.158 A 
ATOM     24  C   LIG    1        2.213   7.220  75.797  0.00  0.00    +0.159 A 
ATOM     29  C   LIG    1        3.038   7.428  76.902  0.00  0.00    +0.060 A 
BRANCH  24  25
ATOM     25  O   LIG    1        1.692   5.981  75.572  0.00  0.00    -0.503 OA
ATOM     26  H   LIG    1        1.959   5.693  74.682  0.00  0.00    +0.292 HD
ENDBRANCH  24  25
BRANCH  23  27
ATOM     27  O   LIG    1        1.125   8.084  73.847  0.00  0.00    -0.503 OA
ATOM     28  H   LIG    1        0.230   8.401  74.058  0.00  0.00    +0.292 HD
ENDBRANCH  23  27
ENDBRANCH  19  20
BRANCH  15  33
ATOM     33  O   LIG    1        6.961   9.507  82.677  0.00  0.00    -0.506 OA
ATOM     34  H   LIG    1        7.636   9.940  83.221  0.00  0.00    +0.292 HD
ENDBRANCH  15  33
BRANCH  13  12
ATOM     12  O   LIG    1       10.053  10.810  79.313  0.00  0.00    -0.461 OA
BRANCH  12   2
ATOM      1  O   LIG    1       10.643  12.274  81.032  0.00  0.00    -0.331 OA
ATOM      2  C   LIG    1       10.965  11.045  80.385  0.00  0.00    +0.339 C 
ATOM      3  C   LIG    1       12.376  11.102  79.797  0.00  0.00    +0.214 C 
ATOM      4  C   LIG    1       13.404  11.500  80.857  0.00  0.00    +0.180 C 
ATOM      5  C   LIG    1       12.945  12.731  81.639  0.00  0.00    +0.177 C 
ATOM     36  C   LIG    1       11.507  12.555  82.134  0.00  0.00    +0.179 C 
BRANCH   5   6
ATOM      6  O   LIG    1       13.807  12.929  82.756  0.00  0.00    -0.386 OA
ATOM      7  H   LIG    1       14.643  13.303  82.427  0.00  0.00    +0.210 HD
ENDBRANCH   5   6
BRANCH   4   8
ATOM      8  O   LIG    1       14.644  11.816  80.222  0.00  0.00    -0.386 OA
ATOM      9  H   LIG    1       14.546  12.694  79.814  0.00  0.00    +0.210 HD
ENDBRANCH   4   8
BRANCH   3  10
ATOM     10  O   LIG    1       12.700   9.810  79.285  0.00  0.00    -0.383 OA
ATOM     11  H   LIG    1       12.164   9.153  79.762  0.00  0.00    +0.210 HD
ENDBRANCH   3  10
BRANCH  36  37
ATOM     37  C   LIG    1       10.987  13.817  82.815  0.00  0.00    +0.190 C 
BRANCH  37  38
ATOM     38  O   LIG    1       11.220  13.706  84.208  0.00  0.00    -0.392 OA
ATOM     39  H   LIG    1       10.355  13.717  84.653  0.00  0.00    +0.210 HD
ENDBRANCH  37  38
ENDBRANCH  36  37
ENDBRANCH  12   2
ENDBRANCH  13  12
TORSDOF 11
ENDMDL
