MODEL 1
REMARK VINA RESULT:      -7.9      0.000      0.000
REMARK  Name = 2520
REMARK  21 active torsions:
REMARK  status: ('A' for Active; 'I' for Inactive)
REMARK    1  A    between atoms: O_1  and  C_19
REMARK    2  A    between atoms: O_1  and  C_28
REMARK    3  A    between atoms: O_2  and  C_23
REMARK    4  A    between atoms: O_2  and  C_31
REMARK    5  A    between atoms: O_3  and  C_27
REMARK    6  A    between atoms: O_3  and  C_32
REMARK    7  A    between atoms: O_4  and  C_30
REMARK    8  A    between atoms: O_4  and  C_33
REMARK    9  A    between atoms: N_5  and  C_12
REMARK   10  A    between atoms: N_5  and  C_18
REMARK   11  A    between atoms: N_5  and  C_20
REMARK   12  A    between atoms: C_7  and  C_8
REMARK   13  A    between atoms: C_7  and  C_9
REMARK   14  A    between atoms: C_7  and  C_11
REMARK   15  A    between atoms: C_7  and  C_15
REMARK   16  A    between atoms: C_8  and  C_13
REMARK   17  A    between atoms: C_8  and  C_14
REMARK   18  A    between atoms: C_9  and  C_10
REMARK   19  A    between atoms: C_10  and  C_12
REMARK   20  A    between atoms: C_18  and  C_22
REMARK   21  A    between atoms: C_22  and  C_24
REMARK                            x       y       z     vdW  Elec       q    Type
REMARK                         _______ _______ _______ _____ _____    ______ ____
ROOT
ATOM      1  C   UNL     1     147.436 144.791 141.677  0.00  0.00    +0.028 C 
ENDROOT
BRANCH   1   2
ATOM      2  C   UNL     1     146.849 146.089 141.015  0.00  0.00    +0.085 C 
BRANCH   2   7
ATOM      3  C   UNL     1     147.427 148.093 144.232  0.00  0.00    +0.162 A 
ATOM      4  C   UNL     1     147.063 149.380 143.833  0.00  0.00    +0.162 A 
ATOM      5  C   UNL     1     146.631 149.607 142.526  0.00  0.00    +0.050 A 
ATOM      6  C   UNL     1     146.561 148.549 141.619  0.00  0.00    +0.009 A 
ATOM      7  C   UNL     1     146.925 147.263 142.020  0.00  0.00    -0.024 A 
ATOM      8  C   UNL     1     147.358 147.035 143.327  0.00  0.00    +0.054 A 
BRANCH   3   9
ATOM      9  O   UNL     1     147.851 147.858 145.506  0.00  0.00    -0.491 OA
ATOM     10  C   UNL     1     149.216 147.483 145.674  0.00  0.00    +0.277 C 
ENDBRANCH   3   9
BRANCH   4  11
ATOM     11  O   UNL     1     147.127 150.422 144.708  0.00  0.00    -0.491 OA
ATOM     12  C   UNL     1     148.368 151.117 144.798  0.00  0.00    +0.277 C 
ENDBRANCH   4  11
ENDBRANCH   2   7
BRANCH   2  13
ATOM     13  C   UNL     1     145.331 145.852 140.612  0.00  0.00    +0.007 C 
ATOM     14  C   UNL     1     145.167 145.001 139.338  0.00  0.00    +0.009 C 
ATOM     15  C   UNL     1     144.471 145.230 141.726  0.00  0.00    +0.009 C 
ENDBRANCH   2  13
BRANCH   2  16
ATOM     16  C   UNL     1     147.634 146.334 139.770  0.00  0.00    +0.074 C 
ATOM     17  N   UNL     1     148.233 146.536 138.797  0.00  0.00    -0.196 NA
ENDBRANCH   2  16
ENDBRANCH   1   2
BRANCH   1  18
ATOM     18  C   UNL     1     148.915 144.497 141.346  0.00  0.00    +0.017 C 
BRANCH  18  19
ATOM     19  C   UNL     1     149.789 144.374 142.598  0.00  0.00    +0.084 C 
BRANCH  19  20
ATOM     20  N   UNL     1     150.899 143.451 142.400  0.00  0.00    -0.305 NA
ATOM     21  C   UNL     1     151.169 143.268 140.972  0.00  0.00    +0.104 C 
BRANCH  20  22
ATOM     22  C   UNL     1     152.100 143.934 143.085  0.00  0.00    +0.088 C 
BRANCH  22  23
ATOM     23  C   UNL     1     151.746 144.983 144.138  0.00  0.00    +0.050 C 
BRANCH  23  24
ATOM     24  C   UNL     1     152.542 146.251 143.947  0.00  0.00    -0.042 A 
ATOM     25  C   UNL     1     153.036 146.580 142.685  0.00  0.00    +0.007 A 
ATOM     26  C   UNL     1     153.771 147.752 142.509  0.00  0.00    +0.049 A 
ATOM     27  C   UNL     1     154.014 148.593 143.594  0.00  0.00    +0.161 A 
ATOM     28  C   UNL     1     153.521 148.263 144.857  0.00  0.00    +0.162 A 
ATOM     29  C   UNL     1     152.784 147.091 145.033  0.00  0.00    +0.053 A 
BRANCH  28  30
ATOM     30  O   UNL     1     153.751 149.077 145.924  0.00  0.00    -0.491 OA
ATOM     31  C   UNL     1     152.655 149.864 146.388  0.00  0.00    +0.277 C 
ENDBRANCH  28  30
BRANCH  27  32
ATOM     32  O   UNL     1     154.735 149.734 143.409  0.00  0.00    -0.491 OA
ATOM     33  C   UNL     1     154.021 150.885 142.964  0.00  0.00    +0.277 C 
ENDBRANCH  27  32
ENDBRANCH  23  24
ENDBRANCH  22  23
ENDBRANCH  20  22
ENDBRANCH  19  20
ENDBRANCH  18  19
ENDBRANCH   1  18
TORSDOF 14
ENDMDL
MODEL 2
REMARK VINA RESULT:      -7.7      1.439      1.965
REMARK  Name = 2520
REMARK  21 active torsions:
REMARK  status: ('A' for Active; 'I' for Inactive)
REMARK    1  A    between atoms: O_1  and  C_19
REMARK    2  A    between atoms: O_1  and  C_28
REMARK    3  A    between atoms: O_2  and  C_23
REMARK    4  A    between atoms: O_2  and  C_31
REMARK    5  A    between atoms: O_3  and  C_27
REMARK    6  A    between atoms: O_3  and  C_32
REMARK    7  A    between atoms: O_4  and  C_30
REMARK    8  A    between atoms: O_4  and  C_33
REMARK    9  A    between atoms: N_5  and  C_12
REMARK   10  A    between atoms: N_5  and  C_18
REMARK   11  A    between atoms: N_5  and  C_20
REMARK   12  A    between atoms: C_7  and  C_8
REMARK   13  A    between atoms: C_7  and  C_9
REMARK   14  A    between atoms: C_7  and  C_11
REMARK   15  A    between atoms: C_7  and  C_15
REMARK   16  A    between atoms: C_8  and  C_13
REMARK   17  A    between atoms: C_8  and  C_14
REMARK   18  A    between atoms: C_9  and  C_10
REMARK   19  A    between atoms: C_10  and  C_12
REMARK   20  A    between atoms: C_18  and  C_22
REMARK   21  A    between atoms: C_22  and  C_24
REMARK                            x       y       z     vdW  Elec       q    Type
REMARK                         _______ _______ _______ _____ _____    ______ ____
ROOT
ATOM      1  C   UNL     1     147.428 144.862 141.708  0.00  0.00    +0.028 C 
ENDROOT
BRANCH   1   2
ATOM      2  C   UNL     1     146.758 146.156 141.118  0.00  0.00    +0.085 C 
BRANCH   2   7
ATOM      3  C   UNL     1     147.486 148.115 144.333  0.00  0.00    +0.162 A 
ATOM      4  C   UNL     1     147.152 149.415 143.952  0.00  0.00    +0.162 A 
ATOM      5  C   UNL     1     146.692 149.666 142.659  0.00  0.00    +0.050 A 
ATOM      6  C   UNL     1     146.564 148.618 141.748  0.00  0.00    +0.009 A 
ATOM      7  C   UNL     1     146.898 147.318 142.129  0.00  0.00    -0.024 A 
ATOM      8  C   UNL     1     147.359 147.067 143.422  0.00  0.00    +0.054 A 
BRANCH   3   9
ATOM      9  O   UNL     1     147.937 147.856 145.592  0.00  0.00    -0.491 OA
ATOM     10  C   UNL     1     149.324 147.562 145.735  0.00  0.00    +0.277 C 
ENDBRANCH   3   9
BRANCH   4  11
ATOM     11  O   UNL     1     147.272 150.447 144.833  0.00  0.00    -0.491 OA
ATOM     12  C   UNL     1     148.510 151.154 144.838  0.00  0.00    +0.277 C 
ENDBRANCH   4  11
ENDBRANCH   2   7
BRANCH   2  13
ATOM     13  C   UNL     1     145.216 145.891 140.846  0.00  0.00    +0.007 C 
ATOM     14  C   UNL     1     144.952 145.140 139.527  0.00  0.00    +0.009 C 
ATOM     15  C   UNL     1     144.493 145.146 141.981  0.00  0.00    +0.009 C 
ENDBRANCH   2  13
BRANCH   2  16
ATOM     16  C   UNL     1     147.425 146.432 139.812  0.00  0.00    +0.074 C 
ATOM     17  N   UNL     1     147.932 146.639 138.789  0.00  0.00    -0.196 NA
ENDBRANCH   2  16
ENDBRANCH   1   2
BRANCH   1  18
ATOM     18  C   UNL     1     148.838 144.549 141.165  0.00  0.00    +0.017 C 
BRANCH  18  19
ATOM     19  C   UNL     1     149.849 144.257 142.279  0.00  0.00    +0.084 C 
BRANCH  19  20
ATOM     20  N   UNL     1     150.478 145.473 142.777  0.00  0.00    -0.305 NA
ATOM     21  C   UNL     1     151.469 145.156 143.807  0.00  0.00    +0.104 C 
BRANCH  20  22
ATOM     22  C   UNL     1     151.106 146.216 141.682  0.00  0.00    +0.088 C 
BRANCH  22  23
ATOM     23  C   UNL     1     150.415 147.562 141.468  0.00  0.00    +0.050 C 
BRANCH  23  24
ATOM     24  C   UNL     1     151.195 148.691 142.095  0.00  0.00    -0.042 A 
ATOM     25  C   UNL     1     150.727 150.001 141.996  0.00  0.00    +0.007 A 
ATOM     26  C   UNL     1     151.448 151.045 142.575  0.00  0.00    +0.049 A 
ATOM     27  C   UNL     1     152.637 150.779 143.253  0.00  0.00    +0.161 A 
ATOM     28  C   UNL     1     153.107 149.469 143.352  0.00  0.00    +0.162 A 
ATOM     29  C   UNL     1     152.384 148.424 142.772  0.00  0.00    +0.053 A 
BRANCH  28  30
ATOM     30  O   UNL     1     154.267 149.197 144.011  0.00  0.00    -0.491 OA
ATOM     31  C   UNL     1     154.175 148.368 145.169  0.00  0.00    +0.277 C 
ENDBRANCH  28  30
BRANCH  27  32
ATOM     32  O   UNL     1     153.333 151.807 143.814  0.00  0.00    -0.491 OA
ATOM     33  C   UNL     1     152.862 152.301 145.066  0.00  0.00    +0.277 C 
ENDBRANCH  27  32
ENDBRANCH  23  24
ENDBRANCH  22  23
ENDBRANCH  20  22
ENDBRANCH  19  20
ENDBRANCH  18  19
ENDBRANCH   1  18
TORSDOF 14
ENDMDL
MODEL 3
REMARK VINA RESULT:      -7.7      3.219      7.925
REMARK  Name = 2520
REMARK  21 active torsions:
REMARK  status: ('A' for Active; 'I' for Inactive)
REMARK    1  A    between atoms: O_1  and  C_19
REMARK    2  A    between atoms: O_1  and  C_28
REMARK    3  A    between atoms: O_2  and  C_23
REMARK    4  A    between atoms: O_2  and  C_31
REMARK    5  A    between atoms: O_3  and  C_27
REMARK    6  A    between atoms: O_3  and  C_32
REMARK    7  A    between atoms: O_4  and  C_30
REMARK    8  A    between atoms: O_4  and  C_33
REMARK    9  A    between atoms: N_5  and  C_12
REMARK   10  A    between atoms: N_5  and  C_18
REMARK   11  A    between atoms: N_5  and  C_20
REMARK   12  A    between atoms: C_7  and  C_8
REMARK   13  A    between atoms: C_7  and  C_9
REMARK   14  A    between atoms: C_7  and  C_11
REMARK   15  A    between atoms: C_7  and  C_15
REMARK   16  A    between atoms: C_8  and  C_13
REMARK   17  A    between atoms: C_8  and  C_14
REMARK   18  A    between atoms: C_9  and  C_10
REMARK   19  A    between atoms: C_10  and  C_12
REMARK   20  A    between atoms: C_18  and  C_22
REMARK   21  A    between atoms: C_22  and  C_24
REMARK                            x       y       z     vdW  Elec       q    Type
REMARK                         _______ _______ _______ _____ _____    ______ ____
ROOT
ATOM      1  C   UNL     1     150.821 147.523 145.458  0.00  0.00    +0.028 C 
ENDROOT
BRANCH   1   2
ATOM      2  C   UNL     1     151.693 147.654 144.157  0.00  0.00    +0.085 C 
BRANCH   2   7
ATOM      3  C   UNL     1     150.789 145.415 141.178  0.00  0.00    +0.162 A 
ATOM      4  C   UNL     1     151.118 144.150 141.666  0.00  0.00    +0.162 A 
ATOM      5  C   UNL     1     151.633 144.013 142.956  0.00  0.00    +0.050 A 
ATOM      6  C   UNL     1     151.817 145.140 143.757  0.00  0.00    +0.009 A 
ATOM      7  C   UNL     1     151.488 146.404 143.268  0.00  0.00    -0.024 A 
ATOM      8  C   UNL     1     150.973 146.542 141.979  0.00  0.00    +0.054 A 
BRANCH   3   9
ATOM      9  O   UNL     1     150.285 145.562 139.921  0.00  0.00    -0.491 OA
ATOM     10  C   UNL     1     149.508 146.730 139.667  0.00  0.00    +0.277 C 
ENDBRANCH   3   9
BRANCH   4  11
ATOM     11  O   UNL     1     150.943 143.042 140.894  0.00  0.00    -0.491 OA
ATOM     12  C   UNL     1     150.053 142.043 141.385  0.00  0.00    +0.277 C 
ENDBRANCH   4  11
ENDBRANCH   2   7
BRANCH   2  13
ATOM     13  C   UNL     1     153.229 147.767 144.543  0.00  0.00    +0.007 C 
ATOM     14  C   UNL     1     154.139 148.055 143.334  0.00  0.00    +0.009 C 
ATOM     15  C   UNL     1     153.531 148.807 145.636  0.00  0.00    +0.009 C 
ENDBRANCH   2  13
BRANCH   2  16
ATOM     16  C   UNL     1     151.282 148.922 143.486  0.00  0.00    +0.074 C 
ATOM     17  N   UNL     1     150.964 149.900 142.949  0.00  0.00    -0.196 NA
ENDBRANCH   2  16
ENDBRANCH   1   2
BRANCH   1  18
ATOM     18  C   UNL     1     149.742 148.612 145.637  0.00  0.00    +0.017 C 
BRANCH  18  19
ATOM     19  C   UNL     1     148.322 148.039 145.670  0.00  0.00    +0.084 C 
BRANCH  19  20
ATOM     20  N   UNL     1     147.388 148.849 144.900  0.00  0.00    -0.305 NA
ATOM     21  C   UNL     1     147.816 150.249 144.877  0.00  0.00    +0.104 C 
BRANCH  20  22
ATOM     22  C   UNL     1     147.264 148.335 143.534  0.00  0.00    +0.088 C 
BRANCH  22  23
ATOM     23  C   UNL     1     147.529 146.831 143.488  0.00  0.00    +0.050 C 
BRANCH  23  24
ATOM     24  C   UNL     1     146.963 146.206 142.237  0.00  0.00    -0.042 A 
ATOM     25  C   UNL     1     146.203 146.976 141.356  0.00  0.00    +0.007 A 
ATOM     26  C   UNL     1     145.679 146.398 140.199  0.00  0.00    +0.049 A 
ATOM     27  C   UNL     1     145.913 145.051 139.925  0.00  0.00    +0.161 A 
ATOM     28  C   UNL     1     146.672 144.281 140.807  0.00  0.00    +0.162 A 
ATOM     29  C   UNL     1     147.198 144.859 141.963  0.00  0.00    +0.053 A 
BRANCH  28  30
ATOM     30  O   UNL     1     146.908 142.964 140.549  0.00  0.00    -0.491 OA
ATOM     31  C   UNL     1     146.147 142.012 141.290  0.00  0.00    +0.277 C 
ENDBRANCH  28  30
BRANCH  27  32
ATOM     32  O   UNL     1     145.395 144.498 138.793  0.00  0.00    -0.491 OA
ATOM     33  C   UNL     1     144.012 144.154 138.814  0.00  0.00    +0.277 C 
ENDBRANCH  27  32
ENDBRANCH  23  24
ENDBRANCH  22  23
ENDBRANCH  20  22
ENDBRANCH  19  20
ENDBRANCH  18  19
ENDBRANCH   1  18
TORSDOF 14
ENDMDL
MODEL 4
REMARK VINA RESULT:      -7.7      1.110      1.569
REMARK  Name = 2520
REMARK  21 active torsions:
REMARK  status: ('A' for Active; 'I' for Inactive)
REMARK    1  A    between atoms: O_1  and  C_19
REMARK    2  A    between atoms: O_1  and  C_28
REMARK    3  A    between atoms: O_2  and  C_23
REMARK    4  A    between atoms: O_2  and  C_31
REMARK    5  A    between atoms: O_3  and  C_27
REMARK    6  A    between atoms: O_3  and  C_32
REMARK    7  A    between atoms: O_4  and  C_30
REMARK    8  A    between atoms: O_4  and  C_33
REMARK    9  A    between atoms: N_5  and  C_12
REMARK   10  A    between atoms: N_5  and  C_18
REMARK   11  A    between atoms: N_5  and  C_20
REMARK   12  A    between atoms: C_7  and  C_8
REMARK   13  A    between atoms: C_7  and  C_9
REMARK   14  A    between atoms: C_7  and  C_11
REMARK   15  A    between atoms: C_7  and  C_15
REMARK   16  A    between atoms: C_8  and  C_13
REMARK   17  A    between atoms: C_8  and  C_14
REMARK   18  A    between atoms: C_9  and  C_10
REMARK   19  A    between atoms: C_10  and  C_12
REMARK   20  A    between atoms: C_18  and  C_22
REMARK   21  A    between atoms: C_22  and  C_24
REMARK                            x       y       z     vdW  Elec       q    Type
REMARK                         _______ _______ _______ _____ _____    ______ ____
ROOT
ATOM      1  C   UNL     1     147.449 144.884 141.776  0.00  0.00    +0.028 C 
ENDROOT
BRANCH   1   2
ATOM      2  C   UNL     1     146.772 146.168 141.173  0.00  0.00    +0.085 C 
BRANCH   2   7
ATOM      3  C   UNL     1     147.516 148.164 144.361  0.00  0.00    +0.162 A 
ATOM      4  C   UNL     1     147.121 149.450 143.988  0.00  0.00    +0.162 A 
ATOM      5  C   UNL     1     146.615 149.678 142.708  0.00  0.00    +0.050 A 
ATOM      6  C   UNL     1     146.502 148.623 141.803  0.00  0.00    +0.009 A 
ATOM      7  C   UNL     1     146.897 147.339 142.177  0.00  0.00    -0.024 A 
ATOM      8  C   UNL     1     147.404 147.109 143.457  0.00  0.00    +0.054 A 
BRANCH   3   9
ATOM      9  O   UNL     1     148.013 147.928 145.608  0.00  0.00    -0.491 OA
ATOM     10  C   UNL     1     149.393 147.581 145.700  0.00  0.00    +0.277 C 
ENDBRANCH   3   9
BRANCH   4  11
ATOM     11  O   UNL     1     147.227 150.489 144.862  0.00  0.00    -0.491 OA
ATOM     12  C   UNL     1     148.455 151.213 144.863  0.00  0.00    +0.277 C 
ENDBRANCH   4  11
ENDBRANCH   2   7
BRANCH   2  13
ATOM     13  C   UNL     1     145.234 145.888 140.894  0.00  0.00    +0.007 C 
ATOM     14  C   UNL     1     144.983 145.148 139.566  0.00  0.00    +0.009 C 
ATOM     15  C   UNL     1     144.516 145.123 142.019  0.00  0.00    +0.009 C 
ENDBRANCH   2  13
BRANCH   2  16
ATOM     16  C   UNL     1     147.445 146.441 139.870  0.00  0.00    +0.074 C 
ATOM     17  N   UNL     1     147.983 146.653 138.865  0.00  0.00    -0.196 NA
ENDBRANCH   2  16
ENDBRANCH   1   2
BRANCH   1  18
ATOM     18  C   UNL     1     148.916 144.656 141.353  0.00  0.00    +0.017 C 
BRANCH  18  19
ATOM     19  C   UNL     1     149.363 143.202 141.530  0.00  0.00    +0.084 C 
BRANCH  19  20
ATOM     20  N   UNL     1     150.770 143.105 141.899  0.00  0.00    -0.305 NA
ATOM     21  C   UNL     1     151.518 142.357 140.886  0.00  0.00    +0.104 C 
BRANCH  20  22
ATOM     22  C   UNL     1     151.350 144.438 142.076  0.00  0.00    +0.088 C 
BRANCH  22  23
ATOM     23  C   UNL     1     152.097 144.537 143.405  0.00  0.00    +0.050 C 
BRANCH  23  24
ATOM     24  C   UNL     1     152.467 145.964 143.728  0.00  0.00    -0.042 A 
ATOM     25  C   UNL     1     153.351 146.236 144.772  0.00  0.00    +0.007 A 
ATOM     26  C   UNL     1     153.693 147.555 145.070  0.00  0.00    +0.049 A 
ATOM     27  C   UNL     1     153.149 148.602 144.326  0.00  0.00    +0.161 A 
ATOM     28  C   UNL     1     152.263 148.330 143.283  0.00  0.00    +0.162 A 
ATOM     29  C   UNL     1     151.923 147.010 142.983  0.00  0.00    +0.053 A 
BRANCH  28  30
ATOM     30  O   UNL     1     151.726 149.344 142.549  0.00  0.00    -0.491 OA
ATOM     31  C   UNL     1     150.358 149.212 142.166  0.00  0.00    +0.277 C 
ENDBRANCH  28  30
BRANCH  27  32
ATOM     32  O   UNL     1     153.489 149.886 144.628  0.00  0.00    -0.491 OA
ATOM     33  C   UNL     1     153.584 150.223 146.010  0.00  0.00    +0.277 C 
ENDBRANCH  27  32
ENDBRANCH  23  24
ENDBRANCH  22  23
ENDBRANCH  20  22
ENDBRANCH  19  20
ENDBRANCH  18  19
ENDBRANCH   1  18
TORSDOF 14
ENDMDL
MODEL 5
REMARK VINA RESULT:      -7.4      1.321      1.648
REMARK  Name = 2520
REMARK  21 active torsions:
REMARK  status: ('A' for Active; 'I' for Inactive)
REMARK    1  A    between atoms: O_1  and  C_19
REMARK    2  A    between atoms: O_1  and  C_28
REMARK    3  A    between atoms: O_2  and  C_23
REMARK    4  A    between atoms: O_2  and  C_31
REMARK    5  A    between atoms: O_3  and  C_27
REMARK    6  A    between atoms: O_3  and  C_32
REMARK    7  A    between atoms: O_4  and  C_30
REMARK    8  A    between atoms: O_4  and  C_33
REMARK    9  A    between atoms: N_5  and  C_12
REMARK   10  A    between atoms: N_5  and  C_18
REMARK   11  A    between atoms: N_5  and  C_20
REMARK   12  A    between atoms: C_7  and  C_8
REMARK   13  A    between atoms: C_7  and  C_9
REMARK   14  A    between atoms: C_7  and  C_11
REMARK   15  A    between atoms: C_7  and  C_15
REMARK   16  A    between atoms: C_8  and  C_13
REMARK   17  A    between atoms: C_8  and  C_14
REMARK   18  A    between atoms: C_9  and  C_10
REMARK   19  A    between atoms: C_10  and  C_12
REMARK   20  A    between atoms: C_18  and  C_22
REMARK   21  A    between atoms: C_22  and  C_24
REMARK                            x       y       z     vdW  Elec       q    Type
REMARK                         _______ _______ _______ _____ _____    ______ ____
ROOT
ATOM      1  C   UNL     1     147.246 143.828 141.651  0.00  0.00    +0.028 C 
ENDROOT
BRANCH   1   2
ATOM      2  C   UNL     1     146.011 144.764 141.390  0.00  0.00    +0.085 C 
BRANCH   2   7
ATOM      3  C   UNL     1     147.053 147.796 143.492  0.00  0.00    +0.162 A 
ATOM      4  C   UNL     1     146.996 148.825 142.552  0.00  0.00    +0.162 A 
ATOM      5  C   UNL     1     146.622 148.546 141.237  0.00  0.00    +0.050 A 
ATOM      6  C   UNL     1     146.304 147.241 140.863  0.00  0.00    +0.009 A 
ATOM      7  C   UNL     1     146.362 146.212 141.804  0.00  0.00    -0.024 A 
ATOM      8  C   UNL     1     146.737 146.491 143.119  0.00  0.00    +0.054 A 
BRANCH   3   9
ATOM      9  O   UNL     1     147.417 148.055 144.780  0.00  0.00    -0.491 OA
ATOM     10  C   UNL     1     148.685 147.561 145.206  0.00  0.00    +0.277 C 
ENDBRANCH   3   9
BRANCH   4  11
ATOM     11  O   UNL     1     147.304 150.104 142.904  0.00  0.00    -0.491 OA
ATOM     12  C   UNL     1     148.682 150.467 142.889  0.00  0.00    +0.277 C 
ENDBRANCH   4  11
ENDBRANCH   2   7
BRANCH   2  13
ATOM     13  C   UNL     1     144.767 144.270 142.245  0.00  0.00    +0.007 C 
ATOM     14  C   UNL     1     143.412 144.691 141.644  0.00  0.00    +0.009 C 
ATOM     15  C   UNL     1     144.736 142.752 142.497  0.00  0.00    +0.009 C 
ENDBRANCH   2  13
BRANCH   2  16
ATOM     16  C   UNL     1     145.669 144.636 139.944  0.00  0.00    +0.074 C 
ATOM     17  N   UNL     1     145.386 144.534 138.823  0.00  0.00    -0.196 NA
ENDBRANCH   2  16
ENDBRANCH   1   2
BRANCH   1  18
ATOM     18  C   UNL     1     148.590 144.347 141.098  0.00  0.00    +0.017 C 
BRANCH  18  19
ATOM     19  C   UNL     1     149.787 143.925 141.956  0.00  0.00    +0.084 C 
BRANCH  19  20
ATOM     20  N   UNL     1     150.771 144.992 142.083  0.00  0.00    -0.305 NA
ATOM     21  C   UNL     1     150.273 146.228 141.477  0.00  0.00    +0.104 C 
BRANCH  20  22
ATOM     22  C   UNL     1     151.109 145.218 143.490  0.00  0.00    +0.088 C 
BRANCH  22  23
ATOM     23  C   UNL     1     152.623 145.280 143.686  0.00  0.00    +0.050 C 
BRANCH  23  24
ATOM     24  C   UNL     1     153.099 146.698 143.881  0.00  0.00    -0.042 A 
ATOM     25  C   UNL     1     153.929 147.291 142.929  0.00  0.00    +0.007 A 
ATOM     26  C   UNL     1     154.370 148.603 143.110  0.00  0.00    +0.049 A 
ATOM     27  C   UNL     1     153.982 149.320 144.241  0.00  0.00    +0.161 A 
ATOM     28  C   UNL     1     153.153 148.726 145.193  0.00  0.00    +0.162 A 
ATOM     29  C   UNL     1     152.711 147.415 145.012  0.00  0.00    +0.053 A 
BRANCH  28  30
ATOM     30  O   UNL     1     152.767 149.417 146.301  0.00  0.00    -0.491 OA
ATOM     31  C   UNL     1     151.490 150.052 146.258  0.00  0.00    +0.277 C 
ENDBRANCH  28  30
BRANCH  27  32
ATOM     32  O   UNL     1     154.420 150.599 144.405  0.00  0.00    -0.491 OA
ATOM     33  C   UNL     1     153.717 151.620 143.700  0.00  0.00    +0.277 C 
ENDBRANCH  27  32
ENDBRANCH  23  24
ENDBRANCH  22  23
ENDBRANCH  20  22
ENDBRANCH  19  20
ENDBRANCH  18  19
ENDBRANCH   1  18
TORSDOF 14
ENDMDL
MODEL 6
REMARK VINA RESULT:      -7.4      2.322      4.160
REMARK  Name = 2520
REMARK  21 active torsions:
REMARK  status: ('A' for Active; 'I' for Inactive)
REMARK    1  A    between atoms: O_1  and  C_19
REMARK    2  A    between atoms: O_1  and  C_28
REMARK    3  A    between atoms: O_2  and  C_23
REMARK    4  A    between atoms: O_2  and  C_31
REMARK    5  A    between atoms: O_3  and  C_27
REMARK    6  A    between atoms: O_3  and  C_32
REMARK    7  A    between atoms: O_4  and  C_30
REMARK    8  A    between atoms: O_4  and  C_33
REMARK    9  A    between atoms: N_5  and  C_12
REMARK   10  A    between atoms: N_5  and  C_18
REMARK   11  A    between atoms: N_5  and  C_20
REMARK   12  A    between atoms: C_7  and  C_8
REMARK   13  A    between atoms: C_7  and  C_9
REMARK   14  A    between atoms: C_7  and  C_11
REMARK   15  A    between atoms: C_7  and  C_15
REMARK   16  A    between atoms: C_8  and  C_13
REMARK   17  A    between atoms: C_8  and  C_14
REMARK   18  A    between atoms: C_9  and  C_10
REMARK   19  A    between atoms: C_10  and  C_12
REMARK   20  A    between atoms: C_18  and  C_22
REMARK   21  A    between atoms: C_22  and  C_24
REMARK                            x       y       z     vdW  Elec       q    Type
REMARK                         _______ _______ _______ _____ _____    ______ ____
ROOT
ATOM      1  C   UNL     1     148.844 148.680 142.035  0.00  0.00    +0.028 C 
ENDROOT
BRANCH   1   2
ATOM      2  C   UNL     1     147.651 147.991 142.791  0.00  0.00    +0.085 C 
BRANCH   2   7
ATOM      3  C   UNL     1     145.707 144.894 141.637  0.00  0.00    +0.162 A 
ATOM      4  C   UNL     1     145.897 144.940 140.255  0.00  0.00    +0.162 A 
ATOM      5  C   UNL     1     146.652 145.968 139.690  0.00  0.00    +0.050 A 
ATOM      6  C   UNL     1     147.217 146.949 140.505  0.00  0.00    +0.009 A 
ATOM      7  C   UNL     1     147.026 146.903 141.886  0.00  0.00    -0.024 A 
ATOM      8  C   UNL     1     146.271 145.874 142.452  0.00  0.00    +0.054 A 
BRANCH   3   9
ATOM      9  O   UNL     1     144.972 143.895 142.201  0.00  0.00    -0.491 OA
ATOM     10  C   UNL     1     143.730 144.262 142.797  0.00  0.00    +0.277 C 
ENDBRANCH   3   9
BRANCH   4  11
ATOM     11  O   UNL     1     145.351 143.988 139.448  0.00  0.00    -0.491 OA
ATOM     12  C   UNL     1     144.129 144.318 138.793  0.00  0.00    +0.277 C 
ENDBRANCH   4  11
ENDBRANCH   2   7
BRANCH   2  13
ATOM     13  C   UNL     1     146.541 149.069 143.146  0.00  0.00    +0.007 C 
ATOM     14  C   UNL     1     147.029 150.138 144.142  0.00  0.00    +0.009 C 
ATOM     15  C   UNL     1     145.939 149.783 141.923  0.00  0.00    +0.009 C 
ENDBRANCH   2  13
BRANCH   2  16
ATOM     16  C   UNL     1     148.202 147.445 144.065  0.00  0.00    +0.074 C 
ATOM     17  N   UNL     1     148.630 147.036 145.063  0.00  0.00    -0.196 NA
ENDBRANCH   2  16
ENDBRANCH   1   2
BRANCH   1  18
ATOM     18  C   UNL     1     150.248 148.163 142.416  0.00  0.00    +0.017 C 
BRANCH  18  19
ATOM     19  C   UNL     1     150.644 146.902 141.642  0.00  0.00    +0.084 C 
BRANCH  19  20
ATOM     20  N   UNL     1     150.770 145.742 142.515  0.00  0.00    -0.305 NA
ATOM     21  C   UNL     1     149.885 144.664 142.072  0.00  0.00    +0.104 C 
BRANCH  20  22
ATOM     22  C   UNL     1     152.158 145.274 142.555  0.00  0.00    +0.088 C 
BRANCH  22  23
ATOM     23  C   UNL     1     152.774 145.506 143.934  0.00  0.00    +0.050 C 
BRANCH  23  24
ATOM     24  C   UNL     1     153.227 146.935 144.106  0.00  0.00    -0.042 A 
ATOM     25  C   UNL     1     154.036 147.531 143.138  0.00  0.00    +0.007 A 
ATOM     26  C   UNL     1     154.455 148.852 143.297  0.00  0.00    +0.049 A 
ATOM     27  C   UNL     1     154.067 149.576 144.423  0.00  0.00    +0.161 A 
ATOM     28  C   UNL     1     153.259 148.980 145.392  0.00  0.00    +0.162 A 
ATOM     29  C   UNL     1     152.839 147.659 145.232  0.00  0.00    +0.053 A 
BRANCH  28  30
ATOM     30  O   UNL     1     152.873 149.678 146.496  0.00  0.00    -0.491 OA
ATOM     31  C   UNL     1     151.578 150.276 146.465  0.00  0.00    +0.277 C 
ENDBRANCH  28  30
BRANCH  27  32
ATOM     32  O   UNL     1     154.484 150.865 144.567  0.00  0.00    -0.491 OA
ATOM     33  C   UNL     1     153.701 151.873 143.930  0.00  0.00    +0.277 C 
ENDBRANCH  27  32
ENDBRANCH  23  24
ENDBRANCH  22  23
ENDBRANCH  20  22
ENDBRANCH  19  20
ENDBRANCH  18  19
ENDBRANCH   1  18
TORSDOF 14
ENDMDL
MODEL 7
REMARK VINA RESULT:      -7.4      2.356      5.555
REMARK  Name = 2520
REMARK  21 active torsions:
REMARK  status: ('A' for Active; 'I' for Inactive)
REMARK    1  A    between atoms: O_1  and  C_19
REMARK    2  A    between atoms: O_1  and  C_28
REMARK    3  A    between atoms: O_2  and  C_23
REMARK    4  A    between atoms: O_2  and  C_31
REMARK    5  A    between atoms: O_3  and  C_27
REMARK    6  A    between atoms: O_3  and  C_32
REMARK    7  A    between atoms: O_4  and  C_30
REMARK    8  A    between atoms: O_4  and  C_33
REMARK    9  A    between atoms: N_5  and  C_12
REMARK   10  A    between atoms: N_5  and  C_18
REMARK   11  A    between atoms: N_5  and  C_20
REMARK   12  A    between atoms: C_7  and  C_8
REMARK   13  A    between atoms: C_7  and  C_9
REMARK   14  A    between atoms: C_7  and  C_11
REMARK   15  A    between atoms: C_7  and  C_15
REMARK   16  A    between atoms: C_8  and  C_13
REMARK   17  A    between atoms: C_8  and  C_14
REMARK   18  A    between atoms: C_9  and  C_10
REMARK   19  A    between atoms: C_10  and  C_12
REMARK   20  A    between atoms: C_18  and  C_22
REMARK   21  A    between atoms: C_22  and  C_24
REMARK                            x       y       z     vdW  Elec       q    Type
REMARK                         _______ _______ _______ _____ _____    ______ ____
ROOT
ATOM      1  C   UNL     1     148.795 148.966 142.302  0.00  0.00    +0.028 C 
ENDROOT
BRANCH   1   2
ATOM      2  C   UNL     1     149.161 149.171 143.817  0.00  0.00    +0.085 C 
BRANCH   2   7
ATOM      3  C   UNL     1     152.595 150.199 145.179  0.00  0.00    +0.162 A 
ATOM      4  C   UNL     1     153.097 150.969 144.128  0.00  0.00    +0.162 A 
ATOM      5  C   UNL     1     152.331 151.159 142.977  0.00  0.00    +0.050 A 
ATOM      6  C   UNL     1     151.065 150.582 142.877  0.00  0.00    +0.009 A 
ATOM      7  C   UNL     1     150.565 149.812 143.928  0.00  0.00    -0.024 A 
ATOM      8  C   UNL     1     151.330 149.621 145.079  0.00  0.00    +0.054 A 
BRANCH   3   9
ATOM      9  O   UNL     1     153.333 150.005 146.307  0.00  0.00    -0.491 OA
ATOM     10  C   UNL     1     153.079 150.878 147.405  0.00  0.00    +0.277 C 
ENDBRANCH   3   9
BRANCH   4  11
ATOM     11  O   UNL     1     154.331 151.538 144.213  0.00  0.00    -0.491 OA
ATOM     12  C   UNL     1     154.391 152.894 144.647  0.00  0.00    +0.277 C 
ENDBRANCH   4  11
ENDBRANCH   2   7
BRANCH   2  13
ATOM     13  C   UNL     1     149.173 147.771 144.565  0.00  0.00    +0.007 C 
ATOM     14  C   UNL     1     148.650 147.852 146.013  0.00  0.00    +0.009 C 
ATOM     15  C   UNL     1     148.404 146.657 143.834  0.00  0.00    +0.009 C 
ENDBRANCH   2  13
BRANCH   2  16
ATOM     16  C   UNL     1     148.085 150.015 144.413  0.00  0.00    +0.074 C 
ATOM     17  N   UNL     1     147.258 150.676 144.888  0.00  0.00    -0.196 NA
ENDBRANCH   2  16
ENDBRANCH   1   2
BRANCH   1  18
ATOM     18  C   UNL     1     147.283 148.908 141.995  0.00  0.00    +0.017 C 
BRANCH  18  19
ATOM     19  C   UNL     1     146.979 148.256 140.643  0.00  0.00    +0.084 C 
BRANCH  19  20
ATOM     20  N   UNL     1     147.127 146.807 140.690  0.00  0.00    -0.305 NA
ATOM     21  C   UNL     1     145.819 146.158 140.790  0.00  0.00    +0.104 C 
BRANCH  20  22
ATOM     22  C   UNL     1     147.844 146.323 139.509  0.00  0.00    +0.088 C 
BRANCH  22  23
ATOM     23  C   UNL     1     149.282 146.840 139.490  0.00  0.00    +0.050 C 
BRANCH  23  24
ATOM     24  C   UNL     1     150.131 146.155 140.533  0.00  0.00    -0.042 A 
ATOM     25  C   UNL     1     150.062 144.770 140.688  0.00  0.00    +0.007 A 
ATOM     26  C   UNL     1     150.846 144.137 141.653  0.00  0.00    +0.049 A 
ATOM     27  C   UNL     1     151.697 144.888 142.462  0.00  0.00    +0.161 A 
ATOM     28  C   UNL     1     151.765 146.273 142.308  0.00  0.00    +0.162 A 
ATOM     29  C   UNL     1     150.981 146.907 141.343  0.00  0.00    +0.053 A 
BRANCH  28  30
ATOM     30  O   UNL     1     152.593 147.018 143.093  0.00  0.00    -0.491 OA
ATOM     31  C   UNL     1     153.768 147.544 142.480  0.00  0.00    +0.277 C 
ENDBRANCH  28  30
BRANCH  27  32
ATOM     32  O   UNL     1     152.457 144.259 143.401  0.00  0.00    -0.491 OA
ATOM     33  C   UNL     1     152.687 142.863 143.219  0.00  0.00    +0.277 C 
ENDBRANCH  27  32
ENDBRANCH  23  24
ENDBRANCH  22  23
ENDBRANCH  20  22
ENDBRANCH  19  20
ENDBRANCH  18  19
ENDBRANCH   1  18
TORSDOF 14
ENDMDL
MODEL 8
REMARK VINA RESULT:      -7.3      3.148      7.724
REMARK  Name = 2520
REMARK  21 active torsions:
REMARK  status: ('A' for Active; 'I' for Inactive)
REMARK    1  A    between atoms: O_1  and  C_19
REMARK    2  A    between atoms: O_1  and  C_28
REMARK    3  A    between atoms: O_2  and  C_23
REMARK    4  A    between atoms: O_2  and  C_31
REMARK    5  A    between atoms: O_3  and  C_27
REMARK    6  A    between atoms: O_3  and  C_32
REMARK    7  A    between atoms: O_4  and  C_30
REMARK    8  A    between atoms: O_4  and  C_33
REMARK    9  A    between atoms: N_5  and  C_12
REMARK   10  A    between atoms: N_5  and  C_18
REMARK   11  A    between atoms: N_5  and  C_20
REMARK   12  A    between atoms: C_7  and  C_8
REMARK   13  A    between atoms: C_7  and  C_9
REMARK   14  A    between atoms: C_7  and  C_11
REMARK   15  A    between atoms: C_7  and  C_15
REMARK   16  A    between atoms: C_8  and  C_13
REMARK   17  A    between atoms: C_8  and  C_14
REMARK   18  A    between atoms: C_9  and  C_10
REMARK   19  A    between atoms: C_10  and  C_12
REMARK   20  A    between atoms: C_18  and  C_22
REMARK   21  A    between atoms: C_22  and  C_24
REMARK                            x       y       z     vdW  Elec       q    Type
REMARK                         _______ _______ _______ _____ _____    ______ ____
ROOT
ATOM      1  C   UNL     1     151.033 147.238 145.044  0.00  0.00    +0.028 C 
ENDROOT
BRANCH   1   2
ATOM      2  C   UNL     1     151.714 147.072 143.637  0.00  0.00    +0.085 C 
BRANCH   2   7
ATOM      3  C   UNL     1     151.113 143.445 142.548  0.00  0.00    +0.162 A 
ATOM      4  C   UNL     1     150.071 143.594 141.632  0.00  0.00    +0.162 A 
ATOM      5  C   UNL     1     149.557 144.863 141.362  0.00  0.00    +0.050 A 
ATOM      6  C   UNL     1     150.086 145.982 142.006  0.00  0.00    +0.009 A 
ATOM      7  C   UNL     1     151.128 145.831 142.922  0.00  0.00    -0.024 A 
ATOM      8  C   UNL     1     151.642 144.562 143.192  0.00  0.00    +0.054 A 
BRANCH   3   9
ATOM      9  O   UNL     1     151.623 142.211 142.820  0.00  0.00    -0.491 OA
ATOM     10  C   UNL     1     152.998 142.147 143.194  0.00  0.00    +0.277 C 
ENDBRANCH   3   9
BRANCH   4  11
ATOM     11  O   UNL     1     149.546 142.510 140.996  0.00  0.00    -0.491 OA
ATOM     12  C   UNL     1     148.203 142.157 141.319  0.00  0.00    +0.277 C 
ENDBRANCH   4  11
ENDBRANCH   2   7
BRANCH   2  13
ATOM     13  C   UNL     1     153.279 146.874 143.814  0.00  0.00    +0.007 C 
ATOM     14  C   UNL     1     154.099 147.435 142.635  0.00  0.00    +0.009 C 
ATOM     15  C   UNL     1     153.847 147.456 145.120  0.00  0.00    +0.009 C 
ENDBRANCH   2  13
BRANCH   2  16
ATOM     16  C   UNL     1     151.481 148.342 142.890  0.00  0.00    +0.074 C 
ATOM     17  N   UNL     1     151.290 149.321 142.298  0.00  0.00    -0.196 NA
ENDBRANCH   2  16
ENDBRANCH   1   2
BRANCH   1  18
ATOM     18  C   UNL     1     149.494 147.118 145.045  0.00  0.00    +0.017 C 
BRANCH  18  19
ATOM     19  C   UNL     1     148.813 148.243 145.832  0.00  0.00    +0.084 C 
BRANCH  19  20
ATOM     20  N   UNL     1     148.092 149.160 144.959  0.00  0.00    -0.305 NA
ATOM     21  C   UNL     1     148.690 150.496 145.009  0.00  0.00    +0.104 C 
BRANCH  20  22
ATOM     22  C   UNL     1     148.080 148.661 143.582  0.00  0.00    +0.088 C 
BRANCH  22  23
ATOM     23  C   UNL     1     146.663 148.661 143.012  0.00  0.00    +0.050 C 
BRANCH  23  24
ATOM     24  C   UNL     1     146.446 147.507 142.065  0.00  0.00    -0.042 A 
ATOM     25  C   UNL     1     146.731 147.657 140.707  0.00  0.00    +0.007 A 
ATOM     26  C   UNL     1     146.530 146.589 139.832  0.00  0.00    +0.049 A 
ATOM     27  C   UNL     1     146.044 145.375 140.312  0.00  0.00    +0.161 A 
ATOM     28  C   UNL     1     145.758 145.225 141.670  0.00  0.00    +0.162 A 
ATOM     29  C   UNL     1     145.960 146.292 142.546  0.00  0.00    +0.053 A 
BRANCH  28  30
ATOM     30  O   UNL     1     145.283 144.043 142.151  0.00  0.00    -0.491 OA
ATOM     31  C   UNL     1     144.162 144.105 143.031  0.00  0.00    +0.277 C 
ENDBRANCH  28  30
BRANCH  27  32
ATOM     32  O   UNL     1     145.852 144.340 139.447  0.00  0.00    -0.491 OA
ATOM     33  C   UNL     1     144.627 144.326 138.716  0.00  0.00    +0.277 C 
ENDBRANCH  27  32
ENDBRANCH  23  24
ENDBRANCH  22  23
ENDBRANCH  20  22
ENDBRANCH  19  20
ENDBRANCH  18  19
ENDBRANCH   1  18
TORSDOF 14
ENDMDL
MODEL 9
REMARK VINA RESULT:      -7.3      2.402      4.885
REMARK  Name = 2520
REMARK  21 active torsions:
REMARK  status: ('A' for Active; 'I' for Inactive)
REMARK    1  A    between atoms: O_1  and  C_19
REMARK    2  A    between atoms: O_1  and  C_28
REMARK    3  A    between atoms: O_2  and  C_23
REMARK    4  A    between atoms: O_2  and  C_31
REMARK    5  A    between atoms: O_3  and  C_27
REMARK    6  A    between atoms: O_3  and  C_32
REMARK    7  A    between atoms: O_4  and  C_30
REMARK    8  A    between atoms: O_4  and  C_33
REMARK    9  A    between atoms: N_5  and  C_12
REMARK   10  A    between atoms: N_5  and  C_18
REMARK   11  A    between atoms: N_5  and  C_20
REMARK   12  A    between atoms: C_7  and  C_8
REMARK   13  A    between atoms: C_7  and  C_9
REMARK   14  A    between atoms: C_7  and  C_11
REMARK   15  A    between atoms: C_7  and  C_15
REMARK   16  A    between atoms: C_8  and  C_13
REMARK   17  A    between atoms: C_8  and  C_14
REMARK   18  A    between atoms: C_9  and  C_10
REMARK   19  A    between atoms: C_10  and  C_12
REMARK   20  A    between atoms: C_18  and  C_22
REMARK   21  A    between atoms: C_22  and  C_24
REMARK                            x       y       z     vdW  Elec       q    Type
REMARK                         _______ _______ _______ _____ _____    ______ ____
ROOT
ATOM      1  C   UNL     1     147.600 147.638 141.739  0.00  0.00    +0.028 C 
ENDROOT
BRANCH   1   2
ATOM      2  C   UNL     1     147.569 146.087 141.487  0.00  0.00    +0.085 C 
BRANCH   2   7
ATOM      3  C   UNL     1     150.760 145.489 143.525  0.00  0.00    +0.162 A 
ATOM      4  C   UNL     1     151.237 144.304 142.962  0.00  0.00    +0.162 A 
ATOM      5  C   UNL     1     150.532 143.694 141.924  0.00  0.00    +0.050 A 
ATOM      6  C   UNL     1     149.353 144.267 141.449  0.00  0.00    +0.009 A 
ATOM      7  C   UNL     1     148.877 145.451 142.013  0.00  0.00    -0.024 A 
ATOM      8  C   UNL     1     149.581 146.062 143.051  0.00  0.00    +0.054 A 
BRANCH   3   9
ATOM      9  O   UNL     1     151.439 146.095 144.539  0.00  0.00    -0.491 OA
ATOM     10  C   UNL     1     150.715 147.030 145.335  0.00  0.00    +0.277 C 
ENDBRANCH   3   9
BRANCH   4  11
ATOM     11  O   UNL     1     152.388 143.734 143.417  0.00  0.00    -0.491 OA
ATOM     12  C   UNL     1     152.646 142.390 143.019  0.00  0.00    +0.277 C 
ENDBRANCH   4  11
ENDBRANCH   2   7
BRANCH   2  13
ATOM     13  C   UNL     1     147.441 145.795 139.931  0.00  0.00    +0.007 C 
ATOM     14  C   UNL     1     145.985 145.589 139.470  0.00  0.00    +0.009 C 
ATOM     15  C   UNL     1     148.089 146.861 139.032  0.00  0.00    +0.009 C 
ENDBRANCH   2  13
BRANCH   2  16
ATOM     16  C   UNL     1     146.349 145.562 142.166  0.00  0.00    +0.074 C 
ATOM     17  N   UNL     1     145.407 145.157 142.710  0.00  0.00    -0.196 NA
ENDBRANCH   2  16
ENDBRANCH   1   2
BRANCH   1  18
ATOM     18  C   UNL     1     146.588 148.152 142.786  0.00  0.00    +0.017 C 
BRANCH  18  19
ATOM     19  C   UNL     1     146.777 149.637 143.112  0.00  0.00    +0.084 C 
BRANCH  19  20
ATOM     20  N   UNL     1     147.105 149.850 144.515  0.00  0.00    -0.305 NA
ATOM     21  C   UNL     1     147.550 148.601 145.137  0.00  0.00    +0.104 C 
BRANCH  20  22
ATOM     22  C   UNL     1     148.136 150.880 144.654  0.00  0.00    +0.088 C 
BRANCH  22  23
ATOM     23  C   UNL     1     148.879 151.093 143.336  0.00  0.00    +0.050 C 
BRANCH  23  24
ATOM     24  C   UNL     1     150.265 150.497 143.377  0.00  0.00    -0.042 A 
ATOM     25  C   UNL     1     150.660 149.584 142.400  0.00  0.00    +0.007 A 
ATOM     26  C   UNL     1     151.941 149.033 142.439  0.00  0.00    +0.049 A 
ATOM     27  C   UNL     1     152.824 149.392 143.455  0.00  0.00    +0.161 A 
ATOM     28  C   UNL     1     152.429 150.305 144.434  0.00  0.00    +0.162 A 
ATOM     29  C   UNL     1     151.148 150.857 144.394  0.00  0.00    +0.053 A 
BRANCH  28  30
ATOM     30  O   UNL     1     153.283 150.664 145.432  0.00  0.00    -0.491 OA
ATOM     31  C   UNL     1     153.103 150.033 146.698  0.00  0.00    +0.277 C 
ENDBRANCH  28  30
BRANCH  27  32
ATOM     32  O   UNL     1     154.072 148.846 143.483  0.00  0.00    -0.491 OA
ATOM     33  C   UNL     1     154.225 147.552 142.905  0.00  0.00    +0.277 C 
ENDBRANCH  27  32
ENDBRANCH  23  24
ENDBRANCH  22  23
ENDBRANCH  20  22
ENDBRANCH  19  20
ENDBRANCH  18  19
ENDBRANCH   1  18
TORSDOF 14
ENDMDL
MODEL 10
REMARK VINA RESULT:      -7.3      3.213      7.604
REMARK  Name = 2520
REMARK  21 active torsions:
REMARK  status: ('A' for Active; 'I' for Inactive)
REMARK    1  A    between atoms: O_1  and  C_19
REMARK    2  A    between atoms: O_1  and  C_28
REMARK    3  A    between atoms: O_2  and  C_23
REMARK    4  A    between atoms: O_2  and  C_31
REMARK    5  A    between atoms: O_3  and  C_27
REMARK    6  A    between atoms: O_3  and  C_32
REMARK    7  A    between atoms: O_4  and  C_30
REMARK    8  A    between atoms: O_4  and  C_33
REMARK    9  A    between atoms: N_5  and  C_12
REMARK   10  A    between atoms: N_5  and  C_18
REMARK   11  A    between atoms: N_5  and  C_20
REMARK   12  A    between atoms: C_7  and  C_8
REMARK   13  A    between atoms: C_7  and  C_9
REMARK   14  A    between atoms: C_7  and  C_11
REMARK   15  A    between atoms: C_7  and  C_15
REMARK   16  A    between atoms: C_8  and  C_13
REMARK   17  A    between atoms: C_8  and  C_14
REMARK   18  A    between atoms: C_9  and  C_10
REMARK   19  A    between atoms: C_10  and  C_12
REMARK   20  A    between atoms: C_18  and  C_22
REMARK   21  A    between atoms: C_22  and  C_24
REMARK                            x       y       z     vdW  Elec       q    Type
REMARK                         _______ _______ _______ _____ _____    ______ ____
ROOT
ATOM      1  C   UNL     1     151.325 148.957 144.857  0.00  0.00    +0.028 C 
ENDROOT
BRANCH   1   2
ATOM      2  C   UNL     1     152.188 148.744 143.562  0.00  0.00    +0.085 C 
BRANCH   2   7
ATOM      3  C   UNL     1     150.747 145.861 141.486  0.00  0.00    +0.162 A 
ATOM      4  C   UNL     1     149.879 146.537 140.627  0.00  0.00    +0.162 A 
ATOM      5  C   UNL     1     149.754 147.924 140.714  0.00  0.00    +0.050 A 
ATOM      6  C   UNL     1     150.497 148.634 141.657  0.00  0.00    +0.009 A 
ATOM      7  C   UNL     1     151.364 147.957 142.515  0.00  0.00    -0.024 A 
ATOM      8  C   UNL     1     151.489 146.570 142.429  0.00  0.00    +0.054 A 
BRANCH   3   9
ATOM      9  O   UNL     1     150.878 144.506 141.411  0.00  0.00    -0.491 OA
ATOM     10  C   UNL     1     151.188 143.818 142.621  0.00  0.00    +0.277 C 
ENDBRANCH   3   9
BRANCH   4  11
ATOM     11  O   UNL     1     149.148 145.855 139.702  0.00  0.00    -0.491 OA
ATOM     12  C   UNL     1     148.358 146.629 138.802  0.00  0.00    +0.277 C 
ENDBRANCH   4  11
ENDBRANCH   2   7
BRANCH   2  13
ATOM     13  C   UNL     1     153.499 147.919 143.914  0.00  0.00    +0.007 C 
ATOM     14  C   UNL     1     154.675 148.214 142.963  0.00  0.00    +0.009 C 
ATOM     15  C   UNL     1     153.989 148.099 145.361  0.00  0.00    +0.009 C 
ENDBRANCH   2  13
BRANCH   2  16
ATOM     16  C   UNL     1     152.597 150.098 143.086  0.00  0.00    +0.074 C 
ATOM     17  N   UNL     1     152.928 151.143 142.707  0.00  0.00    -0.196 NA
ENDBRANCH   2  16
ENDBRANCH   1   2
BRANCH   1  18
ATOM     18  C   UNL     1     150.733 150.373 145.025  0.00  0.00    +0.017 C 
BRANCH  18  19
ATOM     19  C   UNL     1     149.317 150.357 145.610  0.00  0.00    +0.084 C 
BRANCH  19  20
ATOM     20  N   UNL     1     148.352 150.990 144.720  0.00  0.00    -0.305 NA
ATOM     21  C   UNL     1     148.992 151.387 143.464  0.00  0.00    +0.104 C 
BRANCH  20  22
ATOM     22  C   UNL     1     147.228 150.090 144.454  0.00  0.00    +0.088 C 
BRANCH  22  23
ATOM     23  C   UNL     1     147.065 149.846 142.954  0.00  0.00    +0.050 C 
BRANCH  23  24
ATOM     24  C   UNL     1     146.845 148.385 142.651  0.00  0.00    -0.042 A 
ATOM     25  C   UNL     1     147.381 147.410 143.492  0.00  0.00    +0.007 A 
ATOM     26  C   UNL     1     147.178 146.059 143.212  0.00  0.00    +0.049 A 
ATOM     27  C   UNL     1     146.440 145.683 142.090  0.00  0.00    +0.161 A 
ATOM     28  C   UNL     1     145.905 146.658 141.247  0.00  0.00    +0.162 A 
ATOM     29  C   UNL     1     146.107 148.009 141.529  0.00  0.00    +0.053 A 
BRANCH  28  30
ATOM     30  O   UNL     1     145.182 146.302 140.149  0.00  0.00    -0.491 OA
ATOM     31  C   UNL     1     143.950 145.621 140.376  0.00  0.00    +0.277 C 
ENDBRANCH  28  30
BRANCH  27  32
ATOM     32  O   UNL     1     146.250 144.360 141.826  0.00  0.00    -0.491 OA
ATOM     33  C   UNL     1     147.383 143.618 141.380  0.00  0.00    +0.277 C 
ENDBRANCH  27  32
ENDBRANCH  23  24
ENDBRANCH  22  23
ENDBRANCH  20  22
ENDBRANCH  19  20
ENDBRANCH  18  19
ENDBRANCH   1  18
TORSDOF 14
ENDMDL
