MODEL 1
REMARK VINA RESULT:    -8.766      0.000      0.000
REMARK INTER + INTRA:         -14.351
REMARK INTER:                 -13.144
REMARK INTRA:                  -1.207
REMARK UNBOUND:                -1.485
REMARK  Name = 5281643
REMARK  12 active torsions:
REMARK  status: ('A' for Active; 'I' for Inactive)
REMARK    1  A    between atoms: O_2  and  C_17
REMARK    2  A    between atoms: O_2  and  C_19
REMARK    3  A    between atoms: O_3  and  C_13
REMARK    4  A    between atoms: O_4  and  C_14
REMARK    5  A    between atoms: O_5  and  C_15
REMARK    6  A    between atoms: O_6  and  C_18
REMARK    7  A    between atoms: O_9  and  C_25
REMARK    8  A    between atoms: O_10  and  C_30
REMARK    9  A    between atoms: O_11  and  C_31
REMARK   10  A    between atoms: O_12  and  C_33
REMARK   11  A    between atoms: C_16  and  C_18
REMARK   12  A    between atoms: C_20  and  C_24
REMARK                            x       y       z     vdW  Elec       q    Type
REMARK                         _______ _______ _______ _____ _____    ______ ____
ROOT
ATOM      1  O   UNL     1      92.510  14.008  38.867  0.00  0.00    +0.000 OA
ATOM      2  O   UNL     1      88.811  12.330  39.179  0.00  0.00    +0.000 OA
ATOM      3  C   UNL     1      90.795  13.033  40.264  0.00  0.00    +0.000 A 
ATOM      4  C   UNL     1      92.008  13.588  40.088  0.00  0.00    +0.000 A 
ATOM      5  C   UNL     1      89.923  12.830  39.081  0.00  0.00    +0.000 A 
ATOM      6  C   UNL     1      90.469  13.264  37.786  0.00  0.00    +0.000 A 
ATOM      7  C   UNL     1      91.740  13.833  37.747  0.00  0.00    +0.000 A 
ATOM      8  C   UNL     1      89.728  13.113  36.612  0.00  0.00    +0.000 A 
ATOM      9  C   UNL     1      92.278  14.256  36.531  0.00  0.00    +0.000 A 
ATOM     10  C   UNL     1      90.268  13.536  35.397  0.00  0.00    +0.000 A 
ATOM     11  C   UNL     1      91.541  14.106  35.356  0.00  0.00    +0.000 A 
ENDROOT
BRANCH   4  12
ATOM     12  C   UNL     1      92.935  13.835  41.207  0.00  0.00    +0.000 A 
ATOM     13  C   UNL     1      92.808  14.994  41.975  0.00  0.00    +0.000 A 
ATOM     14  C   UNL     1      93.938  12.911  41.500  0.00  0.00    +0.000 A 
ATOM     15  C   UNL     1      93.684  15.227  43.035  0.00  0.00    +0.000 A 
ATOM     16  C   UNL     1      94.814  13.145  42.560  0.00  0.00    +0.000 A 
ATOM     17  C   UNL     1      94.688  14.303  43.327  0.00  0.00    +0.000 A 
BRANCH  15  18
ATOM     18  O   UNL     1      93.551  16.362  43.777  0.00  0.00    +0.000 OA
ATOM     19  H   UNL     1      93.692  17.128  43.192  0.00  0.00    +0.000 HD
ENDBRANCH  15  18
BRANCH  17  20
ATOM     20  O   UNL     1      95.548  14.520  44.360  0.00  0.00    +0.000 OA
ATOM     21  H   UNL     1      96.166  15.231  44.114  0.00  0.00    +0.000 HD
ENDBRANCH  17  20
ENDBRANCH   4  12
BRANCH   8  22
ATOM     22  O   UNL     1      88.481  12.564  36.596  0.00  0.00    +0.000 OA
ATOM     23  H   UNL     1      87.904  13.045  35.983  0.00  0.00    +0.000 HD
ENDBRANCH   8  22
BRANCH  11  24
ATOM     24  O   UNL     1      92.063  14.520  34.170  0.00  0.00    +0.000 OA
ATOM     25  H   UNL     1      92.765  15.169  34.343  0.00  0.00    +0.000 HD
ENDBRANCH  11  24
BRANCH   3  26
ATOM     26  O   UNL     1      90.311  12.656  41.498  0.00  0.00    +0.000 OA
BRANCH  26  32
ATOM     27  O   UNL     1      90.089  14.563  42.826  0.00  0.00    +0.000 OA
ATOM     28  C   UNL     1      87.409  13.844  43.550  0.00  0.00    +0.000 C 
ATOM     29  C   UNL     1      88.206  14.895  44.323  0.00  0.00    +0.000 C 
ATOM     30  C   UNL     1      88.339  12.865  42.835  0.00  0.00    +0.000 C 
ATOM     31  C   UNL     1      89.228  15.558  43.394  0.00  0.00    +0.000 C 
ATOM     32  C   UNL     1      89.392  13.617  42.017  0.00  0.00    +0.000 C 
BRANCH  28  33
ATOM     33  O   UNL     1      86.559  13.122  44.437  0.00  0.00    +0.000 OA
ATOM     34  H   UNL     1      86.315  12.292  43.994  0.00  0.00    +0.000 HD
ENDBRANCH  28  33
BRANCH  29  35
ATOM     35  O   UNL     1      88.898  14.269  45.406  0.00  0.00    +0.000 OA
ATOM     36  H   UNL     1      88.569  13.357  45.471  0.00  0.00    +0.000 HD
ENDBRANCH  29  35
BRANCH  30  37
ATOM     37  O   UNL     1      87.572  12.051  41.948  0.00  0.00    +0.000 OA
ATOM     38  H   UNL     1      86.721  11.877  42.385  0.00  0.00    +0.000 HD
ENDBRANCH  30  37
BRANCH  31  39
ATOM     39  C   UNL     1      90.114  16.560  44.127  0.00  0.00    +0.000 C 
BRANCH  39  40
ATOM     40  O   UNL     1      90.563  17.530  43.198  0.00  0.00    +0.000 OA
ATOM     41  H   UNL     1      90.214  17.284  42.324  0.00  0.00    +0.000 HD
ENDBRANCH  39  40
ENDBRANCH  31  39
ENDBRANCH  26  32
ENDBRANCH   3  26
TORSDOF 12
ENDMDL
MODEL 2
REMARK VINA RESULT:    -8.429      9.214     13.210
REMARK INTER + INTRA:         -13.856
REMARK INTER:                 -12.524
REMARK INTRA:                  -1.333
REMARK UNBOUND:                -1.485
REMARK  Name = 5281643
REMARK  12 active torsions:
REMARK  status: ('A' for Active; 'I' for Inactive)
REMARK    1  A    between atoms: O_2  and  C_17
REMARK    2  A    between atoms: O_2  and  C_19
REMARK    3  A    between atoms: O_3  and  C_13
REMARK    4  A    between atoms: O_4  and  C_14
REMARK    5  A    between atoms: O_5  and  C_15
REMARK    6  A    between atoms: O_6  and  C_18
REMARK    7  A    between atoms: O_9  and  C_25
REMARK    8  A    between atoms: O_10  and  C_30
REMARK    9  A    between atoms: O_11  and  C_31
REMARK   10  A    between atoms: O_12  and  C_33
REMARK   11  A    between atoms: C_16  and  C_18
REMARK   12  A    between atoms: C_20  and  C_24
REMARK                            x       y       z     vdW  Elec       q    Type
REMARK                         _______ _______ _______ _____ _____    ______ ____
ROOT
ATOM      1  O   UNL     1      84.319  14.316  28.511  0.00  0.00    +0.000 OA
ATOM      2  O   UNL     1      81.006  13.162  30.583  0.00  0.00    +0.000 OA
ATOM      3  C   UNL     1      83.217  12.667  29.894  0.00  0.00    +0.000 A 
ATOM      4  C   UNL     1      84.274  13.106  29.187  0.00  0.00    +0.000 A 
ATOM      5  C   UNL     1      81.998  13.509  29.956  0.00  0.00    +0.000 A 
ATOM      6  C   UNL     1      82.048  14.784  29.225  0.00  0.00    +0.000 A 
ATOM      7  C   UNL     1      83.211  15.122  28.538  0.00  0.00    +0.000 A 
ATOM      8  C   UNL     1      80.949  15.648  29.218  0.00  0.00    +0.000 A 
ATOM      9  C   UNL     1      83.285  16.327  27.839  0.00  0.00    +0.000 A 
ATOM     10  C   UNL     1      81.025  16.852  28.518  0.00  0.00    +0.000 A 
ATOM     11  C   UNL     1      82.190  17.192  27.829  0.00  0.00    +0.000 A 
ENDROOT
BRANCH   4  12
ATOM     12  C   UNL     1      85.528  12.339  29.079  0.00  0.00    +0.000 A 
ATOM     13  C   UNL     1      85.754  11.525  27.968  0.00  0.00    +0.000 A 
ATOM     14  C   UNL     1      86.489  12.428  30.086  0.00  0.00    +0.000 A 
ATOM     15  C   UNL     1      86.941  10.800  27.865  0.00  0.00    +0.000 A 
ATOM     16  C   UNL     1      87.676  11.703  29.983  0.00  0.00    +0.000 A 
ATOM     17  C   UNL     1      87.902  10.888  28.873  0.00  0.00    +0.000 A 
BRANCH  15  18
ATOM     18  O   UNL     1      87.150  10.007  26.777  0.00  0.00    +0.000 OA
ATOM     19  H   UNL     1      87.716  10.491  26.150  0.00  0.00    +0.000 HD
ENDBRANCH  15  18
BRANCH  17  20
ATOM     20  O   UNL     1      89.065  10.185  28.783  0.00  0.00    +0.000 OA
ATOM     21  H   UNL     1      89.157   9.839  27.878  0.00  0.00    +0.000 HD
ENDBRANCH  17  20
ENDBRANCH   4  12
BRANCH   8  22
ATOM     22  O   UNL     1      79.789  15.365  29.874  0.00  0.00    +0.000 OA
ATOM     23  H   UNL     1      79.949  14.737  30.595  0.00  0.00    +0.000 HD
ENDBRANCH   8  22
BRANCH  11  24
ATOM     24  O   UNL     1      82.259  18.369  27.151  0.00  0.00    +0.000 OA
ATOM     25  H   UNL     1      81.535  18.947  27.446  0.00  0.00    +0.000 HD
ENDBRANCH  11  24
BRANCH   3  26
ATOM     26  O   UNL     1      83.216  11.474  30.583  0.00  0.00    +0.000 OA
BRANCH  26  32
ATOM     27  O   UNL     1      84.763  11.356  32.328  0.00  0.00    +0.000 OA
ATOM     28  C   UNL     1      82.690  10.821  34.236  0.00  0.00    +0.000 C 
ATOM     29  C   UNL     1      84.166  10.570  34.546  0.00  0.00    +0.000 C 
ATOM     30  C   UNL     1      82.429  10.775  32.731  0.00  0.00    +0.000 C 
ATOM     31  C   UNL     1      85.039  11.524  33.724  0.00  0.00    +0.000 C 
ATOM     32  C   UNL     1      83.415  11.674  31.982  0.00  0.00    +0.000 C 
BRANCH  28  33
ATOM     33  O   UNL     1      81.879   9.844  34.883  0.00  0.00    +0.000 OA
ATOM     34  H   UNL     1      82.166   9.797  35.811  0.00  0.00    +0.000 HD
ENDBRANCH  28  33
BRANCH  29  35
ATOM     35  O   UNL     1      84.503   9.222  34.208  0.00  0.00    +0.000 OA
ATOM     36  H   UNL     1      85.393   9.050  34.560  0.00  0.00    +0.000 HD
ENDBRANCH  29  35
BRANCH  30  37
ATOM     37  O   UNL     1      81.105  11.237  32.469  0.00  0.00    +0.000 OA
ATOM     38  H   UNL     1      81.185  12.033  31.916  0.00  0.00    +0.000 HD
ENDBRANCH  30  37
BRANCH  31  39
ATOM     39  C   UNL     1      86.528  11.268  33.926  0.00  0.00    +0.000 C 
BRANCH  39  40
ATOM     40  O   UNL     1      86.730  10.794  35.245  0.00  0.00    +0.000 OA
ATOM     41  H   UNL     1      86.205   9.982  35.349  0.00  0.00    +0.000 HD
ENDBRANCH  39  40
ENDBRANCH  31  39
ENDBRANCH  26  32
ENDBRANCH   3  26
TORSDOF 12
ENDMDL
MODEL 3
REMARK VINA RESULT:    -8.082      1.762      6.059
REMARK INTER + INTRA:         -13.346
REMARK INTER:                 -12.465
REMARK INTRA:                  -0.881
REMARK UNBOUND:                -1.485
REMARK  Name = 5281643
REMARK  12 active torsions:
REMARK  status: ('A' for Active; 'I' for Inactive)
REMARK    1  A    between atoms: O_2  and  C_17
REMARK    2  A    between atoms: O_2  and  C_19
REMARK    3  A    between atoms: O_3  and  C_13
REMARK    4  A    between atoms: O_4  and  C_14
REMARK    5  A    between atoms: O_5  and  C_15
REMARK    6  A    between atoms: O_6  and  C_18
REMARK    7  A    between atoms: O_9  and  C_25
REMARK    8  A    between atoms: O_10  and  C_30
REMARK    9  A    between atoms: O_11  and  C_31
REMARK   10  A    between atoms: O_12  and  C_33
REMARK   11  A    between atoms: C_16  and  C_18
REMARK   12  A    between atoms: C_20  and  C_24
REMARK                            x       y       z     vdW  Elec       q    Type
REMARK                         _______ _______ _______ _____ _____    ______ ____
ROOT
ATOM      1  O   UNL     1      94.162  13.262  38.995  0.00  0.00    +0.000 OA
ATOM      2  O   UNL     1      92.850  14.930  42.473  0.00  0.00    +0.000 OA
ATOM      3  C   UNL     1      92.362  14.278  40.250  0.00  0.00    +0.000 A 
ATOM      4  C   UNL     1      92.862  13.724  39.130  0.00  0.00    +0.000 A 
ATOM      5  C   UNL     1      93.249  14.433  41.429  0.00  0.00    +0.000 A 
ATOM      6  C   UNL     1      94.631  13.955  41.273  0.00  0.00    +0.000 A 
ATOM      7  C   UNL     1      95.017  13.392  40.059  0.00  0.00    +0.000 A 
ATOM      8  C   UNL     1      95.545  14.059  42.324  0.00  0.00    +0.000 A 
ATOM      9  C   UNL     1      96.321  12.928  39.887  0.00  0.00    +0.000 A 
ATOM     10  C   UNL     1      96.849  13.595  42.150  0.00  0.00    +0.000 A 
ATOM     11  C   UNL     1      97.237  13.031  40.935  0.00  0.00    +0.000 A 
ENDROOT
BRANCH   4  12
ATOM     12  C   UNL     1      92.051  13.523  37.916  0.00  0.00    +0.000 A 
ATOM     13  C   UNL     1      92.456  14.088  36.705  0.00  0.00    +0.000 A 
ATOM     14  C   UNL     1      90.879  12.768  37.976  0.00  0.00    +0.000 A 
ATOM     15  C   UNL     1      91.689  13.897  35.556  0.00  0.00    +0.000 A 
ATOM     16  C   UNL     1      90.113  12.578  36.826  0.00  0.00    +0.000 A 
ATOM     17  C   UNL     1      90.517  13.143  35.617  0.00  0.00    +0.000 A 
BRANCH  15  18
ATOM     18  O   UNL     1      92.094  14.454  34.380  0.00  0.00    +0.000 OA
ATOM     19  H   UNL     1      92.191  13.743  33.723  0.00  0.00    +0.000 HD
ENDBRANCH  15  18
BRANCH  17  20
ATOM     20  O   UNL     1      89.760  12.949  34.501  0.00  0.00    +0.000 OA
ATOM     21  H   UNL     1      88.895  12.589  34.764  0.00  0.00    +0.000 HD
ENDBRANCH  17  20
ENDBRANCH   4  12
BRANCH   8  22
ATOM     22  O   UNL     1      95.219  14.600  43.530  0.00  0.00    +0.000 OA
ATOM     23  H   UNL     1      95.884  14.373  44.198  0.00  0.00    +0.000 HD
ENDBRANCH   8  22
BRANCH  11  24
ATOM     24  O   UNL     1      98.509  12.577  40.771  0.00  0.00    +0.000 OA
ATOM     25  H   UNL     1      98.893  12.389  41.645  0.00  0.00    +0.000 HD
ENDBRANCH  11  24
BRANCH   3  26
ATOM     26  O   UNL     1      91.054  14.697  40.363  0.00  0.00    +0.000 OA
BRANCH  26  32
ATOM     27  O   UNL     1      89.710  12.966  41.170  0.00  0.00    +0.000 OA
ATOM     28  C   UNL     1      88.659  14.643  43.245  0.00  0.00    +0.000 C 
ATOM     29  C   UNL     1      87.992  13.326  42.847  0.00  0.00    +0.000 C 
ATOM     30  C   UNL     1      89.483  15.213  42.091  0.00  0.00    +0.000 C 
ATOM     31  C   UNL     1      89.041  12.363  42.284  0.00  0.00    +0.000 C 
ATOM     32  C   UNL     1      90.426  14.150  41.522  0.00  0.00    +0.000 C 
BRANCH  28  33
ATOM     33  O   UNL     1      87.673  15.596  43.633  0.00  0.00    +0.000 OA
ATOM     34  H   UNL     1      87.958  15.981  44.479  0.00  0.00    +0.000 HD
ENDBRANCH  28  33
BRANCH  29  35
ATOM     35  O   UNL     1      87.002  13.575  41.845  0.00  0.00    +0.000 OA
ATOM     36  H   UNL     1      86.355  12.852  41.893  0.00  0.00    +0.000 HD
ENDBRANCH  29  35
BRANCH  30  37
ATOM     37  O   UNL     1      90.267  16.306  42.568  0.00  0.00    +0.000 OA
ATOM     38  H   UNL     1      89.832  17.122  42.267  0.00  0.00    +0.000 HD
ENDBRANCH  30  37
BRANCH  31  39
ATOM     39  C   UNL     1      88.425  11.058  41.790  0.00  0.00    +0.000 C 
BRANCH  39  40
ATOM     40  O   UNL     1      88.087  11.206  40.424  0.00  0.00    +0.000 OA
ATOM     41  H   UNL     1      88.370  10.398  39.961  0.00  0.00    +0.000 HD
ENDBRANCH  39  40
ENDBRANCH  31  39
ENDBRANCH  26  32
ENDBRANCH   3  26
TORSDOF 12
ENDMDL
MODEL 4
REMARK VINA RESULT:    -8.004      1.479      2.243
REMARK INTER + INTRA:         -13.232
REMARK INTER:                 -12.051
REMARK INTRA:                  -1.181
REMARK UNBOUND:                -1.485
REMARK  Name = 5281643
REMARK  12 active torsions:
REMARK  status: ('A' for Active; 'I' for Inactive)
REMARK    1  A    between atoms: O_2  and  C_17
REMARK    2  A    between atoms: O_2  and  C_19
REMARK    3  A    between atoms: O_3  and  C_13
REMARK    4  A    between atoms: O_4  and  C_14
REMARK    5  A    between atoms: O_5  and  C_15
REMARK    6  A    between atoms: O_6  and  C_18
REMARK    7  A    between atoms: O_9  and  C_25
REMARK    8  A    between atoms: O_10  and  C_30
REMARK    9  A    between atoms: O_11  and  C_31
REMARK   10  A    between atoms: O_12  and  C_33
REMARK   11  A    between atoms: C_16  and  C_18
REMARK   12  A    between atoms: C_20  and  C_24
REMARK                            x       y       z     vdW  Elec       q    Type
REMARK                         _______ _______ _______ _____ _____    ______ ____
ROOT
ATOM      1  O   UNL     1      91.523  14.525  38.746  0.00  0.00    +0.000 OA
ATOM      2  O   UNL     1      89.366  11.090  38.363  0.00  0.00    +0.000 OA
ATOM      3  C   UNL     1      90.300  12.725  39.799  0.00  0.00    +0.000 A 
ATOM      4  C   UNL     1      91.024  13.857  39.853  0.00  0.00    +0.000 A 
ATOM      5  C   UNL     1      90.018  12.119  38.475  0.00  0.00    +0.000 A 
ATOM      6  C   UNL     1      90.564  12.824  37.305  0.00  0.00    +0.000 A 
ATOM      7  C   UNL     1      91.291  13.996  37.503  0.00  0.00    +0.000 A 
ATOM      8  C   UNL     1      90.357  12.332  36.014  0.00  0.00    +0.000 A 
ATOM      9  C   UNL     1      91.816  14.684  36.410  0.00  0.00    +0.000 A 
ATOM     10  C   UNL     1      90.884  13.023  34.922  0.00  0.00    +0.000 A 
ATOM     11  C   UNL     1      91.612  14.196  35.119  0.00  0.00    +0.000 A 
ENDROOT
BRANCH   4  12
ATOM     12  C   UNL     1      91.343  14.532  41.124  0.00  0.00    +0.000 A 
ATOM     13  C   UNL     1      90.561  15.603  41.561  0.00  0.00    +0.000 A 
ATOM     14  C   UNL     1      92.426  14.102  41.891  0.00  0.00    +0.000 A 
ATOM     15  C   UNL     1      90.862  16.241  42.764  0.00  0.00    +0.000 A 
ATOM     16  C   UNL     1      92.727  14.740  43.094  0.00  0.00    +0.000 A 
ATOM     17  C   UNL     1      91.946  15.810  43.531  0.00  0.00    +0.000 A 
BRANCH  15  18
ATOM     18  O   UNL     1      90.093  17.285  43.180  0.00  0.00    +0.000 OA
ATOM     19  H   UNL     1      89.894  17.845  42.409  0.00  0.00    +0.000 HD
ENDBRANCH  15  18
BRANCH  17  20
ATOM     20  O   UNL     1      92.249  16.425  44.707  0.00  0.00    +0.000 OA
ATOM     21  H   UNL     1      93.196  16.301  44.894  0.00  0.00    +0.000 HD
ENDBRANCH  17  20
ENDBRANCH   4  12
BRANCH   8  22
ATOM     22  O   UNL     1      89.653  11.193  35.766  0.00  0.00    +0.000 OA
ATOM     23  H   UNL     1      88.706  11.386  35.692  0.00  0.00    +0.000 HD
ENDBRANCH   8  22
BRANCH  11  24
ATOM     24  O   UNL     1      92.121  14.868  34.050  0.00  0.00    +0.000 OA
ATOM     25  H   UNL     1      91.507  14.781  33.301  0.00  0.00    +0.000 HD
ENDBRANCH  11  24
BRANCH   3  26
ATOM     26  O   UNL     1      89.789  12.103  40.918  0.00  0.00    +0.000 OA
BRANCH  26  32
ATOM     27  O   UNL     1      88.863  13.255  42.726  0.00  0.00    +0.000 OA
ATOM     28  C   UNL     1      86.223  12.373  42.038  0.00  0.00    +0.000 C 
ATOM     29  C   UNL     1      86.552  12.962  43.410  0.00  0.00    +0.000 C 
ATOM     30  C   UNL     1      87.467  11.772  41.385  0.00  0.00    +0.000 C 
ATOM     31  C   UNL     1      87.732  13.932  43.288  0.00  0.00    +0.000 C 
ATOM     32  C   UNL     1      88.625  12.772  41.404  0.00  0.00    +0.000 C 
BRANCH  28  33
ATOM     33  O   UNL     1      85.225  11.363  42.164  0.00  0.00    +0.000 OA
ATOM     34  H   UNL     1      84.420  11.693  41.730  0.00  0.00    +0.000 HD
ENDBRANCH  28  33
BRANCH  29  35
ATOM     35  O   UNL     1      86.905  11.910  44.311  0.00  0.00    +0.000 OA
ATOM     36  H   UNL     1      86.118  11.712  44.847  0.00  0.00    +0.000 HD
ENDBRANCH  29  35
BRANCH  30  37
ATOM     37  O   UNL     1      87.173  11.444  40.028  0.00  0.00    +0.000 OA
ATOM     38  H   UNL     1      87.158  10.473  39.966  0.00  0.00    +0.000 HD
ENDBRANCH  30  37
BRANCH  31  39
ATOM     39  C   UNL     1      88.164  14.493  44.639  0.00  0.00    +0.000 C 
BRANCH  39  40
ATOM     40  O   UNL     1      87.006  14.848  45.372  0.00  0.00    +0.000 OA
ATOM     41  H   UNL     1      87.160  14.605  46.301  0.00  0.00    +0.000 HD
ENDBRANCH  39  40
ENDBRANCH  31  39
ENDBRANCH  26  32
ENDBRANCH   3  26
TORSDOF 12
ENDMDL
MODEL 5
REMARK VINA RESULT:    -7.960     15.590     18.176
REMARK INTER + INTRA:         -13.168
REMARK INTER:                 -12.155
REMARK INTRA:                  -1.013
REMARK UNBOUND:                -1.485
REMARK  Name = 5281643
REMARK  12 active torsions:
REMARK  status: ('A' for Active; 'I' for Inactive)
REMARK    1  A    between atoms: O_2  and  C_17
REMARK    2  A    between atoms: O_2  and  C_19
REMARK    3  A    between atoms: O_3  and  C_13
REMARK    4  A    between atoms: O_4  and  C_14
REMARK    5  A    between atoms: O_5  and  C_15
REMARK    6  A    between atoms: O_6  and  C_18
REMARK    7  A    between atoms: O_9  and  C_25
REMARK    8  A    between atoms: O_10  and  C_30
REMARK    9  A    between atoms: O_11  and  C_31
REMARK   10  A    between atoms: O_12  and  C_33
REMARK   11  A    between atoms: C_16  and  C_18
REMARK   12  A    between atoms: C_20  and  C_24
REMARK                            x       y       z     vdW  Elec       q    Type
REMARK                         _______ _______ _______ _____ _____    ______ ____
ROOT
ATOM      1  O   UNL     1      81.739  27.643  37.653  0.00  0.00    +0.000 OA
ATOM      2  O   UNL     1      82.831  23.870  36.571  0.00  0.00    +0.000 OA
ATOM      3  C   UNL     1      81.245  25.621  36.423  0.00  0.00    +0.000 A 
ATOM      4  C   UNL     1      80.942  26.869  36.824  0.00  0.00    +0.000 A 
ATOM      5  C   UNL     1      82.504  25.002  36.901  0.00  0.00    +0.000 A 
ATOM      6  C   UNL     1      83.337  25.823  37.793  0.00  0.00    +0.000 A 
ATOM      7  C   UNL     1      82.910  27.106  38.123  0.00  0.00    +0.000 A 
ATOM      8  C   UNL     1      84.542  25.329  38.301  0.00  0.00    +0.000 A 
ATOM      9  C   UNL     1      83.684  27.906  38.964  0.00  0.00    +0.000 A 
ATOM     10  C   UNL     1      85.314  26.130  39.142  0.00  0.00    +0.000 A 
ATOM     11  C   UNL     1      84.886  27.416  39.473  0.00  0.00    +0.000 A 
ENDROOT
BRANCH   4  12
ATOM     12  C   UNL     1      79.717  27.565  36.390  0.00  0.00    +0.000 A 
ATOM     13  C   UNL     1      79.762  28.448  35.310  0.00  0.00    +0.000 A 
ATOM     14  C   UNL     1      78.513  27.341  37.058  0.00  0.00    +0.000 A 
ATOM     15  C   UNL     1      78.603  29.106  34.899  0.00  0.00    +0.000 A 
ATOM     16  C   UNL     1      77.354  27.998  36.646  0.00  0.00    +0.000 A 
ATOM     17  C   UNL     1      77.399  28.881  35.567  0.00  0.00    +0.000 A 
BRANCH  15  18
ATOM     18  O   UNL     1      78.659  29.966  33.844  0.00  0.00    +0.000 OA
ATOM     19  H   UNL     1      77.784  29.986  33.419  0.00  0.00    +0.000 HD
ENDBRANCH  15  18
BRANCH  17  20
ATOM     20  O   UNL     1      76.260  29.517  35.174  0.00  0.00    +0.000 OA
ATOM     21  H   UNL     1      76.270  29.615  34.206  0.00  0.00    +0.000 HD
ENDBRANCH  17  20
ENDBRANCH   4  12
BRANCH   8  22
ATOM     22  O   UNL     1      85.005  24.082  38.008  0.00  0.00    +0.000 OA
ATOM     23  H   UNL     1      85.345  24.048  37.100  0.00  0.00    +0.000 HD
ENDBRANCH   8  22
BRANCH  11  24
ATOM     24  O   UNL     1      85.645  28.194  40.292  0.00  0.00    +0.000 OA
ATOM     25  H   UNL     1      86.501  28.363  39.863  0.00  0.00    +0.000 HD
ENDBRANCH  11  24
BRANCH   3  26
ATOM     26  O   UNL     1      80.446  24.890  35.570  0.00  0.00    +0.000 OA
BRANCH  26  32
ATOM     27  O   UNL     1      79.234  25.582  33.698  0.00  0.00    +0.000 OA
ATOM     28  C   UNL     1      81.299  24.677  31.927  0.00  0.00    +0.000 C 
ATOM     29  C   UNL     1      79.888  24.996  31.435  0.00  0.00    +0.000 C 
ATOM     30  C   UNL     1      81.294  24.310  33.411  0.00  0.00    +0.000 C 
ATOM     31  C   UNL     1      79.247  26.050  32.344  0.00  0.00    +0.000 C 
ATOM     32  C   UNL     1      80.541  25.363  34.227  0.00  0.00    +0.000 C 
BRANCH  28  33
ATOM     33  O   UNL     1      81.848  23.596  31.178  0.00  0.00    +0.000 OA
ATOM     34  H   UNL     1      82.089  23.941  30.302  0.00  0.00    +0.000 HD
ENDBRANCH  28  33
BRANCH  29  35
ATOM     35  O   UNL     1      79.091  23.809  31.463  0.00  0.00    +0.000 OA
ATOM     36  H   UNL     1      79.454  23.201  30.797  0.00  0.00    +0.000 HD
ENDBRANCH  29  35
BRANCH  30  37
ATOM     37  O   UNL     1      82.639  24.245  33.884  0.00  0.00    +0.000 OA
ATOM     38  H   UNL     1      82.597  24.184  34.853  0.00  0.00    +0.000 HD
ENDBRANCH  30  37
BRANCH  31  39
ATOM     39  C   UNL     1      77.804  26.353  31.954  0.00  0.00    +0.000 C 
BRANCH  39  40
ATOM     40  O   UNL     1      77.641  27.757  31.880  0.00  0.00    +0.000 OA
ATOM     41  H   UNL     1      77.080  27.948  31.109  0.00  0.00    +0.000 HD
ENDBRANCH  39  40
ENDBRANCH  31  39
ENDBRANCH  26  32
ENDBRANCH   3  26
TORSDOF 12
ENDMDL
MODEL 6
REMARK VINA RESULT:    -7.948     10.992     13.702
REMARK INTER + INTRA:         -13.150
REMARK INTER:                 -11.588
REMARK INTRA:                  -1.562
REMARK UNBOUND:                -1.485
REMARK  Name = 5281643
REMARK  12 active torsions:
REMARK  status: ('A' for Active; 'I' for Inactive)
REMARK    1  A    between atoms: O_2  and  C_17
REMARK    2  A    between atoms: O_2  and  C_19
REMARK    3  A    between atoms: O_3  and  C_13
REMARK    4  A    between atoms: O_4  and  C_14
REMARK    5  A    between atoms: O_5  and  C_15
REMARK    6  A    between atoms: O_6  and  C_18
REMARK    7  A    between atoms: O_9  and  C_25
REMARK    8  A    between atoms: O_10  and  C_30
REMARK    9  A    between atoms: O_11  and  C_31
REMARK   10  A    between atoms: O_12  and  C_33
REMARK   11  A    between atoms: C_16  and  C_18
REMARK   12  A    between atoms: C_20  and  C_24
REMARK                            x       y       z     vdW  Elec       q    Type
REMARK                         _______ _______ _______ _____ _____    ______ ____
ROOT
ATOM      1  O   UNL     1      84.663  13.003  27.986  0.00  0.00    +0.000 OA
ATOM      2  O   UNL     1      85.992  11.505  31.534  0.00  0.00    +0.000 OA
ATOM      3  C   UNL     1      84.542  12.994  30.401  0.00  0.00    +0.000 A 
ATOM      4  C   UNL     1      84.154  13.449  29.195  0.00  0.00    +0.000 A 
ATOM      5  C   UNL     1      85.599  11.955  30.467  0.00  0.00    +0.000 A 
ATOM      6  C   UNL     1      86.144  11.497  29.181  0.00  0.00    +0.000 A 
ATOM      7  C   UNL     1      85.646  12.047  28.002  0.00  0.00    +0.000 A 
ATOM      8  C   UNL     1      87.146  10.524  29.135  0.00  0.00    +0.000 A 
ATOM      9  C   UNL     1      86.145  11.627  26.769  0.00  0.00    +0.000 A 
ATOM     10  C   UNL     1      87.644  10.105  27.901  0.00  0.00    +0.000 A 
ATOM     11  C   UNL     1      87.145  10.655  26.720  0.00  0.00    +0.000 A 
ENDROOT
BRANCH   4  12
ATOM     12  C   UNL     1      83.106  14.473  29.036  0.00  0.00    +0.000 A 
ATOM     13  C   UNL     1      83.445  15.827  29.053  0.00  0.00    +0.000 A 
ATOM     14  C   UNL     1      81.775  14.089  28.867  0.00  0.00    +0.000 A 
ATOM     15  C   UNL     1      82.453  16.796  28.901  0.00  0.00    +0.000 A 
ATOM     16  C   UNL     1      80.784  15.058  28.715  0.00  0.00    +0.000 A 
ATOM     17  C   UNL     1      81.122  16.412  28.733  0.00  0.00    +0.000 A 
BRANCH  15  18
ATOM     18  O   UNL     1      82.795  18.114  28.921  0.00  0.00    +0.000 OA
ATOM     19  H   UNL     1      83.244  18.326  28.084  0.00  0.00    +0.000 HD
ENDBRANCH  15  18
BRANCH  17  20
ATOM     20  O   UNL     1      80.145  17.349  28.583  0.00  0.00    +0.000 OA
ATOM     21  H   UNL     1      79.655  17.431  29.420  0.00  0.00    +0.000 HD
ENDBRANCH  17  20
ENDBRANCH   4  12
BRANCH   8  22
ATOM     22  O   UNL     1      87.667   9.954  30.258  0.00  0.00    +0.000 OA
ATOM     23  H   UNL     1      87.033   9.338  30.654  0.00  0.00    +0.000 HD
ENDBRANCH   8  22
BRANCH  11  24
ATOM     24  O   UNL     1      87.632  10.241  25.519  0.00  0.00    +0.000 OA
ATOM     25  H   UNL     1      87.411   9.302  25.395  0.00  0.00    +0.000 HD
ENDBRANCH  11  24
BRANCH   3  26
ATOM     26  O   UNL     1      83.992  13.436  31.585  0.00  0.00    +0.000 OA
BRANCH  26  32
ATOM     27  O   UNL     1      81.719  12.967  31.835  0.00  0.00    +0.000 OA
ATOM     28  C   UNL     1      82.204  11.509  34.256  0.00  0.00    +0.000 C 
ATOM     29  C   UNL     1      80.807  11.988  33.860  0.00  0.00    +0.000 C 
ATOM     30  C   UNL     1      83.285  12.373  33.607  0.00  0.00    +0.000 C 
ATOM     31  C   UNL     1      80.705  12.087  32.335  0.00  0.00    +0.000 C 
ATOM     32  C   UNL     1      83.042  12.505  32.101  0.00  0.00    +0.000 C 
BRANCH  28  33
ATOM     33  O   UNL     1      82.355  11.552  35.672  0.00  0.00    +0.000 OA
ATOM     34  H   UNL     1      81.479  11.396  36.063  0.00  0.00    +0.000 HD
ENDBRANCH  28  33
BRANCH  29  35
ATOM     35  O   UNL     1      80.563  13.277  34.429  0.00  0.00    +0.000 OA
ATOM     36  H   UNL     1      81.429  13.690  34.588  0.00  0.00    +0.000 HD
ENDBRANCH  29  35
BRANCH  30  37
ATOM     37  O   UNL     1      84.559  11.762  33.810  0.00  0.00    +0.000 OA
ATOM     38  H   UNL     1      84.743  11.798  34.764  0.00  0.00    +0.000 HD
ENDBRANCH  30  37
BRANCH  31  39
ATOM     39  C   UNL     1      79.358  12.639  31.878  0.00  0.00    +0.000 C 
BRANCH  39  40
ATOM     40  O   UNL     1      79.432  14.053  31.862  0.00  0.00    +0.000 OA
ATOM     41  H   UNL     1      78.522  14.394  31.812  0.00  0.00    +0.000 HD
ENDBRANCH  39  40
ENDBRANCH  31  39
ENDBRANCH  26  32
ENDBRANCH   3  26
TORSDOF 12
ENDMDL
MODEL 7
REMARK VINA RESULT:    -7.886      1.701      5.042
REMARK INTER + INTRA:         -13.059
REMARK INTER:                 -11.976
REMARK INTRA:                  -1.083
REMARK UNBOUND:                -1.485
REMARK  Name = 5281643
REMARK  12 active torsions:
REMARK  status: ('A' for Active; 'I' for Inactive)
REMARK    1  A    between atoms: O_2  and  C_17
REMARK    2  A    between atoms: O_2  and  C_19
REMARK    3  A    between atoms: O_3  and  C_13
REMARK    4  A    between atoms: O_4  and  C_14
REMARK    5  A    between atoms: O_5  and  C_15
REMARK    6  A    between atoms: O_6  and  C_18
REMARK    7  A    between atoms: O_9  and  C_25
REMARK    8  A    between atoms: O_10  and  C_30
REMARK    9  A    between atoms: O_11  and  C_31
REMARK   10  A    between atoms: O_12  and  C_33
REMARK   11  A    between atoms: C_16  and  C_18
REMARK   12  A    between atoms: C_20  and  C_24
REMARK                            x       y       z     vdW  Elec       q    Type
REMARK                         _______ _______ _______ _____ _____    ______ ____
ROOT
ATOM      1  O   UNL     1      89.562  13.348  38.740  0.00  0.00    +0.000 OA
ATOM      2  O   UNL     1      93.008  14.330  36.800  0.00  0.00    +0.000 OA
ATOM      3  C   UNL     1      91.798  14.264  38.834  0.00  0.00    +0.000 A 
ATOM      4  C   UNL     1      90.631  13.921  39.411  0.00  0.00    +0.000 A 
ATOM      5  C   UNL     1      91.970  14.038  37.379  0.00  0.00    +0.000 A 
ATOM      6  C   UNL     1      90.826  13.443  36.671  0.00  0.00    +0.000 A 
ATOM      7  C   UNL     1      89.677  13.127  37.392  0.00  0.00    +0.000 A 
ATOM      8  C   UNL     1      90.887  13.194  35.298  0.00  0.00    +0.000 A 
ATOM      9  C   UNL     1      88.580  12.559  36.745  0.00  0.00    +0.000 A 
ATOM     10  C   UNL     1      89.789  12.626  34.652  0.00  0.00    +0.000 A 
ATOM     11  C   UNL     1      88.637  12.309  35.373  0.00  0.00    +0.000 A 
ENDROOT
BRANCH   4  12
ATOM     12  C   UNL     1      90.377  14.102  40.851  0.00  0.00    +0.000 A 
ATOM     13  C   UNL     1      90.180  15.383  41.370  0.00  0.00    +0.000 A 
ATOM     14  C   UNL     1      90.333  12.993  41.697  0.00  0.00    +0.000 A 
ATOM     15  C   UNL     1      89.939  15.554  42.733  0.00  0.00    +0.000 A 
ATOM     16  C   UNL     1      90.091  13.164  43.060  0.00  0.00    +0.000 A 
ATOM     17  C   UNL     1      89.895  14.444  43.578  0.00  0.00    +0.000 A 
BRANCH  15  18
ATOM     18  O   UNL     1      89.750  16.808  43.228  0.00  0.00    +0.000 OA
ATOM     19  H   UNL     1      90.606  17.145  43.545  0.00  0.00    +0.000 HD
ENDBRANCH  15  18
BRANCH  17  20
ATOM     20  O   UNL     1      89.660  14.599  44.911  0.00  0.00    +0.000 OA
ATOM     21  H   UNL     1      88.749  14.315  45.106  0.00  0.00    +0.000 HD
ENDBRANCH  17  20
ENDBRANCH   4  12
BRANCH   8  22
ATOM     22  O   UNL     1      91.986  13.482  34.547  0.00  0.00    +0.000 OA
ATOM     23  H   UNL     1      92.781  13.509  35.101  0.00  0.00    +0.000 HD
ENDBRANCH   8  22
BRANCH  11  24
ATOM     24  O   UNL     1      87.570  11.752  34.739  0.00  0.00    +0.000 OA
ATOM     25  H   UNL     1      86.759  12.205  35.028  0.00  0.00    +0.000 HD
ENDBRANCH  11  24
BRANCH   3  26
ATOM     26  O   UNL     1      92.854  14.802  39.536  0.00  0.00    +0.000 OA
BRANCH  26  32
ATOM     27  O   UNL     1      93.558  14.346  41.716  0.00  0.00    +0.000 OA
ATOM     28  C   UNL     1      95.634  12.610  40.768  0.00  0.00    +0.000 C 
ATOM     29  C   UNL     1      95.617  13.154  42.196  0.00  0.00    +0.000 C 
ATOM     30  C   UNL     1      94.856  13.525  39.822  0.00  0.00    +0.000 C 
ATOM     31  C   UNL     1      94.174  13.432  42.630  0.00  0.00    +0.000 C 
ATOM     32  C   UNL     1      93.467  13.834  40.387  0.00  0.00    +0.000 C 
BRANCH  28  33
ATOM     33  O   UNL     1      96.975  12.487  40.304  0.00  0.00    +0.000 OA
ATOM     34  H   UNL     1      97.391  13.362  40.381  0.00  0.00    +0.000 HD
ENDBRANCH  28  33
BRANCH  29  35
ATOM     35  O   UNL     1      96.363  14.373  42.252  0.00  0.00    +0.000 OA
ATOM     36  H   UNL     1      97.304  14.134  42.303  0.00  0.00    +0.000 HD
ENDBRANCH  29  35
BRANCH  30  37
ATOM     37  O   UNL     1      94.699  12.873  38.562  0.00  0.00    +0.000 OA
ATOM     38  H   UNL     1      95.050  13.476  37.884  0.00  0.00    +0.000 HD
ENDBRANCH  30  37
BRANCH  31  39
ATOM     39  C   UNL     1      94.095  14.055  44.019  0.00  0.00    +0.000 C 
BRANCH  39  40
ATOM     40  O   UNL     1      94.452  15.422  43.922  0.00  0.00    +0.000 OA
ATOM     41  H   UNL     1      93.811  15.853  43.332  0.00  0.00    +0.000 HD
ENDBRANCH  39  40
ENDBRANCH  31  39
ENDBRANCH  26  32
ENDBRANCH   3  26
TORSDOF 12
ENDMDL
MODEL 8
REMARK VINA RESULT:    -7.720     16.541     18.847
REMARK INTER + INTRA:         -12.815
REMARK INTER:                 -11.330
REMARK INTRA:                  -1.485
REMARK UNBOUND:                -1.485
REMARK  Name = 5281643
REMARK  12 active torsions:
REMARK  status: ('A' for Active; 'I' for Inactive)
REMARK    1  A    between atoms: O_2  and  C_17
REMARK    2  A    between atoms: O_2  and  C_19
REMARK    3  A    between atoms: O_3  and  C_13
REMARK    4  A    between atoms: O_4  and  C_14
REMARK    5  A    between atoms: O_5  and  C_15
REMARK    6  A    between atoms: O_6  and  C_18
REMARK    7  A    between atoms: O_9  and  C_25
REMARK    8  A    between atoms: O_10  and  C_30
REMARK    9  A    between atoms: O_11  and  C_31
REMARK   10  A    between atoms: O_12  and  C_33
REMARK   11  A    between atoms: C_16  and  C_18
REMARK   12  A    between atoms: C_20  and  C_24
REMARK                            x       y       z     vdW  Elec       q    Type
REMARK                         _______ _______ _______ _____ _____    ______ ____
ROOT
ATOM      1  O   UNL     1      78.685  27.443  38.569  0.00  0.00    +0.000 OA
ATOM      2  O   UNL     1      77.389  29.032  35.048  0.00  0.00    +0.000 OA
ATOM      3  C   UNL     1      79.109  27.922  36.238  0.00  0.00    +0.000 A 
ATOM      4  C   UNL     1      79.476  27.423  37.432  0.00  0.00    +0.000 A 
ATOM      5  C   UNL     1      77.777  28.560  36.108  0.00  0.00    +0.000 A 
ATOM      6  C   UNL     1      76.948  28.592  37.323  0.00  0.00    +0.000 A 
ATOM      7  C   UNL     1      77.448  28.029  38.495  0.00  0.00    +0.000 A 
ATOM      8  C   UNL     1      75.678  29.174  37.307  0.00  0.00    +0.000 A 
ATOM      9  C   UNL     1      76.680  28.044  39.660  0.00  0.00    +0.000 A 
ATOM     10  C   UNL     1      74.912  29.188  38.473  0.00  0.00    +0.000 A 
ATOM     11  C   UNL     1      75.412  28.625  39.647  0.00  0.00    +0.000 A 
ENDROOT
BRANCH   4  12
ATOM     12  C   UNL     1      80.777  26.764  37.648  0.00  0.00    +0.000 A 
ATOM     13  C   UNL     1      81.948  27.523  37.669  0.00  0.00    +0.000 A 
ATOM     14  C   UNL     1      80.839  25.383  37.831  0.00  0.00    +0.000 A 
ATOM     15  C   UNL     1      83.179  26.900  37.874  0.00  0.00    +0.000 A 
ATOM     16  C   UNL     1      82.070  24.760  38.037  0.00  0.00    +0.000 A 
ATOM     17  C   UNL     1      83.240  25.518  38.058  0.00  0.00    +0.000 A 
BRANCH  15  18
ATOM     18  O   UNL     1      84.316  27.651  37.892  0.00  0.00    +0.000 OA
ATOM     19  H   UNL     1      85.002  27.180  37.387  0.00  0.00    +0.000 HD
ENDBRANCH  15  18
BRANCH  17  20
ATOM     20  O   UNL     1      84.436  24.899  38.260  0.00  0.00    +0.000 OA
ATOM     21  H   UNL     1      85.047  25.150  37.545  0.00  0.00    +0.000 HD
ENDBRANCH  17  20
ENDBRANCH   4  12
BRANCH   8  22
ATOM     22  O   UNL     1      75.143  29.737  36.188  0.00  0.00    +0.000 OA
ATOM     23  H   UNL     1      74.860  30.648  36.365  0.00  0.00    +0.000 HD
ENDBRANCH   8  22
BRANCH  11  24
ATOM     24  O   UNL     1      74.659  28.638  40.781  0.00  0.00    +0.000 OA
ATOM     25  H   UNL     1      75.025  27.994  41.411  0.00  0.00    +0.000 HD
ENDBRANCH  11  24
BRANCH   3  26
ATOM     26  O   UNL     1      79.907  27.856  35.116  0.00  0.00    +0.000 OA
BRANCH  26  32
ATOM     27  O   UNL     1      81.114  25.908  34.667  0.00  0.00    +0.000 OA
ATOM     28  C   UNL     1      79.595  25.421  32.284  0.00  0.00    +0.000 C 
ATOM     29  C   UNL     1      80.922  24.714  32.562  0.00  0.00    +0.000 C 
ATOM     30  C   UNL     1      79.515  26.752  33.031  0.00  0.00    +0.000 C 
ATOM     31  C   UNL     1      81.145  24.605  34.074  0.00  0.00    +0.000 C 
ATOM     32  C   UNL     1      79.857  26.564  34.511  0.00  0.00    +0.000 C 
BRANCH  28  33
ATOM     33  O   UNL     1      79.448  25.658  30.887  0.00  0.00    +0.000 OA
ATOM     34  H   UNL     1      79.677  26.588  30.724  0.00  0.00    +0.000 HD
ENDBRANCH  28  33
BRANCH  29  35
ATOM     35  O   UNL     1      81.994  25.465  31.986  0.00  0.00    +0.000 OA
ATOM     36  H   UNL     1      82.161  25.098  31.101  0.00  0.00    +0.000 HD
ENDBRANCH  29  35
BRANCH  30  37
ATOM     37  O   UNL     1      78.187  27.266  32.934  0.00  0.00    +0.000 OA
ATOM     38  H   UNL     1      78.199  27.959  32.252  0.00  0.00    +0.000 HD
ENDBRANCH  30  37
BRANCH  31  39
ATOM     39  C   UNL     1      82.493  23.981  34.418  0.00  0.00    +0.000 C 
BRANCH  39  40
ATOM     40  O   UNL     1      83.437  25.019  34.605  0.00  0.00    +0.000 OA
ATOM     41  H   UNL     1      83.870  25.181  33.749  0.00  0.00    +0.000 HD
ENDBRANCH  39  40
ENDBRANCH  31  39
ENDBRANCH  26  32
ENDBRANCH   3  26
TORSDOF 12
ENDMDL
MODEL 9
REMARK VINA RESULT:    -7.689      2.157      6.085
REMARK INTER + INTRA:         -12.769
REMARK INTER:                 -11.292
REMARK INTRA:                  -1.477
REMARK UNBOUND:                -1.485
REMARK  Name = 5281643
REMARK  12 active torsions:
REMARK  status: ('A' for Active; 'I' for Inactive)
REMARK    1  A    between atoms: O_2  and  C_17
REMARK    2  A    between atoms: O_2  and  C_19
REMARK    3  A    between atoms: O_3  and  C_13
REMARK    4  A    between atoms: O_4  and  C_14
REMARK    5  A    between atoms: O_5  and  C_15
REMARK    6  A    between atoms: O_6  and  C_18
REMARK    7  A    between atoms: O_9  and  C_25
REMARK    8  A    between atoms: O_10  and  C_30
REMARK    9  A    between atoms: O_11  and  C_31
REMARK   10  A    between atoms: O_12  and  C_33
REMARK   11  A    between atoms: C_16  and  C_18
REMARK   12  A    between atoms: C_20  and  C_24
REMARK                            x       y       z     vdW  Elec       q    Type
REMARK                         _______ _______ _______ _____ _____    ______ ____
ROOT
ATOM      1  O   UNL     1      94.225  12.195  39.546  0.00  0.00    +0.000 OA
ATOM      2  O   UNL     1      94.925  14.804  42.596  0.00  0.00    +0.000 OA
ATOM      3  C   UNL     1      93.481  14.079  40.865  0.00  0.00    +0.000 A 
ATOM      4  C   UNL     1      93.316  13.190  39.869  0.00  0.00    +0.000 A 
ATOM      5  C   UNL     1      94.720  14.022  41.678  0.00  0.00    +0.000 A 
ATOM      6  C   UNL     1      95.687  12.973  41.319  0.00  0.00    +0.000 A 
ATOM      7  C   UNL     1      95.388  12.110  40.267  0.00  0.00    +0.000 A 
ATOM      8  C   UNL     1      96.888  12.839  42.021  0.00  0.00    +0.000 A 
ATOM      9  C   UNL     1      96.287  11.106  39.910  0.00  0.00    +0.000 A 
ATOM     10  C   UNL     1      97.786  11.833  41.662  0.00  0.00    +0.000 A 
ATOM     11  C   UNL     1      97.487  10.969  40.609  0.00  0.00    +0.000 A 
ENDROOT
BRANCH   4  12
ATOM     12  C   UNL     1      92.112  13.168  39.019  0.00  0.00    +0.000 A 
ATOM     13  C   UNL     1      92.063  13.945  37.860  0.00  0.00    +0.000 A 
ATOM     14  C   UNL     1      91.023  12.370  39.371  0.00  0.00    +0.000 A 
ATOM     15  C   UNL     1      90.924  13.923  37.055  0.00  0.00    +0.000 A 
ATOM     16  C   UNL     1      89.885  12.349  38.565  0.00  0.00    +0.000 A 
ATOM     17  C   UNL     1      89.835  13.126  37.408  0.00  0.00    +0.000 A 
BRANCH  15  18
ATOM     18  O   UNL     1      90.886  14.687  35.927  0.00  0.00    +0.000 OA
ATOM     19  H   UNL     1      91.159  15.591  36.160  0.00  0.00    +0.000 HD
ENDBRANCH  15  18
BRANCH  17  20
ATOM     20  O   UNL     1      88.718  13.096  36.629  0.00  0.00    +0.000 OA
ATOM     21  H   UNL     1      88.983  12.992  35.698  0.00  0.00    +0.000 HD
ENDBRANCH  17  20
ENDBRANCH   4  12
BRANCH   8  22
ATOM     22  O   UNL     1      97.228  13.655  43.057  0.00  0.00    +0.000 OA
ATOM     23  H   UNL     1      96.924  13.283  43.899  0.00  0.00    +0.000 HD
ENDBRANCH   8  22
BRANCH  11  24
ATOM     24  O   UNL     1      98.365   9.988  40.265  0.00  0.00    +0.000 OA
ATOM     25  H   UNL     1      98.093   9.156  40.689  0.00  0.00    +0.000 HD
ENDBRANCH  11  24
BRANCH   3  26
ATOM     26  O   UNL     1      92.542  15.036  41.183  0.00  0.00    +0.000 OA
BRANCH  26  32
ATOM     27  O   UNL     1      90.489  14.212  41.932  0.00  0.00    +0.000 OA
ATOM     28  C   UNL     1      90.744  15.613  44.421  0.00  0.00    +0.000 C 
ATOM     29  C   UNL     1      89.410  15.038  43.943  0.00  0.00    +0.000 C 
ATOM     30  C   UNL     1      91.676  15.891  43.242  0.00  0.00    +0.000 C 
ATOM     31  C   UNL     1      89.660  13.829  43.036  0.00  0.00    +0.000 C 
ATOM     32  C   UNL     1      91.782  14.664  42.333  0.00  0.00    +0.000 C 
BRANCH  28  33
ATOM     33  O   UNL     1      90.528  16.821  45.144  0.00  0.00    +0.000 OA
ATOM     34  H   UNL     1      91.281  16.937  45.749  0.00  0.00    +0.000 HD
ENDBRANCH  28  33
BRANCH  29  35
ATOM     35  O   UNL     1      88.697  16.034  43.206  0.00  0.00    +0.000 OA
ATOM     36  H   UNL     1      87.751  15.819  43.270  0.00  0.00    +0.000 HD
ENDBRANCH  29  35
BRANCH  30  37
ATOM     37  O   UNL     1      92.978  16.204  43.736  0.00  0.00    +0.000 OA
ATOM     38  H   UNL     1      93.515  15.397  43.655  0.00  0.00    +0.000 HD
ENDBRANCH  30  37
BRANCH  31  39
ATOM     39  C   UNL     1      88.369  13.259  42.459  0.00  0.00    +0.000 C 
BRANCH  39  40
ATOM     40  O   UNL     1      87.978  14.054  41.355  0.00  0.00    +0.000 OA
ATOM     41  H   UNL     1      88.526  13.794  40.596  0.00  0.00    +0.000 HD
ENDBRANCH  39  40
ENDBRANCH  31  39
ENDBRANCH  26  32
ENDBRANCH   3  26
TORSDOF 12
ENDMDL
MODEL 10
REMARK VINA RESULT:    -7.599     10.373     15.047
REMARK INTER + INTRA:         -12.638
REMARK INTER:                 -11.280
REMARK INTRA:                  -1.358
REMARK UNBOUND:                -1.485
REMARK  Name = 5281643
REMARK  12 active torsions:
REMARK  status: ('A' for Active; 'I' for Inactive)
REMARK    1  A    between atoms: O_2  and  C_17
REMARK    2  A    between atoms: O_2  and  C_19
REMARK    3  A    between atoms: O_3  and  C_13
REMARK    4  A    between atoms: O_4  and  C_14
REMARK    5  A    between atoms: O_5  and  C_15
REMARK    6  A    between atoms: O_6  and  C_18
REMARK    7  A    between atoms: O_9  and  C_25
REMARK    8  A    between atoms: O_10  and  C_30
REMARK    9  A    between atoms: O_11  and  C_31
REMARK   10  A    between atoms: O_12  and  C_33
REMARK   11  A    between atoms: C_16  and  C_18
REMARK   12  A    between atoms: C_20  and  C_24
REMARK                            x       y       z     vdW  Elec       q    Type
REMARK                         _______ _______ _______ _____ _____    ______ ____
ROOT
ATOM      1  O   UNL     1      83.173  12.568  32.107  0.00  0.00    +0.000 OA
ATOM      2  O   UNL     1      84.520  13.143  28.305  0.00  0.00    +0.000 OA
ATOM      3  C   UNL     1      82.758  13.381  29.869  0.00  0.00    +0.000 A 
ATOM      4  C   UNL     1      82.375  13.155  31.139  0.00  0.00    +0.000 A 
ATOM      5  C   UNL     1      84.117  12.965  29.447  0.00  0.00    +0.000 A 
ATOM      6  C   UNL     1      84.953  12.328  30.476  0.00  0.00    +0.000 A 
ATOM      7  C   UNL     1      84.436  12.163  31.758  0.00  0.00    +0.000 A 
ATOM      8  C   UNL     1      86.249  11.897  30.178  0.00  0.00    +0.000 A 
ATOM      9  C   UNL     1      85.210  11.565  32.752  0.00  0.00    +0.000 A 
ATOM     10  C   UNL     1      87.021  11.299  31.174  0.00  0.00    +0.000 A 
ATOM     11  C   UNL     1      86.503  11.133  32.458  0.00  0.00    +0.000 A 
ENDROOT
BRANCH   4  12
ATOM     12  C   UNL     1      81.047  13.544  31.646  0.00  0.00    +0.000 A 
ATOM     13  C   UNL     1      79.904  12.893  31.178  0.00  0.00    +0.000 A 
ATOM     14  C   UNL     1      80.931  14.561  32.593  0.00  0.00    +0.000 A 
ATOM     15  C   UNL     1      78.647  13.260  31.658  0.00  0.00    +0.000 A 
ATOM     16  C   UNL     1      79.674  14.928  33.073  0.00  0.00    +0.000 A 
ATOM     17  C   UNL     1      78.532  14.278  32.606  0.00  0.00    +0.000 A 
BRANCH  15  18
ATOM     18  O   UNL     1      77.538  12.618  31.194  0.00  0.00    +0.000 OA
ATOM     19  H   UNL     1      77.627  11.670  31.395  0.00  0.00    +0.000 HD
ENDBRANCH  15  18
BRANCH  17  20
ATOM     20  O   UNL     1      77.310  14.644  33.083  0.00  0.00    +0.000 OA
ATOM     21  H   UNL     1      76.926  13.898  33.577  0.00  0.00    +0.000 HD
ENDBRANCH  17  20
ENDBRANCH   4  12
BRANCH   8  22
ATOM     22  O   UNL     1      86.803  12.037  28.941  0.00  0.00    +0.000 OA
ATOM     23  H   UNL     1      87.555  11.435  28.834  0.00  0.00    +0.000 HD
ENDBRANCH   8  22
BRANCH  11  24
ATOM     24  O   UNL     1      87.262  10.552  33.427  0.00  0.00    +0.000 OA
ATOM     25  H   UNL     1      88.005  11.142  33.643  0.00  0.00    +0.000 HD
ENDBRANCH  11  24
BRANCH   3  26
ATOM     26  O   UNL     1      81.951  13.998  28.938  0.00  0.00    +0.000 OA
BRANCH  26  32
ATOM     27  O   UNL     1      80.477  15.722  29.494  0.00  0.00    +0.000 OA
ATOM     28  C   UNL     1      82.067  17.645  28.080  0.00  0.00    +0.000 C 
ATOM     29  C   UNL     1      80.625  17.932  28.501  0.00  0.00    +0.000 C 
ATOM     30  C   UNL     1      82.309  16.142  27.940  0.00  0.00    +0.000 C 
ATOM     31  C   UNL     1      80.277  17.117  29.751  0.00  0.00    +0.000 C 
ATOM     32  C   UNL     1      81.834  15.398  29.191  0.00  0.00    +0.000 C 
BRANCH  28  33
ATOM     33  O   UNL     1      82.353  18.284  26.839  0.00  0.00    +0.000 OA
ATOM     34  H   UNL     1      83.257  18.637  26.896  0.00  0.00    +0.000 HD
ENDBRANCH  28  33
BRANCH  29  35
ATOM     35  O   UNL     1      79.736  17.566  27.443  0.00  0.00    +0.000 OA
ATOM     36  H   UNL     1      80.220  16.963  26.854  0.00  0.00    +0.000 HD
ENDBRANCH  29  35
BRANCH  30  37
ATOM     37  O   UNL     1      83.707  15.905  27.775  0.00  0.00    +0.000 OA
ATOM     38  H   UNL     1      84.084  15.797  28.665  0.00  0.00    +0.000 HD
ENDBRANCH  30  37
BRANCH  31  39
ATOM     39  C   UNL     1      78.823  17.297  30.174  0.00  0.00    +0.000 C 
BRANCH  39  40
ATOM     40  O   UNL     1      78.068  16.211  29.671  0.00  0.00    +0.000 OA
ATOM     41  H   UNL     1      77.985  16.331  28.709  0.00  0.00    +0.000 HD
ENDBRANCH  39  40
ENDBRANCH  31  39
ENDBRANCH  26  32
ENDBRANCH   3  26
TORSDOF 12
ENDMDL
