MODEL 1
REMARK VINA RESULT:      -7.9      0.000      0.000
REMARK  13 active torsions:
REMARK  status: ('A' for Active; 'I' for Inactive)
REMARK    1  A    between atoms: O_2  and  C_16 
REMARK    2  A    between atoms: O_2  and  C_17 
REMARK    3  A    between atoms: O_4  and  C_12 
REMARK    4  A    between atoms: O_5  and  C_13 
REMARK    5  A    between atoms: O_6  and  C_15 
REMARK    6  A    between atoms: O_6  and  C_22 
REMARK    7  A    between atoms: O_7  and  C_14 
REMARK    8  A    between atoms: O_8  and  C_18 
REMARK    9  A    between atoms: O_9  and  C_19 
REMARK   10  A    between atoms: O_10  and  C_20 
REMARK   11  A    between atoms: C_11  and  C_16 
REMARK   12  A    between atoms: C_22  and  C_23 
REMARK   13  A    between atoms: C_24  and  C_25 
ROOT
HETATM    1  O   UNK     0     170.056 173.676 168.911  0.00  0.00    -0.348 OA
HETATM    2  C   UNK     0     170.996 174.395 169.710  0.00  0.00     0.180 C 
HETATM    3  C   UNK     0     170.887 173.953 171.171  0.00  0.00     0.180 C 
HETATM    4  C   UNK     0     169.458 174.123 171.684  0.00  0.00     0.183 C 
HETATM    5  C   UNK     0     168.446 173.502 170.721  0.00  0.00     0.204 C 
HETATM    6  C   UNK     0     168.706 173.944 169.281  0.00  0.00     0.291 C 
ENDROOT
BRANCH   2   7
HETATM    7  C   UNK     0     172.386 174.126 169.140  0.00  0.00     0.205 C 
BRANCH   7   8
HETATM    8  O   UNK     0     172.260 173.854 167.756  0.00  0.00    -0.356 OA
BRANCH   8   9
HETATM    9  C   UNK     0     173.223 172.902 167.315  0.00  0.00     0.290 C 
HETATM   10  O   UNK     0     173.494 173.023 165.915  0.00  0.00    -0.356 OA
HETATM   11  C   UNK     0     172.388 172.680 165.083  0.00  0.00     0.205 C 
HETATM   12  C   UNK     0     171.973 171.232 165.312  0.00  0.00     0.173 C 
HETATM   13  C   UNK     0     171.620 170.998 166.782  0.00  0.00     0.182 C 
HETATM   14  C   UNK     0     172.761 171.483 167.682  0.00  0.00     0.204 C 
BRANCH  12  15
HETATM   15  O   UNK     0     170.863 170.900 164.491  0.00  0.00    -0.391 OA
HETATM   16  H   UNK     0     171.005 171.315 163.622  0.00  0.00     0.210 HD
ENDBRANCH  12  15
BRANCH  13  17
HETATM   17  O   UNK     0     170.426 171.711 167.099  0.00  0.00    -0.390 OA
HETATM   18  H   UNK     0     169.797 171.073 167.479  0.00  0.00     0.210 HD
ENDBRANCH  13  17
BRANCH  14  19
HETATM   19  O   UNK     0     173.878 170.607 167.544  0.00  0.00    -0.388 OA
HETATM   20  H   UNK     0     174.613 170.961 168.072  0.00  0.00     0.210 HD
ENDBRANCH  14  19
ENDBRANCH   8   9
ENDBRANCH   7   8
ENDBRANCH   2   7
BRANCH   6  21
HETATM   21  O   UNK     0     167.819 173.217 168.431  0.00  0.00    -0.355 OA
BRANCH  21  22
HETATM   22  C   UNK     0     167.205 174.069 167.476  0.00  0.00     0.198 C 
BRANCH  22  23
HETATM   23  C   UNK     0     165.730 173.823 167.492  0.00  0.00     0.000 C 
HETATM   24  C   UNK     0     164.907 174.341 168.417  0.00  0.00     0.009 C 
BRANCH  24  25
HETATM   25  C   UNK     0     163.448 174.140 168.463  0.00  0.00    -0.036 A 
HETATM   26  C   UNK     0     162.791 173.673 167.337  0.00  0.00     0.011 A 
HETATM   27  C   UNK     0     161.409 173.482 167.380  0.00  0.00     0.001 A 
HETATM   28  C   UNK     0     160.705 173.760 168.551  0.00  0.00     0.000 A 
HETATM   29  C   UNK     0     161.380 174.229 169.678  0.00  0.00     0.001 A 
HETATM   30  C   UNK     0     162.761 174.420 169.634  0.00  0.00     0.011 A 
ENDBRANCH  24  25
ENDBRANCH  22  23
ENDBRANCH  21  22
ENDBRANCH   6  21
BRANCH   3  31
HETATM   31  O   UNK     0     171.771 174.737 171.968  0.00  0.00    -0.390 OA
HETATM   32  H   UNK     0     172.480 175.069 171.391  0.00  0.00     0.210 HD
ENDBRANCH   3  31
BRANCH   5  33
HETATM   33  O   UNK     0     167.129 173.915 171.086  0.00  0.00    -0.388 OA
HETATM   34  H   UNK     0     167.055 173.865 172.054  0.00  0.00     0.210 HD
ENDBRANCH   5  33
BRANCH   4  35
HETATM   35  O   UNK     0     169.365 173.476 172.955  0.00  0.00    -0.390 OA
HETATM   36  H   UNK     0     168.910 172.628 172.817  0.00  0.00     0.210 HD
ENDBRANCH   4  35
TORSDOF 13
ENDMDL
MODEL 2
REMARK VINA RESULT:      -7.9      4.029      8.858
REMARK  13 active torsions:
REMARK  status: ('A' for Active; 'I' for Inactive)
REMARK    1  A    between atoms: O_2  and  C_16 
REMARK    2  A    between atoms: O_2  and  C_17 
REMARK    3  A    between atoms: O_4  and  C_12 
REMARK    4  A    between atoms: O_5  and  C_13 
REMARK    5  A    between atoms: O_6  and  C_15 
REMARK    6  A    between atoms: O_6  and  C_22 
REMARK    7  A    between atoms: O_7  and  C_14 
REMARK    8  A    between atoms: O_8  and  C_18 
REMARK    9  A    between atoms: O_9  and  C_19 
REMARK   10  A    between atoms: O_10  and  C_20 
REMARK   11  A    between atoms: C_11  and  C_16 
REMARK   12  A    between atoms: C_22  and  C_23 
REMARK   13  A    between atoms: C_24  and  C_25 
ROOT
HETATM    1  O   UNK     0     164.653 172.551 169.218  0.00  0.00    -0.348 OA
HETATM    2  C   UNK     0     163.448 172.840 169.930  0.00  0.00     0.180 C 
HETATM    3  C   UNK     0     162.280 172.970 168.949  0.00  0.00     0.180 C 
HETATM    4  C   UNK     0     162.580 174.027 167.887  0.00  0.00     0.183 C 
HETATM    5  C   UNK     0     163.957 173.808 167.261  0.00  0.00     0.204 C 
HETATM    6  C   UNK     0     165.028 173.601 168.331  0.00  0.00     0.291 C 
ENDROOT
BRANCH   2   7
HETATM    7  C   UNK     0     163.222 171.710 170.931  0.00  0.00     0.205 C 
BRANCH   7   8
HETATM    8  O   UNK     0     163.820 170.532 170.421  0.00  0.00    -0.356 OA
BRANCH   8   9
HETATM    9  C   UNK     0     162.869 169.484 170.262  0.00  0.00     0.290 C 
HETATM   10  O   UNK     0     163.476 168.190 170.355  0.00  0.00    -0.356 OA
HETATM   11  C   UNK     0     164.371 167.896 169.285  0.00  0.00     0.205 C 
HETATM   12  C   UNK     0     163.639 167.926 167.949  0.00  0.00     0.173 C 
HETATM   13  C   UNK     0     162.980 169.288 167.726  0.00  0.00     0.182 C 
HETATM   14  C   UNK     0     162.115 169.660 168.935  0.00  0.00     0.204 C 
BRANCH  12  15
HETATM   15  O   UNK     0     164.538 167.646 166.886  0.00  0.00    -0.391 OA
HETATM   16  H   UNK     0     164.491 168.388 166.258  0.00  0.00     0.210 HD
ENDBRANCH  12  15
BRANCH  13  17
HETATM   17  O   UNK     0     163.991 170.277 167.541  0.00  0.00    -0.390 OA
HETATM   18  H   UNK     0     163.605 171.138 167.776  0.00  0.00     0.210 HD
ENDBRANCH  13  17
BRANCH  14  19
HETATM   19  O   UNK     0     160.963 168.820 168.969  0.00  0.00    -0.388 OA
HETATM   20  H   UNK     0     160.682 168.647 168.054  0.00  0.00     0.210 HD
ENDBRANCH  14  19
ENDBRANCH   8   9
ENDBRANCH   7   8
ENDBRANCH   2   7
BRANCH   6  21
HETATM   21  O   UNK     0     166.248 173.264 167.673  0.00  0.00    -0.355 OA
BRANCH  21  22
HETATM   22  C   UNK     0     167.332 174.035 168.167  0.00  0.00     0.198 C 
BRANCH  22  23
HETATM   23  C   UNK     0     168.569 173.194 168.148  0.00  0.00     0.000 C 
HETATM   24  C   UNK     0     169.717 173.586 167.575  0.00  0.00     0.009 C 
BRANCH  24  25
HETATM   25  C   UNK     0     170.962 172.800 167.544  0.00  0.00    -0.036 A 
HETATM   26  C   UNK     0     171.965 173.079 168.459  0.00  0.00     0.011 A 
HETATM   27  C   UNK     0     173.144 172.335 168.430  0.00  0.00     0.001 A 
HETATM   28  C   UNK     0     173.305 171.321 167.486  0.00  0.00     0.000 A 
HETATM   29  C   UNK     0     172.288 171.051 166.571  0.00  0.00     0.001 A 
HETATM   30  C   UNK     0     171.108 171.796 166.600  0.00  0.00     0.011 A 
ENDBRANCH  24  25
ENDBRANCH  22  23
ENDBRANCH  21  22
ENDBRANCH   6  21
BRANCH   3  31
HETATM   31  O   UNK     0     161.103 173.339 169.664  0.00  0.00    -0.390 OA
HETATM   32  H   UNK     0     160.751 172.540 170.093  0.00  0.00     0.210 HD
ENDBRANCH   3  31
BRANCH   5  33
HETATM   33  O   UNK     0     164.312 174.953 166.486  0.00  0.00    -0.388 OA
HETATM   34  H   UNK     0     163.949 174.837 165.592  0.00  0.00     0.210 HD
ENDBRANCH   5  33
BRANCH   4  35
HETATM   35  O   UNK     0     161.576 173.933 166.875  0.00  0.00    -0.390 OA
HETATM   36  H   UNK     0     161.914 174.389 166.086  0.00  0.00     0.210 HD
ENDBRANCH   4  35
TORSDOF 13
ENDMDL
MODEL 3
REMARK VINA RESULT:      -7.8      1.311      1.923
REMARK  13 active torsions:
REMARK  status: ('A' for Active; 'I' for Inactive)
REMARK    1  A    between atoms: O_2  and  C_16 
REMARK    2  A    between atoms: O_2  and  C_17 
REMARK    3  A    between atoms: O_4  and  C_12 
REMARK    4  A    between atoms: O_5  and  C_13 
REMARK    5  A    between atoms: O_6  and  C_15 
REMARK    6  A    between atoms: O_6  and  C_22 
REMARK    7  A    between atoms: O_7  and  C_14 
REMARK    8  A    between atoms: O_8  and  C_18 
REMARK    9  A    between atoms: O_9  and  C_19 
REMARK   10  A    between atoms: O_10  and  C_20 
REMARK   11  A    between atoms: C_11  and  C_16 
REMARK   12  A    between atoms: C_22  and  C_23 
REMARK   13  A    between atoms: C_24  and  C_25 
ROOT
HETATM    1  O   UNK     0     169.042 173.816 168.576  0.00  0.00    -0.348 OA
HETATM    2  C   UNK     0     170.143 174.718 168.452  0.00  0.00     0.180 C 
HETATM    3  C   UNK     0     171.057 174.598 169.674  0.00  0.00     0.180 C 
HETATM    4  C   UNK     0     170.272 174.832 170.964  0.00  0.00     0.183 C 
HETATM    5  C   UNK     0     168.997 173.988 170.997  0.00  0.00     0.204 C 
HETATM    6  C   UNK     0     168.211 174.117 169.693  0.00  0.00     0.291 C 
ENDROOT
BRANCH   2   7
HETATM    7  C   UNK     0     170.878 174.374 167.160  0.00  0.00     0.205 C 
BRANCH   7   8
HETATM    8  O   UNK     0     171.987 173.553 167.478  0.00  0.00    -0.356 OA
BRANCH   8   9
HETATM    9  C   UNK     0     171.714 172.178 167.228  0.00  0.00     0.290 C 
HETATM   10  O   UNK     0     172.855 171.351 167.482  0.00  0.00    -0.356 OA
HETATM   11  C   UNK     0     173.937 171.571 166.580  0.00  0.00     0.205 C 
HETATM   12  C   UNK     0     173.511 171.278 165.148  0.00  0.00     0.173 C 
HETATM   13  C   UNK     0     172.312 172.143 164.754  0.00  0.00     0.182 C 
HETATM   14  C   UNK     0     171.195 172.001 165.793  0.00  0.00     0.204 C 
BRANCH  12  15
HETATM   15  O   UNK     0     174.588 171.512 164.252  0.00  0.00    -0.391 OA
HETATM   16  H   UNK     0     174.608 170.775 163.617  0.00  0.00     0.210 HD
ENDBRANCH  12  15
BRANCH  13  17
HETATM   17  O   UNK     0     172.721 173.508 164.677  0.00  0.00    -0.390 OA
HETATM   18  H   UNK     0     173.417 173.567 163.999  0.00  0.00     0.210 HD
ENDBRANCH  13  17
BRANCH  14  19
HETATM   19  O   UNK     0     170.617 170.701 165.691  0.00  0.00    -0.388 OA
HETATM   20  H   UNK     0     169.680 170.761 165.942  0.00  0.00     0.210 HD
ENDBRANCH  14  19
ENDBRANCH   8   9
ENDBRANCH   7   8
ENDBRANCH   2   7
BRANCH   6  21
HETATM   21  O   UNK     0     167.120 173.199 169.745  0.00  0.00    -0.355 OA
BRANCH  21  22
HETATM   22  C   UNK     0     166.615 172.924 168.447  0.00  0.00     0.198 C 
BRANCH  22  23
HETATM   23  C   UNK     0     165.121 172.955 168.496  0.00  0.00     0.000 C 
HETATM   24  C   UNK     0     164.414 174.074 168.717  0.00  0.00     0.009 C 
BRANCH  24  25
HETATM   25  C   UNK     0     162.944 174.156 168.760  0.00  0.00    -0.036 A 
HETATM   26  C   UNK     0     162.212 173.821 167.632  0.00  0.00     0.011 A 
HETATM   27  C   UNK     0     160.820 173.898 167.671  0.00  0.00     0.001 A 
HETATM   28  C   UNK     0     160.178 174.309 168.839  0.00  0.00     0.000 A 
HETATM   29  C   UNK     0     160.927 174.643 169.967  0.00  0.00     0.001 A 
HETATM   30  C   UNK     0     162.320 174.565 169.927  0.00  0.00     0.011 A 
ENDBRANCH  24  25
ENDBRANCH  22  23
ENDBRANCH  21  22
ENDBRANCH   6  21
BRANCH   3  31
HETATM   31  O   UNK     0     172.103 175.560 169.577  0.00  0.00    -0.390 OA
HETATM   32  H   UNK     0     172.615 175.366 168.773  0.00  0.00     0.210 HD
ENDBRANCH   3  31
BRANCH   5  33
HETATM   33  O   UNK     0     168.164 174.431 172.069  0.00  0.00    -0.388 OA
HETATM   34  H   UNK     0     167.566 173.703 172.307  0.00  0.00     0.210 HD
ENDBRANCH   5  33
BRANCH   4  35
HETATM   35  O   UNK     0     171.110 174.470 172.063  0.00  0.00    -0.390 OA
HETATM   36  H   UNK     0     171.834 175.119 172.102  0.00  0.00     0.210 HD
ENDBRANCH   4  35
TORSDOF 13
ENDMDL
MODEL 4
REMARK VINA RESULT:      -7.7      3.527      5.857
REMARK  13 active torsions:
REMARK  status: ('A' for Active; 'I' for Inactive)
REMARK    1  A    between atoms: O_2  and  C_16 
REMARK    2  A    between atoms: O_2  and  C_17 
REMARK    3  A    between atoms: O_4  and  C_12 
REMARK    4  A    between atoms: O_5  and  C_13 
REMARK    5  A    between atoms: O_6  and  C_15 
REMARK    6  A    between atoms: O_6  and  C_22 
REMARK    7  A    between atoms: O_7  and  C_14 
REMARK    8  A    between atoms: O_8  and  C_18 
REMARK    9  A    between atoms: O_9  and  C_19 
REMARK   10  A    between atoms: O_10  and  C_20 
REMARK   11  A    between atoms: C_11  and  C_16 
REMARK   12  A    between atoms: C_22  and  C_23 
REMARK   13  A    between atoms: C_24  and  C_25 
ROOT
HETATM    1  O   UNK     0     170.368 174.534 170.234  0.00  0.00    -0.348 OA
HETATM    2  C   UNK     0     170.094 173.680 169.122  0.00  0.00     0.180 C 
HETATM    3  C   UNK     0     168.589 173.652 168.844  0.00  0.00     0.180 C 
HETATM    4  C   UNK     0     167.814 173.229 170.091  0.00  0.00     0.183 C 
HETATM    5  C   UNK     0     168.253 174.034 171.315  0.00  0.00     0.204 C 
HETATM    6  C   UNK     0     169.775 174.067 171.442  0.00  0.00     0.291 C 
ENDROOT
BRANCH   2   7
HETATM    7  C   UNK     0     170.880 174.211 167.927  0.00  0.00     0.205 C 
BRANCH   7   8
HETATM    8  O   UNK     0     172.092 173.486 167.828  0.00  0.00    -0.356 OA
BRANCH   8   9
HETATM    9  C   UNK     0     171.861 172.106 167.565  0.00  0.00     0.290 C 
HETATM   10  O   UNK     0     173.064 171.334 167.653  0.00  0.00    -0.356 OA
HETATM   11  C   UNK     0     174.018 171.638 166.638  0.00  0.00     0.205 C 
HETATM   12  C   UNK     0     173.437 171.362 165.257  0.00  0.00     0.173 C 
HETATM   13  C   UNK     0     172.158 172.172 165.038  0.00  0.00     0.182 C 
HETATM   14  C   UNK     0     171.183 171.940 166.197  0.00  0.00     0.204 C 
BRANCH  12  15
HETATM   15  O   UNK     0     174.386 171.679 164.248  0.00  0.00    -0.391 OA
HETATM   16  H   UNK     0     174.683 172.593 164.401  0.00  0.00     0.210 HD
ENDBRANCH  12  15
BRANCH  13  17
HETATM   17  O   UNK     0     172.485 173.558 164.959  0.00  0.00    -0.390 OA
HETATM   18  H   UNK     0     172.948 173.702 164.116  0.00  0.00     0.210 HD
ENDBRANCH  13  17
BRANCH  14  19
HETATM   19  O   UNK     0     170.663 170.614 166.120  0.00  0.00    -0.388 OA
HETATM   20  H   UNK     0     169.846 170.635 165.594  0.00  0.00     0.210 HD
ENDBRANCH  14  19
ENDBRANCH   8   9
ENDBRANCH   7   8
ENDBRANCH   2   7
BRANCH   6  21
HETATM   21  O   UNK     0     170.108 174.947 172.515  0.00  0.00    -0.355 OA
BRANCH  21  22
HETATM   22  C   UNK     0     170.338 176.267 172.047  0.00  0.00     0.198 C 
BRANCH  22  23
HETATM   23  C   UNK     0     169.426 177.201 172.776  0.00  0.00     0.000 C 
HETATM   24  C   UNK     0     169.813 178.403 173.231  0.00  0.00     0.009 C 
BRANCH  24  25
HETATM   25  C   UNK     0     168.947 179.361 173.940  0.00  0.00    -0.036 A 
HETATM   26  C   UNK     0     168.031 178.892 174.869  0.00  0.00     0.011 A 
HETATM   27  C   UNK     0     167.212 179.799 175.540  0.00  0.00     0.001 A 
HETATM   28  C   UNK     0     167.319 181.164 175.275  0.00  0.00     0.000 A 
HETATM   29  C   UNK     0     168.245 181.622 174.338  0.00  0.00     0.001 A 
HETATM   30  C   UNK     0     169.065 180.715 173.666  0.00  0.00     0.011 A 
ENDBRANCH  24  25
ENDBRANCH  22  23
ENDBRANCH  21  22
ENDBRANCH   6  21
BRANCH   3  31
HETATM   31  O   UNK     0     168.321 172.733 167.788  0.00  0.00    -0.390 OA
HETATM   32  H   UNK     0     168.482 171.835 168.124  0.00  0.00     0.210 HD
ENDBRANCH   3  31
BRANCH   5  33
HETATM   33  O   UNK     0     167.717 173.433 172.494  0.00  0.00    -0.388 OA
HETATM   34  H   UNK     0     168.016 172.509 172.523  0.00  0.00     0.210 HD
ENDBRANCH   5  33
BRANCH   4  35
HETATM   35  O   UNK     0     166.425 173.455 169.846  0.00  0.00    -0.390 OA
HETATM   36  H   UNK     0     165.929 173.014 170.556  0.00  0.00     0.210 HD
ENDBRANCH   4  35
TORSDOF 13
ENDMDL
MODEL 5
REMARK VINA RESULT:      -7.7      3.532      5.756
REMARK  13 active torsions:
REMARK  status: ('A' for Active; 'I' for Inactive)
REMARK    1  A    between atoms: O_2  and  C_16 
REMARK    2  A    between atoms: O_2  and  C_17 
REMARK    3  A    between atoms: O_4  and  C_12 
REMARK    4  A    between atoms: O_5  and  C_13 
REMARK    5  A    between atoms: O_6  and  C_15 
REMARK    6  A    between atoms: O_6  and  C_22 
REMARK    7  A    between atoms: O_7  and  C_14 
REMARK    8  A    between atoms: O_8  and  C_18 
REMARK    9  A    between atoms: O_9  and  C_19 
REMARK   10  A    between atoms: O_10  and  C_20 
REMARK   11  A    between atoms: C_11  and  C_16 
REMARK   12  A    between atoms: C_22  and  C_23 
REMARK   13  A    between atoms: C_24  and  C_25 
ROOT
HETATM    1  O   UNK     0     170.254 174.559 170.249  0.00  0.00    -0.348 OA
HETATM    2  C   UNK     0     170.025 173.767 169.083  0.00  0.00     0.180 C 
HETATM    3  C   UNK     0     168.534 173.768 168.735  0.00  0.00     0.180 C 
HETATM    4  C   UNK     0     167.700 173.288 169.922  0.00  0.00     0.183 C 
HETATM    5  C   UNK     0     168.088 174.023 171.205  0.00  0.00     0.204 C 
HETATM    6  C   UNK     0     169.603 174.035 171.403  0.00  0.00     0.291 C 
ENDROOT
BRANCH   2   7
HETATM    7  C   UNK     0     170.869 174.352 167.954  0.00  0.00     0.205 C 
BRANCH   7   8
HETATM    8  O   UNK     0     171.352 173.288 167.155  0.00  0.00    -0.356 OA
BRANCH   8   9
HETATM    9  C   UNK     0     172.651 172.870 167.563  0.00  0.00     0.290 C 
HETATM   10  O   UNK     0     173.683 173.503 166.799  0.00  0.00    -0.356 OA
HETATM   11  C   UNK     0     173.702 173.116 165.427  0.00  0.00     0.205 C 
HETATM   12  C   UNK     0     173.936 171.617 165.295  0.00  0.00     0.173 C 
HETATM   13  C   UNK     0     172.859 170.834 166.049  0.00  0.00     0.182 C 
HETATM   14  C   UNK     0     172.754 171.338 167.492  0.00  0.00     0.204 C 
BRANCH  12  15
HETATM   15  O   UNK     0     173.941 171.234 163.927  0.00  0.00    -0.391 OA
HETATM   16  H   UNK     0     173.086 170.810 163.737  0.00  0.00     0.210 HD
ENDBRANCH  12  15
BRANCH  13  17
HETATM   17  O   UNK     0     171.605 171.005 165.390  0.00  0.00    -0.390 OA
HETATM   18  H   UNK     0     171.779 171.444 164.540  0.00  0.00     0.210 HD
ENDBRANCH  13  17
BRANCH  14  19
HETATM   19  O   UNK     0     173.915 170.940 168.218  0.00  0.00    -0.388 OA
HETATM   20  H   UNK     0     174.382 171.740 168.513  0.00  0.00     0.210 HD
ENDBRANCH  14  19
ENDBRANCH   8   9
ENDBRANCH   7   8
ENDBRANCH   2   7
BRANCH   6  21
HETATM   21  O   UNK     0     169.892 174.855 172.534  0.00  0.00    -0.355 OA
BRANCH  21  22
HETATM   22  C   UNK     0     170.230 176.176 172.142  0.00  0.00     0.198 C 
BRANCH  22  23
HETATM   23  C   UNK     0     169.352 177.136 172.879  0.00  0.00     0.000 C 
HETATM   24  C   UNK     0     169.742 178.372 173.228  0.00  0.00     0.009 C 
BRANCH  24  25
HETATM   25  C   UNK     0     168.908 179.356 173.940  0.00  0.00    -0.036 A 
HETATM   26  C   UNK     0     167.985 178.915 174.874  0.00  0.00     0.011 A 
HETATM   27  C   UNK     0     167.196 179.846 175.549  0.00  0.00     0.001 A 
HETATM   28  C   UNK     0     167.341 181.207 175.280  0.00  0.00     0.000 A 
HETATM   29  C   UNK     0     168.274 181.636 174.337  0.00  0.00     0.001 A 
HETATM   30  C   UNK     0     169.063 180.705 173.662  0.00  0.00     0.011 A 
ENDBRANCH  24  25
ENDBRANCH  22  23
ENDBRANCH  21  22
ENDBRANCH   6  21
BRANCH   3  31
HETATM   31  O   UNK     0     168.309 172.908 167.621  0.00  0.00    -0.390 OA
HETATM   32  H   UNK     0     167.350 172.870 167.461  0.00  0.00     0.210 HD
ENDBRANCH   3  31
BRANCH   5  33
HETATM   33  O   UNK     0     167.494 173.366 172.325  0.00  0.00    -0.388 OA
HETATM   34  H   UNK     0     168.040 172.593 172.545  0.00  0.00     0.210 HD
ENDBRANCH   5  33
BRANCH   4  35
HETATM   35  O   UNK     0     166.325 173.539 169.626  0.00  0.00    -0.390 OA
HETATM   36  H   UNK     0     166.068 172.940 168.904  0.00  0.00     0.210 HD
ENDBRANCH   4  35
TORSDOF 13
ENDMDL
MODEL 6
REMARK VINA RESULT:      -7.7      7.199      9.892
REMARK  13 active torsions:
REMARK  status: ('A' for Active; 'I' for Inactive)
REMARK    1  A    between atoms: O_2  and  C_16 
REMARK    2  A    between atoms: O_2  and  C_17 
REMARK    3  A    between atoms: O_4  and  C_12 
REMARK    4  A    between atoms: O_5  and  C_13 
REMARK    5  A    between atoms: O_6  and  C_15 
REMARK    6  A    between atoms: O_6  and  C_22 
REMARK    7  A    between atoms: O_7  and  C_14 
REMARK    8  A    between atoms: O_8  and  C_18 
REMARK    9  A    between atoms: O_9  and  C_19 
REMARK   10  A    between atoms: O_10  and  C_20 
REMARK   11  A    between atoms: C_11  and  C_16 
REMARK   12  A    between atoms: C_22  and  C_23 
REMARK   13  A    between atoms: C_24  and  C_25 
ROOT
HETATM    1  O   UNK     0     162.816 169.853 170.269  0.00  0.00    -0.348 OA
HETATM    2  C   UNK     0     163.480 169.716 169.012  0.00  0.00     0.180 C 
HETATM    3  C   UNK     0     163.726 168.235 168.710  0.00  0.00     0.180 C 
HETATM    4  C   UNK     0     164.510 167.573 169.843  0.00  0.00     0.183 C 
HETATM    5  C   UNK     0     163.884 167.883 171.204  0.00  0.00     0.204 C 
HETATM    6  C   UNK     0     163.602 169.376 171.358  0.00  0.00     0.291 C 
ENDROOT
BRANCH   2   7
HETATM    7  C   UNK     0     162.600 170.371 167.952  0.00  0.00     0.205 C 
BRANCH   7   8
HETATM    8  O   UNK     0     161.886 171.434 168.554  0.00  0.00    -0.356 OA
BRANCH   8   9
HETATM    9  C   UNK     0     162.440 172.701 168.215  0.00  0.00     0.290 C 
HETATM   10  O   UNK     0     162.761 173.475 169.376  0.00  0.00    -0.356 OA
HETATM   11  C   UNK     0     161.620 173.881 170.129  0.00  0.00     0.205 C 
HETATM   12  C   UNK     0     160.699 174.750 169.282  0.00  0.00     0.173 C 
HETATM   13  C   UNK     0     160.260 174.001 168.022  0.00  0.00     0.182 C 
HETATM   14  C   UNK     0     161.484 173.456 167.279  0.00  0.00     0.204 C 
BRANCH  12  15
HETATM   15  O   UNK     0     159.559 175.141 170.032  0.00  0.00    -0.391 OA
HETATM   16  H   UNK     0     158.892 175.471 169.404  0.00  0.00     0.210 HD
ENDBRANCH  12  15
BRANCH  13  17
HETATM   17  O   UNK     0     159.405 172.920 168.391  0.00  0.00    -0.390 OA
HETATM   18  H   UNK     0     159.950 172.115 168.428  0.00  0.00     0.210 HD
ENDBRANCH  13  17
BRANCH  14  19
HETATM   19  O   UNK     0     162.203 174.540 166.694  0.00  0.00    -0.388 OA
HETATM   20  H   UNK     0     161.741 175.367 166.910  0.00  0.00     0.210 HD
ENDBRANCH  14  19
ENDBRANCH   8   9
ENDBRANCH   7   8
ENDBRANCH   2   7
BRANCH   6  21
HETATM   21  O   UNK     0     162.894 169.565 172.583  0.00  0.00    -0.355 OA
BRANCH  21  22
HETATM   22  C   UNK     0     162.587 170.935 172.797  0.00  0.00     0.198 C 
BRANCH  22  23
HETATM   23  C   UNK     0     161.448 171.027 173.761  0.00  0.00     0.000 C 
HETATM   24  C   UNK     0     161.613 171.216 175.079  0.00  0.00     0.009 C 
BRANCH  24  25
HETATM   25  C   UNK     0     160.523 171.328 176.064  0.00  0.00    -0.036 A 
HETATM   26  C   UNK     0     160.823 171.663 177.374  0.00  0.00     0.011 A 
HETATM   27  C   UNK     0     159.791 171.770 178.307  0.00  0.00     0.001 A 
HETATM   28  C   UNK     0     158.472 171.541 177.916  0.00  0.00     0.000 A 
HETATM   29  C   UNK     0     158.185 171.205 176.593  0.00  0.00     0.001 A 
HETATM   30  C   UNK     0     159.217 171.098 175.661  0.00  0.00     0.011 A 
ENDBRANCH  24  25
ENDBRANCH  22  23
ENDBRANCH  21  22
ENDBRANCH   6  21
BRANCH   3  31
HETATM   31  O   UNK     0     164.463 168.118 167.496  0.00  0.00    -0.390 OA
HETATM   32  H   UNK     0     164.952 167.277 167.521  0.00  0.00     0.210 HD
ENDBRANCH   3  31
BRANCH   5  33
HETATM   33  O   UNK     0     164.783 167.487 172.239  0.00  0.00    -0.388 OA
HETATM   34  H   UNK     0     165.688 167.544 171.890  0.00  0.00     0.210 HD
ENDBRANCH   5  33
BRANCH   4  35
HETATM   35  O   UNK     0     164.496 166.162 169.623  0.00  0.00    -0.390 OA
HETATM   36  H   UNK     0     163.740 165.798 170.114  0.00  0.00     0.210 HD
ENDBRANCH   4  35
TORSDOF 13
ENDMDL
MODEL 7
REMARK VINA RESULT:      -7.7     14.269     18.601
REMARK  13 active torsions:
REMARK  status: ('A' for Active; 'I' for Inactive)
REMARK    1  A    between atoms: O_2  and  C_16 
REMARK    2  A    between atoms: O_2  and  C_17 
REMARK    3  A    between atoms: O_4  and  C_12 
REMARK    4  A    between atoms: O_5  and  C_13 
REMARK    5  A    between atoms: O_6  and  C_15 
REMARK    6  A    between atoms: O_6  and  C_22 
REMARK    7  A    between atoms: O_7  and  C_14 
REMARK    8  A    between atoms: O_8  and  C_18 
REMARK    9  A    between atoms: O_9  and  C_19 
REMARK   10  A    between atoms: O_10  and  C_20 
REMARK   11  A    between atoms: C_11  and  C_16 
REMARK   12  A    between atoms: C_22  and  C_23 
REMARK   13  A    between atoms: C_24  and  C_25 
ROOT
HETATM    1  O   UNK     0     153.966 178.030 158.674  0.00  0.00    -0.348 OA
HETATM    2  C   UNK     0     154.571 177.964 159.966  0.00  0.00     0.180 C 
HETATM    3  C   UNK     0     154.077 179.124 160.834  0.00  0.00     0.180 C 
HETATM    4  C   UNK     0     154.343 180.464 160.150  0.00  0.00     0.183 C 
HETATM    5  C   UNK     0     153.849 180.455 158.703  0.00  0.00     0.204 C 
HETATM    6  C   UNK     0     154.329 179.209 157.960  0.00  0.00     0.291 C 
ENDROOT
BRANCH   2   7
HETATM    7  C   UNK     0     154.213 176.611 160.574  0.00  0.00     0.205 C 
BRANCH   7   8
HETATM    8  O   UNK     0     155.148 176.314 161.595  0.00  0.00    -0.356 OA
BRANCH   8   9
HETATM    9  C   UNK     0     154.565 175.535 162.635  0.00  0.00     0.290 C 
HETATM   10  O   UNK     0     154.080 176.350 163.708  0.00  0.00    -0.356 OA
HETATM   11  C   UNK     0     155.110 177.021 164.430  0.00  0.00     0.205 C 
HETATM   12  C   UNK     0     156.068 176.016 165.058  0.00  0.00     0.173 C 
HETATM   13  C   UNK     0     156.679 175.111 163.987  0.00  0.00     0.182 C 
HETATM   14  C   UNK     0     155.573 174.487 163.130  0.00  0.00     0.204 C 
BRANCH  12  15
HETATM   15  O   UNK     0     157.099 176.690 165.765  0.00  0.00    -0.391 OA
HETATM   16  H   UNK     0     156.724 177.517 166.115  0.00  0.00     0.210 HD
ENDBRANCH  12  15
BRANCH  13  17
HETATM   17  O   UNK     0     157.547 175.882 163.159  0.00  0.00    -0.390 OA
HETATM   18  H   UNK     0     157.629 175.417 162.308  0.00  0.00     0.210 HD
ENDBRANCH  13  17
BRANCH  14  19
HETATM   19  O   UNK     0     154.861 173.523 163.905  0.00  0.00    -0.388 OA
HETATM   20  H   UNK     0     154.178 173.986 164.418  0.00  0.00     0.210 HD
ENDBRANCH  14  19
ENDBRANCH   8   9
ENDBRANCH   7   8
ENDBRANCH   2   7
BRANCH   6  21
HETATM   21  O   UNK     0     153.714 179.201 156.672  0.00  0.00    -0.355 OA
BRANCH  21  22
HETATM   22  C   UNK     0     154.564 178.614 155.698  0.00  0.00     0.198 C 
BRANCH  22  23
HETATM   23  C   UNK     0     155.054 179.686 154.778  0.00  0.00     0.000 C 
HETATM   24  C   UNK     0     156.306 180.167 154.809  0.00  0.00     0.009 C 
BRANCH  24  25
HETATM   25  C   UNK     0     156.837 181.210 153.915  0.00  0.00    -0.036 A 
HETATM   26  C   UNK     0     156.107 181.584 152.799  0.00  0.00     0.011 A 
HETATM   27  C   UNK     0     156.609 182.572 151.951  0.00  0.00     0.001 A 
HETATM   28  C   UNK     0     157.836 183.173 152.233  0.00  0.00     0.000 A 
HETATM   29  C   UNK     0     158.560 182.787 153.360  0.00  0.00     0.001 A 
HETATM   30  C   UNK     0     158.057 181.799 154.208  0.00  0.00     0.011 A 
ENDBRANCH  24  25
ENDBRANCH  22  23
ENDBRANCH  21  22
ENDBRANCH   6  21
BRANCH   3  31
HETATM   31  O   UNK     0     154.751 179.093 162.090  0.00  0.00    -0.390 OA
HETATM   32  H   UNK     0     154.089 178.919 162.781  0.00  0.00     0.210 HD
ENDBRANCH   3  31
BRANCH   5  33
HETATM   33  O   UNK     0     154.354 181.605 158.023  0.00  0.00    -0.388 OA
HETATM   34  H   UNK     0     154.285 181.444 157.067  0.00  0.00     0.210 HD
ENDBRANCH   5  33
BRANCH   4  35
HETATM   35  O   UNK     0     153.653 181.479 160.882  0.00  0.00    -0.390 OA
HETATM   36  H   UNK     0     152.710 181.413 160.652  0.00  0.00     0.210 HD
ENDBRANCH   4  35
TORSDOF 13
ENDMDL
MODEL 8
REMARK VINA RESULT:      -7.6     13.939     18.391
REMARK  13 active torsions:
REMARK  status: ('A' for Active; 'I' for Inactive)
REMARK    1  A    between atoms: O_2  and  C_16 
REMARK    2  A    between atoms: O_2  and  C_17 
REMARK    3  A    between atoms: O_4  and  C_12 
REMARK    4  A    between atoms: O_5  and  C_13 
REMARK    5  A    between atoms: O_6  and  C_15 
REMARK    6  A    between atoms: O_6  and  C_22 
REMARK    7  A    between atoms: O_7  and  C_14 
REMARK    8  A    between atoms: O_8  and  C_18 
REMARK    9  A    between atoms: O_9  and  C_19 
REMARK   10  A    between atoms: O_10  and  C_20 
REMARK   11  A    between atoms: C_11  and  C_16 
REMARK   12  A    between atoms: C_22  and  C_23 
REMARK   13  A    between atoms: C_24  and  C_25 
ROOT
HETATM    1  O   UNK     0     153.095 178.133 159.943  0.00  0.00    -0.348 OA
HETATM    2  C   UNK     0     153.812 178.249 161.172  0.00  0.00     0.180 C 
HETATM    3  C   UNK     0     153.947 179.724 161.561  0.00  0.00     0.180 C 
HETATM    4  C   UNK     0     154.609 180.522 160.438  0.00  0.00     0.183 C 
HETATM    5  C   UNK     0     153.940 180.243 159.092  0.00  0.00     0.204 C 
HETATM    6  C   UNK     0     153.778 178.743 158.851  0.00  0.00     0.291 C 
ENDROOT
BRANCH   2   7
HETATM    7  C   UNK     0     153.049 177.454 162.228  0.00  0.00     0.205 C 
BRANCH   7   8
HETATM    8  O   UNK     0     153.958 177.062 163.240  0.00  0.00    -0.356 OA
BRANCH   8   9
HETATM    9  C   UNK     0     155.071 176.354 162.703  0.00  0.00     0.290 C 
HETATM   10  O   UNK     0     154.808 174.951 162.584  0.00  0.00    -0.356 OA
HETATM   11  C   UNK     0     154.654 174.287 163.836  0.00  0.00     0.205 C 
HETATM   12  C   UNK     0     155.923 174.411 164.669  0.00  0.00     0.173 C 
HETATM   13  C   UNK     0     156.279 175.881 164.894  0.00  0.00     0.182 C 
HETATM   14  C   UNK     0     156.322 176.624 163.554  0.00  0.00     0.204 C 
BRANCH  12  15
HETATM   15  O   UNK     0     155.759 173.758 165.920  0.00  0.00    -0.391 OA
HETATM   16  H   UNK     0     155.260 174.358 166.502  0.00  0.00     0.210 HD
ENDBRANCH  12  15
BRANCH  13  17
HETATM   17  O   UNK     0     155.299 176.479 165.741  0.00  0.00    -0.390 OA
HETATM   18  H   UNK     0     154.756 175.763 166.111  0.00  0.00     0.210 HD
ENDBRANCH  13  17
BRANCH  14  19
HETATM   19  O   UNK     0     157.461 176.195 162.811  0.00  0.00    -0.388 OA
HETATM   20  H   UNK     0     157.434 176.618 161.937  0.00  0.00     0.210 HD
ENDBRANCH  14  19
ENDBRANCH   8   9
ENDBRANCH   7   8
ENDBRANCH   2   7
BRANCH   6  21
HETATM   21  O   UNK     0     153.024 178.569 157.652  0.00  0.00    -0.355 OA
BRANCH  21  22
HETATM   22  C   UNK     0     153.658 177.653 156.772  0.00  0.00     0.198 C 
BRANCH  22  23
HETATM   23  C   UNK     0     154.155 178.401 155.577  0.00  0.00     0.000 C 
HETATM   24  C   UNK     0     155.457 178.618 155.333  0.00  0.00     0.009 C 
BRANCH  24  25
HETATM   25  C   UNK     0     155.995 179.335 154.164  0.00  0.00    -0.036 A 
HETATM   26  C   UNK     0     157.134 178.855 153.538  0.00  0.00     0.011 A 
HETATM   27  C   UNK     0     157.643 179.533 152.430  0.00  0.00     0.001 A 
HETATM   28  C   UNK     0     157.006 180.682 151.964  0.00  0.00     0.000 A 
HETATM   29  C   UNK     0     155.860 181.154 152.604  0.00  0.00     0.001 A 
HETATM   30  C   UNK     0     155.350 180.475 153.711  0.00  0.00     0.011 A 
ENDBRANCH  24  25
ENDBRANCH  22  23
ENDBRANCH  21  22
ENDBRANCH   6  21
BRANCH   3  31
HETATM   31  O   UNK     0     154.734 179.830 162.744  0.00  0.00    -0.390 OA
HETATM   32  H   UNK     0     154.158 180.150 163.460  0.00  0.00     0.210 HD
ENDBRANCH   3  31
BRANCH   5  33
HETATM   33  O   UNK     0     154.745 180.781 158.043  0.00  0.00    -0.388 OA
HETATM   34  H   UNK     0     154.593 181.741 158.008  0.00  0.00     0.210 HD
ENDBRANCH   5  33
BRANCH   4  35
HETATM   35  O   UNK     0     154.487 181.910 160.752  0.00  0.00    -0.390 OA
HETATM   36  H   UNK     0     153.586 182.185 160.511  0.00  0.00     0.210 HD
ENDBRANCH   4  35
TORSDOF 13
ENDMDL
MODEL 9
REMARK VINA RESULT:      -7.5      2.561      8.218
REMARK  13 active torsions:
REMARK  status: ('A' for Active; 'I' for Inactive)
REMARK    1  A    between atoms: O_2  and  C_16 
REMARK    2  A    between atoms: O_2  and  C_17 
REMARK    3  A    between atoms: O_4  and  C_12 
REMARK    4  A    between atoms: O_5  and  C_13 
REMARK    5  A    between atoms: O_6  and  C_15 
REMARK    6  A    between atoms: O_6  and  C_22 
REMARK    7  A    between atoms: O_7  and  C_14 
REMARK    8  A    between atoms: O_8  and  C_18 
REMARK    9  A    between atoms: O_9  and  C_19 
REMARK   10  A    between atoms: O_10  and  C_20 
REMARK   11  A    between atoms: C_11  and  C_16 
REMARK   12  A    between atoms: C_22  and  C_23 
REMARK   13  A    between atoms: C_24  and  C_25 
ROOT
HETATM    1  O   UNK     0     168.296 173.813 169.945  0.00  0.00    -0.348 OA
HETATM    2  C   UNK     0     166.883 173.774 170.148  0.00  0.00     0.180 C 
HETATM    3  C   UNK     0     166.484 174.771 171.240  0.00  0.00     0.180 C 
HETATM    4  C   UNK     0     167.252 174.496 172.532  0.00  0.00     0.183 C 
HETATM    5  C   UNK     0     168.752 174.361 172.266  0.00  0.00     0.204 C 
HETATM    6  C   UNK     0     169.026 173.411 171.101  0.00  0.00     0.291 C 
ENDROOT
BRANCH   2   7
HETATM    7  C   UNK     0     166.217 174.099 168.815  0.00  0.00     0.205 C 
BRANCH   7   8
HETATM    8  O   UNK     0     165.082 173.266 168.664  0.00  0.00    -0.356 OA
BRANCH   8   9
HETATM    9  C   UNK     0     163.902 174.022 168.412  0.00  0.00     0.290 C 
HETATM   10  O   UNK     0     162.931 173.865 169.452  0.00  0.00    -0.356 OA
HETATM   11  C   UNK     0     162.386 172.550 169.537  0.00  0.00     0.205 C 
HETATM   12  C   UNK     0     161.681 172.177 168.239  0.00  0.00     0.173 C 
HETATM   13  C   UNK     0     162.644 172.273 167.055  0.00  0.00     0.182 C 
HETATM   14  C   UNK     0     163.324 173.647 167.038  0.00  0.00     0.204 C 
BRANCH  12  15
HETATM   15  O   UNK     0     161.152 170.862 168.323  0.00  0.00    -0.391 OA
HETATM   16  H   UNK     0     161.560 170.429 169.094  0.00  0.00     0.210 HD
ENDBRANCH  12  15
BRANCH  13  17
HETATM   17  O   UNK     0     163.634 171.252 167.168  0.00  0.00    -0.390 OA
HETATM   18  H   UNK     0     163.173 170.395 167.156  0.00  0.00     0.210 HD
ENDBRANCH  13  17
BRANCH  14  19
HETATM   19  O   UNK     0     162.370 174.642 166.674  0.00  0.00    -0.388 OA
HETATM   20  H   UNK     0     161.612 174.202 166.254  0.00  0.00     0.210 HD
ENDBRANCH  14  19
ENDBRANCH   8   9
ENDBRANCH   7   8
ENDBRANCH   2   7
BRANCH   6  21
HETATM   21  O   UNK     0     170.426 173.447 170.825  0.00  0.00    -0.355 OA
BRANCH  21  22
HETATM   22  C   UNK     0     170.754 174.521 169.957  0.00  0.00     0.198 C 
BRANCH  22  23
HETATM   23  C   UNK     0     171.555 173.987 168.813  0.00  0.00     0.000 C 
HETATM   24  C   UNK     0     171.223 172.877 168.137  0.00  0.00     0.009 C 
BRANCH  24  25
HETATM   25  C   UNK     0     171.972 172.322 166.996  0.00  0.00    -0.036 A 
HETATM   26  C   UNK     0     173.355 172.266 167.054  0.00  0.00     0.011 A 
HETATM   27  C   UNK     0     174.065 171.741 165.973  0.00  0.00     0.001 A 
HETATM   28  C   UNK     0     173.380 171.278 164.850  0.00  0.00     0.000 A 
HETATM   29  C   UNK     0     171.988 171.341 164.805  0.00  0.00     0.001 A 
HETATM   30  C   UNK     0     171.279 171.866 165.886  0.00  0.00     0.011 A 
ENDBRANCH  24  25
ENDBRANCH  22  23
ENDBRANCH  21  22
ENDBRANCH   6  21
BRANCH   3  31
HETATM   31  O   UNK     0     165.085 174.662 171.490  0.00  0.00    -0.390 OA
HETATM   32  H   UNK     0     164.614 174.950 170.689  0.00  0.00     0.210 HD
ENDBRANCH   3  31
BRANCH   5  33
HETATM   33  O   UNK     0     169.393 173.839 173.431  0.00  0.00    -0.388 OA
HETATM   34  H   UNK     0     169.542 172.889 173.293  0.00  0.00     0.210 HD
ENDBRANCH   5  33
BRANCH   4  35
HETATM   35  O   UNK     0     167.023 175.590 173.422  0.00  0.00    -0.390 OA
HETATM   36  H   UNK     0     166.120 175.912 173.261  0.00  0.00     0.210 HD
ENDBRANCH   4  35
TORSDOF 13
ENDMDL
MODEL 10
REMARK VINA RESULT:      -7.4      3.119      8.828
REMARK  13 active torsions:
REMARK  status: ('A' for Active; 'I' for Inactive)
REMARK    1  A    between atoms: O_2  and  C_16 
REMARK    2  A    between atoms: O_2  and  C_17 
REMARK    3  A    between atoms: O_4  and  C_12 
REMARK    4  A    between atoms: O_5  and  C_13 
REMARK    5  A    between atoms: O_6  and  C_15 
REMARK    6  A    between atoms: O_6  and  C_22 
REMARK    7  A    between atoms: O_7  and  C_14 
REMARK    8  A    between atoms: O_8  and  C_18 
REMARK    9  A    between atoms: O_9  and  C_19 
REMARK   10  A    between atoms: O_10  and  C_20 
REMARK   11  A    between atoms: C_11  and  C_16 
REMARK   12  A    between atoms: C_22  and  C_23 
REMARK   13  A    between atoms: C_24  and  C_25 
ROOT
HETATM    1  O   UNK     0     166.357 173.251 169.857  0.00  0.00    -0.348 OA
HETATM    2  C   UNK     0     165.380 172.590 170.663  0.00  0.00     0.180 C 
HETATM    3  C   UNK     0     164.920 173.517 171.792  0.00  0.00     0.180 C 
HETATM    4  C   UNK     0     166.111 173.996 172.620  0.00  0.00     0.183 C 
HETATM    5  C   UNK     0     167.227 174.536 171.724  0.00  0.00     0.204 C 
HETATM    6  C   UNK     0     167.541 173.570 170.584  0.00  0.00     0.291 C 
ENDROOT
BRANCH   2   7
HETATM    7  C   UNK     0     164.224 172.191 169.752  0.00  0.00     0.205 C 
BRANCH   7   8
HETATM    8  O   UNK     0     163.114 173.021 170.044  0.00  0.00    -0.356 OA
BRANCH   8   9
HETATM    9  C   UNK     0     162.962 174.057 169.079  0.00  0.00     0.290 C 
HETATM   10  O   UNK     0     161.979 175.020 169.476  0.00  0.00    -0.356 OA
HETATM   11  C   UNK     0     160.651 174.502 169.516  0.00  0.00     0.205 C 
HETATM   12  C   UNK     0     160.226 174.005 168.140  0.00  0.00     0.173 C 
HETATM   13  C   UNK     0     161.194 172.935 167.631  0.00  0.00     0.182 C 
HETATM   14  C   UNK     0     162.635 173.449 167.706  0.00  0.00     0.204 C 
BRANCH  12  15
HETATM   15  O   UNK     0     158.908 173.479 168.189  0.00  0.00    -0.391 OA
HETATM   16  H   UNK     0     158.593 173.559 169.106  0.00  0.00     0.210 HD
ENDBRANCH  12  15
BRANCH  13  17
HETATM   17  O   UNK     0     161.063 171.762 168.432  0.00  0.00    -0.390 OA
HETATM   18  H   UNK     0     160.175 171.777 168.830  0.00  0.00     0.210 HD
ENDBRANCH  13  17
BRANCH  14  19
HETATM   19  O   UNK     0     162.829 174.460 166.719  0.00  0.00    -0.388 OA
HETATM   20  H   UNK     0     162.812 175.326 167.159  0.00  0.00     0.210 HD
ENDBRANCH  14  19
ENDBRANCH   8   9
ENDBRANCH   7   8
ENDBRANCH   2   7
BRANCH   6  21
HETATM   21  O   UNK     0     168.482 174.203 169.718  0.00  0.00    -0.355 OA
BRANCH  21  22
HETATM   22  C   UNK     0     168.109 174.060 168.356  0.00  0.00     0.198 C 
BRANCH  22  23
HETATM   23  C   UNK     0     169.340 173.812 167.544  0.00  0.00     0.000 C 
HETATM   24  C   UNK     0     170.336 173.006 167.943  0.00  0.00     0.009 C 
BRANCH  24  25
HETATM   25  C   UNK     0     171.558 172.720 167.172  0.00  0.00    -0.036 A 
HETATM   26  C   UNK     0     172.555 171.946 167.743  0.00  0.00     0.011 A 
HETATM   27  C   UNK     0     173.713 171.675 167.013  0.00  0.00     0.001 A 
HETATM   28  C   UNK     0     173.857 172.181 165.722  0.00  0.00     0.000 A 
HETATM   29  C   UNK     0     172.844 172.959 165.160  0.00  0.00     0.001 A 
HETATM   30  C   UNK     0     171.687 173.230 165.890  0.00  0.00     0.011 A 
ENDBRANCH  24  25
ENDBRANCH  22  23
ENDBRANCH  21  22
ENDBRANCH   6  21
BRANCH   3  31
HETATM   31  O   UNK     0     164.010 172.816 172.635  0.00  0.00    -0.390 OA
HETATM   32  H   UNK     0     164.219 173.045 173.558  0.00  0.00     0.210 HD
ENDBRANCH   3  31
BRANCH   5  33
HETATM   33  O   UNK     0     168.412 174.714 172.500  0.00  0.00    -0.388 OA
HETATM   34  H   UNK     0     168.288 175.496 173.064  0.00  0.00     0.210 HD
ENDBRANCH   5  33
BRANCH   4  35
HETATM   35  O   UNK     0     165.655 175.033 173.490  0.00  0.00    -0.390 OA
HETATM   36  H   UNK     0     165.451 175.807 172.939  0.00  0.00     0.210 HD
ENDBRANCH   4  35
TORSDOF 13
ENDMDL
