MODEL 1
REMARK VINA RESULT:      -7.2      0.000      0.000
REMARK  6 active torsions:
REMARK  status: ('A' for Active; 'I' for Inactive)
REMARK    1  A    between atoms: O_2  and  C_12 
REMARK    2  A    between atoms: O_3  and  C_14 
REMARK    3  A    between atoms: O_5  and  C_16 
REMARK    4  A    between atoms: O_6  and  C_20 
REMARK    5  A    between atoms: O_7  and  C_22 
REMARK    6  A    between atoms: C_10  and  C_11 
ROOT
HETATM    1  O   UNK     0      14.154  18.357   1.603  0.00  0.00    -0.306 OA
HETATM    2  O   UNK     0      11.995  18.697  -1.836  0.00  0.00    -0.284 OA
HETATM    3  C   UNK     0      12.574  17.387   0.037  0.00  0.00     0.084 A 
HETATM    4  C   UNK     0      13.338  17.332   1.201  0.00  0.00     0.096 A 
HETATM    5  C   UNK     0      14.211  19.502   0.824  0.00  0.00     0.123 A 
HETATM    6  C   UNK     0      13.531  19.678  -0.324  0.00  0.00     0.152 A 
HETATM    7  C   UNK     0      12.639  18.594  -0.801  0.00  0.00     0.223 A 
HETATM    8  C   UNK     0      11.760  16.310  -0.323  0.00  0.00     0.085 A 
HETATM    9  C   UNK     0      13.295  16.197   2.011  0.00  0.00     0.075 A 
HETATM   10  C   UNK     0      12.484  15.120   1.654  0.00  0.00     0.071 A 
HETATM   11  C   UNK     0      11.718  15.177   0.489  0.00  0.00     0.074 A 
ENDROOT
BRANCH   5  12
HETATM   12  C   UNK     0      15.123  20.524   1.367  0.00  0.00     0.004 A 
HETATM   13  C   UNK     0      16.455  20.202   1.630  0.00  0.00     0.053 A 
HETATM   14  C   UNK     0      17.318  21.169   2.144  0.00  0.00     0.099 A 
HETATM   15  C   UNK     0      16.849  22.459   2.397  0.00  0.00     0.098 A 
HETATM   16  C   UNK     0      15.518  22.781   2.134  0.00  0.00     0.040 A 
HETATM   17  C   UNK     0      14.655  21.814   1.619  0.00  0.00     0.017 A 
BRANCH  14  18
HETATM   18  O   UNK     0      18.616  20.843   2.399  0.00  0.00    -0.358 OA
HETATM   19  H   UNK     0      18.975  21.435   3.080  0.00  0.00     0.217 HD
ENDBRANCH  14  18
BRANCH  15  20
HETATM   20  O   UNK     0      17.683  23.413   2.897  0.00  0.00    -0.358 OA
HETATM   21  H   UNK     0      17.170  24.070   3.392  0.00  0.00     0.217 HD
ENDBRANCH  15  20
ENDBRANCH   5  12
BRANCH   6  22
HETATM   22  O   UNK     0      13.635  20.817  -1.093  0.00  0.00    -0.355 OA
HETATM   23  H   UNK     0      14.570  21.020  -1.259  0.00  0.00     0.218 HD
ENDBRANCH   6  22
BRANCH   8  24
HETATM   24  O   UNK     0      10.994  16.313  -1.450  0.00  0.00    -0.360 OA
HETATM   25  H   UNK     0      11.540  16.151  -2.234  0.00  0.00     0.217 HD
ENDBRANCH   8  24
BRANCH  10  26
HETATM   26  O   UNK     0      12.440  14.012   2.445  0.00  0.00    -0.361 OA
HETATM   27  H   UNK     0      12.928  13.293   2.006  0.00  0.00     0.217 HD
ENDBRANCH  10  26
TORSDOF 6
ENDMDL
MODEL 2
REMARK VINA RESULT:      -6.9     19.688     23.611
REMARK  6 active torsions:
REMARK  status: ('A' for Active; 'I' for Inactive)
REMARK    1  A    between atoms: O_2  and  C_12 
REMARK    2  A    between atoms: O_3  and  C_14 
REMARK    3  A    between atoms: O_5  and  C_16 
REMARK    4  A    between atoms: O_6  and  C_20 
REMARK    5  A    between atoms: O_7  and  C_22 
REMARK    6  A    between atoms: C_10  and  C_11 
ROOT
HETATM    1  O   UNK     0      28.696  28.601  15.110  0.00  0.00    -0.306 OA
HETATM    2  O   UNK     0      31.241  25.875  16.752  0.00  0.00    -0.284 OA
HETATM    3  C   UNK     0      29.784  26.436  14.984  0.00  0.00     0.084 A 
HETATM    4  C   UNK     0      28.925  27.409  14.476  0.00  0.00     0.096 A 
HETATM    5  C   UNK     0      29.357  28.856  16.302  0.00  0.00     0.123 A 
HETATM    6  C   UNK     0      30.204  27.999  16.902  0.00  0.00     0.152 A 
HETATM    7  C   UNK     0      30.479  26.694  16.254  0.00  0.00     0.223 A 
HETATM    8  C   UNK     0      29.978  25.237  14.293  0.00  0.00     0.085 A 
HETATM    9  C   UNK     0      28.252  27.187  13.274  0.00  0.00     0.075 A 
HETATM   10  C   UNK     0      28.445  25.990  12.582  0.00  0.00     0.071 A 
HETATM   11  C   UNK     0      29.306  25.018  13.091  0.00  0.00     0.074 A 
ENDROOT
BRANCH   5  12
HETATM   12  C   UNK     0      29.022  30.170  16.877  0.00  0.00     0.004 A 
HETATM   13  C   UNK     0      27.989  30.282  17.807  0.00  0.00     0.053 A 
HETATM   14  C   UNK     0      27.672  31.527  18.352  0.00  0.00     0.099 A 
HETATM   15  C   UNK     0      28.389  32.660  17.965  0.00  0.00     0.098 A 
HETATM   16  C   UNK     0      29.422  32.548  17.035  0.00  0.00     0.040 A 
HETATM   17  C   UNK     0      29.739  31.303  16.491  0.00  0.00     0.017 A 
BRANCH  14  18
HETATM   18  O   UNK     0      26.661  31.625  19.258  0.00  0.00    -0.358 OA
HETATM   19  H   UNK     0      26.769  32.433  19.786  0.00  0.00     0.217 HD
ENDBRANCH  14  18
BRANCH  15  20
HETATM   20  O   UNK     0      28.091  33.880  18.492  0.00  0.00    -0.358 OA
HETATM   21  H   UNK     0      28.362  34.578  17.875  0.00  0.00     0.217 HD
ENDBRANCH  15  20
ENDBRANCH   5  12
BRANCH   6  22
HETATM   22  O   UNK     0      30.821  28.269  18.104  0.00  0.00    -0.355 OA
HETATM   23  H   UNK     0      30.241  28.009  18.838  0.00  0.00     0.218 HD
ENDBRANCH   6  22
BRANCH   8  24
HETATM   24  O   UNK     0      30.807  24.254  14.746  0.00  0.00    -0.360 OA
HETATM   25  H   UNK     0      31.517  24.631  15.287  0.00  0.00     0.217 HD
ENDBRANCH   8  24
BRANCH  10  26
HETATM   26  O   UNK     0      27.789  25.773  11.408  0.00  0.00    -0.361 OA
HETATM   27  H   UNK     0      28.433  25.491  10.736  0.00  0.00     0.217 HD
ENDBRANCH  10  26
TORSDOF 6
ENDMDL
MODEL 3
REMARK VINA RESULT:      -6.9      1.605      6.777
REMARK  6 active torsions:
REMARK  status: ('A' for Active; 'I' for Inactive)
REMARK    1  A    between atoms: O_2  and  C_12 
REMARK    2  A    between atoms: O_3  and  C_14 
REMARK    3  A    between atoms: O_5  and  C_16 
REMARK    4  A    between atoms: O_6  and  C_20 
REMARK    5  A    between atoms: O_7  and  C_22 
REMARK    6  A    between atoms: C_10  and  C_11 
ROOT
HETATM    1  O   UNK     0      14.742  19.399   1.562  0.00  0.00    -0.306 OA
HETATM    2  O   UNK     0      12.445  22.761   1.401  0.00  0.00    -0.284 OA
HETATM    3  C   UNK     0      14.596  21.821   1.622  0.00  0.00     0.084 A 
HETATM    4  C   UNK     0      15.326  20.635   1.670  0.00  0.00     0.096 A 
HETATM    5  C   UNK     0      13.369  19.329   1.384  0.00  0.00     0.123 A 
HETATM    6  C   UNK     0      12.552  20.396   1.329  0.00  0.00     0.152 A 
HETATM    7  C   UNK     0      13.138  21.753   1.446  0.00  0.00     0.223 A 
HETATM    8  C   UNK     0      15.246  23.053   1.738  0.00  0.00     0.085 A 
HETATM    9  C   UNK     0      16.710  20.673   1.838  0.00  0.00     0.075 A 
HETATM   10  C   UNK     0      17.361  21.902   1.955  0.00  0.00     0.071 A 
HETATM   11  C   UNK     0      16.630  23.088   1.905  0.00  0.00     0.074 A 
ENDROOT
BRANCH   5  12
HETATM   12  C   UNK     0      12.873  17.945   1.283  0.00  0.00     0.004 A 
HETATM   13  C   UNK     0      12.772  17.330   0.035  0.00  0.00     0.053 A 
HETATM   14  C   UNK     0      12.302  16.020  -0.060  0.00  0.00     0.099 A 
HETATM   15  C   UNK     0      11.933  15.326   1.093  0.00  0.00     0.098 A 
HETATM   16  C   UNK     0      12.034  15.941   2.340  0.00  0.00     0.040 A 
HETATM   17  C   UNK     0      12.504  17.251   2.436  0.00  0.00     0.017 A 
BRANCH  14  18
HETATM   18  O   UNK     0      12.205  15.429  -1.283  0.00  0.00    -0.358 OA
HETATM   19  H   UNK     0      12.589  14.538  -1.249  0.00  0.00     0.217 HD
ENDBRANCH  14  18
BRANCH  15  20
HETATM   20  O   UNK     0      11.474  14.045   1.012  0.00  0.00    -0.358 OA
HETATM   21  H   UNK     0      11.811  13.529   1.761  0.00  0.00     0.217 HD
ENDBRANCH  15  20
ENDBRANCH   5  12
BRANCH   6  22
HETATM   22  O   UNK     0      11.185  20.291   1.184  0.00  0.00    -0.355 OA
HETATM   23  H   UNK     0      10.971  19.533   0.616  0.00  0.00     0.218 HD
ENDBRANCH   6  22
BRANCH   8  24
HETATM   24  O   UNK     0      14.580  24.241   1.697  0.00  0.00    -0.360 OA
HETATM   25  H   UNK     0      15.053  24.877   1.140  0.00  0.00     0.217 HD
ENDBRANCH   8  24
BRANCH  10  26
HETATM   26  O   UNK     0      18.713  21.940   2.119  0.00  0.00    -0.361 OA
HETATM   27  H   UNK     0      19.139  21.762   1.262  0.00  0.00     0.217 HD
ENDBRANCH  10  26
TORSDOF 6
ENDMDL
MODEL 4
REMARK VINA RESULT:      -6.9      1.831      2.547
REMARK  6 active torsions:
REMARK  status: ('A' for Active; 'I' for Inactive)
REMARK    1  A    between atoms: O_2  and  C_12 
REMARK    2  A    between atoms: O_3  and  C_14 
REMARK    3  A    between atoms: O_5  and  C_16 
REMARK    4  A    between atoms: O_6  and  C_20 
REMARK    5  A    between atoms: O_7  and  C_22 
REMARK    6  A    between atoms: C_10  and  C_11 
ROOT
HETATM    1  O   UNK     0      13.739  19.016   0.289  0.00  0.00    -0.306 OA
HETATM    2  O   UNK     0      10.759  19.185   3.064  0.00  0.00    -0.284 OA
HETATM    3  C   UNK     0      11.623  18.166   1.120  0.00  0.00     0.084 A 
HETATM    4  C   UNK     0      12.673  18.160   0.204  0.00  0.00     0.096 A 
HETATM    5  C   UNK     0      13.781  19.918   1.341  0.00  0.00     0.123 A 
HETATM    6  C   UNK     0      12.830  20.032   2.287  0.00  0.00     0.152 A 
HETATM    7  C   UNK     0      11.655  19.129   2.231  0.00  0.00     0.223 A 
HETATM    8  C   UNK     0      10.561  17.269   0.982  0.00  0.00     0.085 A 
HETATM    9  C   UNK     0      12.665  17.257  -0.860  0.00  0.00     0.075 A 
HETATM   10  C   UNK     0      11.605  16.360  -1.001  0.00  0.00     0.071 A 
HETATM   11  C   UNK     0      10.556  16.367  -0.082  0.00  0.00     0.074 A 
ENDROOT
BRANCH   5  12
HETATM   12  C   UNK     0      14.977  20.777   1.316  0.00  0.00     0.004 A 
HETATM   13  C   UNK     0      16.182  20.312   1.843  0.00  0.00     0.053 A 
HETATM   14  C   UNK     0      17.315  21.126   1.819  0.00  0.00     0.099 A 
HETATM   15  C   UNK     0      17.243  22.405   1.265  0.00  0.00     0.098 A 
HETATM   16  C   UNK     0      16.039  22.869   0.737  0.00  0.00     0.040 A 
HETATM   17  C   UNK     0      14.906  22.056   0.762  0.00  0.00     0.017 A 
BRANCH  14  18
HETATM   18  O   UNK     0      18.485  20.663   2.339  0.00  0.00    -0.358 OA
HETATM   19  H   UNK     0      19.015  20.249   1.638  0.00  0.00     0.217 HD
ENDBRANCH  14  18
BRANCH  15  20
HETATM   20  O   UNK     0      18.343  23.208   1.233  0.00  0.00    -0.358 OA
HETATM   21  H   UNK     0      18.583  23.471   2.136  0.00  0.00     0.217 HD
ENDBRANCH  15  20
ENDBRANCH   5  12
BRANCH   6  22
HETATM   22  O   UNK     0      12.885  20.962   3.302  0.00  0.00    -0.355 OA
HETATM   23  H   UNK     0      12.206  20.764   3.968  0.00  0.00     0.218 HD
ENDBRANCH   6  22
BRANCH   8  24
HETATM   24  O   UNK     0       9.511  17.234   1.850  0.00  0.00    -0.360 OA
HETATM   25  H   UNK     0       9.497  18.032   2.399  0.00  0.00     0.217 HD
ENDBRANCH   8  24
BRANCH  10  26
HETATM   26  O   UNK     0      11.596  15.478  -2.039  0.00  0.00    -0.361 OA
HETATM   27  H   UNK     0      10.826  14.891  -1.946  0.00  0.00     0.217 HD
ENDBRANCH  10  26
TORSDOF 6
ENDMDL
MODEL 5
REMARK VINA RESULT:      -6.9     34.442     38.048
REMARK  6 active torsions:
REMARK  status: ('A' for Active; 'I' for Inactive)
REMARK    1  A    between atoms: O_2  and  C_12 
REMARK    2  A    between atoms: O_3  and  C_14 
REMARK    3  A    between atoms: O_5  and  C_16 
REMARK    4  A    between atoms: O_6  and  C_20 
REMARK    5  A    between atoms: O_7  and  C_22 
REMARK    6  A    between atoms: C_10  and  C_11 
ROOT
HETATM    1  O   UNK     0      35.605  27.442  29.986  0.00  0.00    -0.306 OA
HETATM    2  O   UNK     0      34.000  25.586  33.239  0.00  0.00    -0.284 OA
HETATM    3  C   UNK     0      33.790  26.161  30.962  0.00  0.00     0.084 A 
HETATM    4  C   UNK     0      34.391  26.814  29.888  0.00  0.00     0.096 A 
HETATM    5  C   UNK     0      36.268  27.415  31.203  0.00  0.00     0.123 A 
HETATM    6  C   UNK     0      35.793  26.827  32.317  0.00  0.00     0.152 A 
HETATM    7  C   UNK     0      34.481  26.139  32.260  0.00  0.00     0.223 A 
HETATM    8  C   UNK     0      32.549  25.538  30.802  0.00  0.00     0.085 A 
HETATM    9  C   UNK     0      33.754  26.850  28.647  0.00  0.00     0.075 A 
HETATM   10  C   UNK     0      32.515  26.229  28.485  0.00  0.00     0.071 A 
HETATM   11  C   UNK     0      31.915  25.574  29.561  0.00  0.00     0.074 A 
ENDROOT
BRANCH   5  12
HETATM   12  C   UNK     0      37.558  28.126  31.172  0.00  0.00     0.004 A 
HETATM   13  C   UNK     0      37.587  29.519  31.124  0.00  0.00     0.053 A 
HETATM   14  C   UNK     0      38.808  30.192  31.095  0.00  0.00     0.099 A 
HETATM   15  C   UNK     0      40.002  29.470  31.113  0.00  0.00     0.098 A 
HETATM   16  C   UNK     0      39.974  28.076  31.162  0.00  0.00     0.040 A 
HETATM   17  C   UNK     0      38.752  27.404  31.191  0.00  0.00     0.017 A 
BRANCH  14  18
HETATM   18  O   UNK     0      38.824  31.553  31.046  0.00  0.00    -0.358 OA
HETATM   19  H   UNK     0      39.713  31.879  31.264  0.00  0.00     0.217 HD
ENDBRANCH  14  18
BRANCH  15  20
HETATM   20  O   UNK     0      41.202  30.115  31.087  0.00  0.00    -0.358 OA
HETATM   21  H   UNK     0      41.729  29.798  30.337  0.00  0.00     0.217 HD
ENDBRANCH  15  20
ENDBRANCH   5  12
BRANCH   6  22
HETATM   22  O   UNK     0      36.462  26.846  33.522  0.00  0.00    -0.355 OA
HETATM   23  H   UNK     0      36.706  25.942  33.778  0.00  0.00     0.218 HD
ENDBRANCH   6  22
BRANCH   8  24
HETATM   24  O   UNK     0      31.918  24.886  31.819  0.00  0.00    -0.360 OA
HETATM   25  H   UNK     0      31.271  25.467  32.247  0.00  0.00     0.217 HD
ENDBRANCH   8  24
BRANCH  10  26
HETATM   26  O   UNK     0      31.892  26.263  27.274  0.00  0.00    -0.361 OA
HETATM   27  H   UNK     0      31.202  25.578  27.256  0.00  0.00     0.217 HD
ENDBRANCH  10  26
TORSDOF 6
ENDMDL
MODEL 6
REMARK VINA RESULT:      -6.8     32.202     35.343
REMARK  6 active torsions:
REMARK  status: ('A' for Active; 'I' for Inactive)
REMARK    1  A    between atoms: O_2  and  C_12 
REMARK    2  A    between atoms: O_3  and  C_14 
REMARK    3  A    between atoms: O_5  and  C_16 
REMARK    4  A    between atoms: O_6  and  C_20 
REMARK    5  A    between atoms: O_7  and  C_22 
REMARK    6  A    between atoms: C_10  and  C_11 
ROOT
HETATM    1  O   UNK     0      27.748  23.245  31.731  0.00  0.00    -0.306 OA
HETATM    2  O   UNK     0      31.737  23.052  32.542  0.00  0.00    -0.284 OA
HETATM    3  C   UNK     0      30.021  23.856  31.138  0.00  0.00     0.084 A 
HETATM    4  C   UNK     0      28.645  23.883  30.915  0.00  0.00     0.096 A 
HETATM    5  C   UNK     0      28.229  22.555  32.833  0.00  0.00     0.123 A 
HETATM    6  C   UNK     0      29.531  22.445  33.155  0.00  0.00     0.152 A 
HETATM    7  C   UNK     0      30.539  23.115  32.298  0.00  0.00     0.223 A 
HETATM    8  C   UNK     0      30.888  24.525  30.271  0.00  0.00     0.085 A 
HETATM    9  C   UNK     0      28.129  24.577  29.820  0.00  0.00     0.075 A 
HETATM   10  C   UNK     0      28.994  25.246  28.953  0.00  0.00     0.071 A 
HETATM   11  C   UNK     0      30.370  25.219  29.178  0.00  0.00     0.074 A 
ENDROOT
BRANCH   5  12
HETATM   12  C   UNK     0      27.162  21.918  33.624  0.00  0.00     0.004 A 
HETATM   13  C   UNK     0      26.506  22.640  34.621  0.00  0.00     0.053 A 
HETATM   14  C   UNK     0      25.495  22.036  35.369  0.00  0.00     0.099 A 
HETATM   15  C   UNK     0      25.141  20.709  35.120  0.00  0.00     0.098 A 
HETATM   16  C   UNK     0      25.796  19.988  34.123  0.00  0.00     0.040 A 
HETATM   17  C   UNK     0      26.807  20.591  33.375  0.00  0.00     0.017 A 
BRANCH  14  18
HETATM   18  O   UNK     0      24.863  22.750  36.342  0.00  0.00    -0.358 OA
HETATM   19  H   UNK     0      25.486  23.372  36.750  0.00  0.00     0.217 HD
ENDBRANCH  14  18
BRANCH  15  20
HETATM   20  O   UNK     0      24.154  20.110  35.843  0.00  0.00    -0.358 OA
HETATM   21  H   UNK     0      24.357  19.168  35.957  0.00  0.00     0.217 HD
ENDBRANCH  15  20
ENDBRANCH   5  12
BRANCH   6  22
HETATM   22  O   UNK     0      29.980  21.724  34.240  0.00  0.00    -0.355 OA
HETATM   23  H   UNK     0      30.569  21.011  33.942  0.00  0.00     0.218 HD
ENDBRANCH   6  22
BRANCH   8  24
HETATM   24  O   UNK     0      32.240  24.530  30.444  0.00  0.00    -0.360 OA
HETATM   25  H   UNK     0      32.500  25.220  31.073  0.00  0.00     0.217 HD
ENDBRANCH   8  24
BRANCH  10  26
HETATM   26  O   UNK     0      28.491  25.924  27.884  0.00  0.00    -0.361 OA
HETATM   27  H   UNK     0      28.663  26.874  28.006  0.00  0.00     0.217 HD
ENDBRANCH  10  26
TORSDOF 6
ENDMDL
MODEL 7
REMARK VINA RESULT:      -6.7     20.201     23.692
REMARK  6 active torsions:
REMARK  status: ('A' for Active; 'I' for Inactive)
REMARK    1  A    between atoms: O_2  and  C_12 
REMARK    2  A    between atoms: O_3  and  C_14 
REMARK    3  A    between atoms: O_5  and  C_16 
REMARK    4  A    between atoms: O_6  and  C_20 
REMARK    5  A    between atoms: O_7  and  C_22 
REMARK    6  A    between atoms: C_10  and  C_11 
ROOT
HETATM    1  O   UNK     0      28.519  29.344  15.628  0.00  0.00    -0.306 OA
HETATM    2  O   UNK     0      29.891  32.679  13.730  0.00  0.00    -0.284 OA
HETATM    3  C   UNK     0      28.633  31.765  15.504  0.00  0.00     0.084 A 
HETATM    4  C   UNK     0      28.195  30.587  16.106  0.00  0.00     0.096 A 
HETATM    5  C   UNK     0      29.327  29.256  14.505  0.00  0.00     0.123 A 
HETATM    6  C   UNK     0      29.809  30.314  13.827  0.00  0.00     0.152 A 
HETATM    7  C   UNK     0      29.480  31.679  14.304  0.00  0.00     0.223 A 
HETATM    8  C   UNK     0      28.270  33.005  16.035  0.00  0.00     0.085 A 
HETATM    9  C   UNK     0      27.388  30.642  17.243  0.00  0.00     0.075 A 
HETATM   10  C   UNK     0      27.024  31.879  17.775  0.00  0.00     0.071 A 
HETATM   11  C   UNK     0      27.464  33.058  17.172  0.00  0.00     0.074 A 
ENDROOT
BRANCH   5  12
HETATM   12  C   UNK     0      29.598  27.866  14.099  0.00  0.00     0.004 A 
HETATM   13  C   UNK     0      28.860  27.283  13.069  0.00  0.00     0.053 A 
HETATM   14  C   UNK     0      29.117  25.967  12.684  0.00  0.00     0.099 A 
HETATM   15  C   UNK     0      30.113  25.234  13.330  0.00  0.00     0.098 A 
HETATM   16  C   UNK     0      30.851  25.816  14.359  0.00  0.00     0.040 A 
HETATM   17  C   UNK     0      30.594  27.132  14.744  0.00  0.00     0.017 A 
BRANCH  14  18
HETATM   18  O   UNK     0      28.388  25.408  11.679  0.00  0.00    -0.358 OA
HETATM   19  H   UNK     0      28.330  24.448  11.810  0.00  0.00     0.217 HD
ENDBRANCH  14  18
BRANCH  15  20
HETATM   20  O   UNK     0      30.374  23.948  12.961  0.00  0.00    -0.358 OA
HETATM   21  H   UNK     0      30.139  23.346  13.685  0.00  0.00     0.217 HD
ENDBRANCH  15  20
ENDBRANCH   5  12
BRANCH   6  22
HETATM   22  O   UNK     0      30.584  30.193  12.694  0.00  0.00    -0.355 OA
HETATM   23  H   UNK     0      30.226  29.494  12.123  0.00  0.00     0.218 HD
ENDBRANCH   6  22
BRANCH   8  24
HETATM   24  O   UNK     0      28.671  34.186  15.485  0.00  0.00    -0.360 OA
HETATM   25  H   UNK     0      28.527  34.181  14.527  0.00  0.00     0.217 HD
ENDBRANCH   8  24
BRANCH  10  26
HETATM   26  O   UNK     0      26.237  31.935  18.885  0.00  0.00    -0.361 OA
HETATM   27  H   UNK     0      25.387  31.505  18.690  0.00  0.00     0.217 HD
ENDBRANCH  10  26
TORSDOF 6
ENDMDL
MODEL 8
REMARK VINA RESULT:      -6.6     21.039     22.940
REMARK  6 active torsions:
REMARK  status: ('A' for Active; 'I' for Inactive)
REMARK    1  A    between atoms: O_2  and  C_12 
REMARK    2  A    between atoms: O_3  and  C_14 
REMARK    3  A    between atoms: O_5  and  C_16 
REMARK    4  A    between atoms: O_6  and  C_20 
REMARK    5  A    between atoms: O_7  and  C_22 
REMARK    6  A    between atoms: C_10  and  C_11 
ROOT
HETATM    1  O   UNK     0      14.652  15.942  22.672  0.00  0.00    -0.306 OA
HETATM    2  O   UNK     0      14.138  12.568  24.898  0.00  0.00    -0.284 OA
HETATM    3  C   UNK     0      15.632  14.133  23.959  0.00  0.00     0.084 A 
HETATM    4  C   UNK     0      15.740  15.289  23.190  0.00  0.00     0.096 A 
HETATM    5  C   UNK     0      13.389  15.436  22.937  0.00  0.00     0.123 A 
HETATM    6  C   UNK     0      13.148  14.325  23.657  0.00  0.00     0.152 A 
HETATM    7  C   UNK     0      14.295  13.583  24.233  0.00  0.00     0.223 A 
HETATM    8  C   UNK     0      16.778  13.509  24.459  0.00  0.00     0.085 A 
HETATM    9  C   UNK     0      16.998  15.829  22.914  0.00  0.00     0.075 A 
HETATM   10  C   UNK     0      18.143  15.208  23.412  0.00  0.00     0.071 A 
HETATM   11  C   UNK     0      18.033  14.050  24.183  0.00  0.00     0.074 A 
ENDROOT
BRANCH   5  12
HETATM   12  C   UNK     0      12.311  16.231  22.324  0.00  0.00     0.004 A 
HETATM   13  C   UNK     0      12.167  16.261  20.937  0.00  0.00     0.053 A 
HETATM   14  C   UNK     0      11.146  17.014  20.357  0.00  0.00     0.099 A 
HETATM   15  C   UNK     0      10.268  17.737  21.165  0.00  0.00     0.098 A 
HETATM   16  C   UNK     0      10.411  17.707  22.552  0.00  0.00     0.040 A 
HETATM   17  C   UNK     0      11.432  16.954  23.132  0.00  0.00     0.017 A 
BRANCH  14  18
HETATM   18  O   UNK     0      11.017  17.037  19.001  0.00  0.00    -0.358 OA
HETATM   19  H   UNK     0      10.758  17.927  18.711  0.00  0.00     0.217 HD
ENDBRANCH  14  18
BRANCH  15  20
HETATM   20  O   UNK     0       9.265  18.474  20.610  0.00  0.00    -0.358 OA
HETATM   21  H   UNK     0       8.570  17.884  20.278  0.00  0.00     0.217 HD
ENDBRANCH  15  20
ENDBRANCH   5  12
BRANCH   6  22
HETATM   22  O   UNK     0      11.881  13.830  23.875  0.00  0.00    -0.355 OA
HETATM   23  H   UNK     0      11.752  13.659  24.822  0.00  0.00     0.218 HD
ENDBRANCH   6  22
BRANCH   8  24
HETATM   24  O   UNK     0      16.726  12.377  25.216  0.00  0.00    -0.360 OA
HETATM   25  H   UNK     0      17.282  12.469  26.005  0.00  0.00     0.217 HD
ENDBRANCH   8  24
BRANCH  10  26
HETATM   26  O   UNK     0      19.371  15.734  23.145  0.00  0.00    -0.361 OA
HETATM   27  H   UNK     0      19.417  15.959  22.199  0.00  0.00     0.217 HD
ENDBRANCH  10  26
TORSDOF 6
ENDMDL
MODEL 9
REMARK VINA RESULT:      -6.5     27.628     29.809
REMARK  6 active torsions:
REMARK  status: ('A' for Active; 'I' for Inactive)
REMARK    1  A    between atoms: O_2  and  C_12 
REMARK    2  A    between atoms: O_3  and  C_14 
REMARK    3  A    between atoms: O_5  and  C_16 
REMARK    4  A    between atoms: O_6  and  C_20 
REMARK    5  A    between atoms: O_7  and  C_22 
REMARK    6  A    between atoms: C_10  and  C_11 
ROOT
HETATM    1  O   UNK     0       5.848  28.430  27.105  0.00  0.00    -0.306 OA
HETATM    2  O   UNK     0       8.281  29.771  30.086  0.00  0.00    -0.284 OA
HETATM    3  C   UNK     0       6.467  30.204  28.642  0.00  0.00     0.084 A 
HETATM    4  C   UNK     0       5.671  29.687  27.622  0.00  0.00     0.096 A 
HETATM    5  C   UNK     0       6.855  27.635  27.629  0.00  0.00     0.123 A 
HETATM    6  C   UNK     0       7.697  28.016  28.607  0.00  0.00     0.152 A 
HETATM    7  C   UNK     0       7.546  29.370  29.193  0.00  0.00     0.223 A 
HETATM    8  C   UNK     0       6.241  31.494  29.128  0.00  0.00     0.085 A 
HETATM    9  C   UNK     0       4.642  30.460  27.080  0.00  0.00     0.075 A 
HETATM   10  C   UNK     0       4.414  31.748  27.564  0.00  0.00     0.071 A 
HETATM   11  C   UNK     0       5.212  32.263  28.586  0.00  0.00     0.074 A 
ENDROOT
BRANCH   5  12
HETATM   12  C   UNK     0       6.936  26.311  26.987  0.00  0.00     0.004 A 
HETATM   13  C   UNK     0       7.636  26.158  25.790  0.00  0.00     0.053 A 
HETATM   14  C   UNK     0       7.713  24.905  25.182  0.00  0.00     0.099 A 
HETATM   15  C   UNK     0       7.089  23.805  25.771  0.00  0.00     0.098 A 
HETATM   16  C   UNK     0       6.390  23.958  26.968  0.00  0.00     0.040 A 
HETATM   17  C   UNK     0       6.313  25.211  27.576  0.00  0.00     0.017 A 
BRANCH  14  18
HETATM   18  O   UNK     0       8.398  24.768  24.013  0.00  0.00    -0.358 OA
HETATM   19  H   UNK     0       8.205  23.901  23.619  0.00  0.00     0.217 HD
ENDBRANCH  14  18
BRANCH  15  20
HETATM   20  O   UNK     0       7.160  22.575  25.188  0.00  0.00    -0.358 OA
HETATM   21  H   UNK     0       6.528  21.974  25.614  0.00  0.00     0.217 HD
ENDBRANCH  15  20
ENDBRANCH   5  12
BRANCH   6  22
HETATM   22  O   UNK     0       8.709  27.213  29.084  0.00  0.00    -0.355 OA
HETATM   23  H   UNK     0       8.601  26.309  28.745  0.00  0.00     0.218 HD
ENDBRANCH   6  22
BRANCH   8  24
HETATM   24  O   UNK     0       6.991  32.045  30.123  0.00  0.00    -0.360 OA
HETATM   25  H   UNK     0       6.474  32.701  30.615  0.00  0.00     0.217 HD
ENDBRANCH   8  24
BRANCH  10  26
HETATM   26  O   UNK     0       3.410  32.503  27.037  0.00  0.00    -0.361 OA
HETATM   27  H   UNK     0       2.687  32.561  27.685  0.00  0.00     0.217 HD
ENDBRANCH  10  26
TORSDOF 6
ENDMDL
