MODEL 1
REMARK VINA RESULT:     -10.1      0.000      0.000
REMARK  16 active torsions:
REMARK  status: ('A' for Active; 'I' for Inactive)
REMARK    1  A    between atoms: O_2  and  C_22 
REMARK    2  A    between atoms: O_2  and  C_26 
REMARK    3  A    between atoms: O_4  and  C_18 
REMARK    4  A    between atoms: O_5  and  C_19 
REMARK    5  A    between atoms: O_6  and  C_25 
REMARK    6  A    between atoms: O_6  and  C_29 
REMARK    7  A    between atoms: O_7  and  C_20 
REMARK    8  A    between atoms: O_8  and  C_21 
REMARK    9  A    between atoms: O_9  and  C_23 
REMARK   10  A    between atoms: O_10  and  C_24 
REMARK   11  A    between atoms: O_13  and  C_35 
REMARK   12  A    between atoms: O_14  and  C_40 
REMARK   13  A    between atoms: O_15  and  C_41 
REMARK   14  A    between atoms: O_16  and  C_43 
REMARK   15  A    between atoms: C_17  and  C_26 
REMARK   16  A    between atoms: C_30  and  C_33 
ROOT
HETATM    1  O   UNK     0     183.710 178.414 179.738  0.00  0.00    -0.348 OA
HETATM    2  C   UNK     0     184.445 177.848 178.652  0.00  0.00     0.180 C 
HETATM    3  C   UNK     0     183.840 178.299 177.320  0.00  0.00     0.180 C 
HETATM    4  C   UNK     0     182.356 177.939 177.249  0.00  0.00     0.183 C 
HETATM    5  C   UNK     0     181.615 178.394 178.507  0.00  0.00     0.205 C 
HETATM    6  C   UNK     0     182.356 177.966 179.773  0.00  0.00     0.298 C 
ENDROOT
BRANCH   2   7
HETATM    7  C   UNK     0     185.896 178.299 178.795  0.00  0.00     0.205 C 
BRANCH   7   8
HETATM    8  O   UNK     0     186.752 177.215 178.467  0.00  0.00    -0.356 OA
BRANCH   8   9
HETATM    9  C   UNK     0     188.045 177.381 179.040  0.00  0.00     0.291 C 
HETATM   10  O   UNK     0     188.751 176.142 179.160  0.00  0.00    -0.351 OA
HETATM   11  C   UNK     0     188.143 175.205 180.055  0.00  0.00     0.152 C 
HETATM   12  C   UNK     0     188.030 175.787 181.470  0.00  0.00     0.178 C 
HETATM   13  C   UNK     0     188.998 173.940 180.024  0.00  0.00     0.042 C 
HETATM   14  C   UNK     0     187.293 177.127 181.430  0.00  0.00     0.183 C 
HETATM   15  C   UNK     0     187.922 178.066 180.400  0.00  0.00     0.204 C 
BRANCH  12  16
HETATM   16  O   UNK     0     187.294 174.902 182.312  0.00  0.00    -0.390 OA
HETATM   17  H   UNK     0     186.496 174.625 181.829  0.00  0.00     0.210 HD
ENDBRANCH  12  16
BRANCH  14  18
HETATM   18  O   UNK     0     187.336 177.725 182.724  0.00  0.00    -0.390 OA
HETATM   19  H   UNK     0     186.872 178.579 182.671  0.00  0.00     0.210 HD
ENDBRANCH  14  18
BRANCH  15  20
HETATM   20  O   UNK     0     189.236 178.439 180.819  0.00  0.00    -0.388 OA
HETATM   21  H   UNK     0     189.161 179.184 181.439  0.00  0.00     0.210 HD
ENDBRANCH  15  20
ENDBRANCH   8   9
ENDBRANCH   7   8
ENDBRANCH   2   7
BRANCH   6  22
HETATM   22  O   UNK     0     181.686 178.545 180.892  0.00  0.00    -0.311 OA
BRANCH  22  23
HETATM   23  C   UNK     0     181.710 177.709 181.987  0.00  0.00     0.157 A 
HETATM   24  C   UNK     0     180.674 176.925 182.335  0.00  0.00     0.124 A 
HETATM   25  O   UNK     0     180.653 176.098 183.448  0.00  0.00    -0.306 OA
HETATM   26  C   UNK     0     181.766 176.048 184.247  0.00  0.00     0.096 A 
HETATM   27  C   UNK     0     182.910 176.801 183.995  0.00  0.00     0.084 A 
HETATM   28  C   UNK     0     181.718 175.199 185.353  0.00  0.00     0.075 A 
HETATM   29  C   UNK     0     182.934 177.692 182.824  0.00  0.00     0.223 A 
HETATM   30  C   UNK     0     184.016 176.712 184.846  0.00  0.00     0.085 A 
HETATM   31  O   UNK     0     183.909 178.381 182.556  0.00  0.00    -0.284 OA
HETATM   32  C   UNK     0     183.966 175.861 185.951  0.00  0.00     0.074 A 
HETATM   33  C   UNK     0     182.820 175.106 186.204  0.00  0.00     0.071 A 
BRANCH  24  34
HETATM   34  C   UNK     0     179.418 176.884 181.566  0.00  0.00     0.004 A 
HETATM   35  C   UNK     0     178.551 177.977 181.586  0.00  0.00     0.053 A 
HETATM   36  C   UNK     0     177.363 177.939 180.856  0.00  0.00     0.099 A 
HETATM   37  C   UNK     0     177.041 176.807 180.107  0.00  0.00     0.098 A 
HETATM   38  C   UNK     0     177.907 175.714 180.087  0.00  0.00     0.040 A 
HETATM   39  C   UNK     0     179.095 175.753 180.816  0.00  0.00     0.017 A 
BRANCH  36  40
HETATM   40  O   UNK     0     176.523 179.012 180.885  0.00  0.00    -0.358 OA
HETATM   41  H   UNK     0     176.775 179.642 180.190  0.00  0.00     0.217 HD
ENDBRANCH  36  40
BRANCH  37  42
HETATM   42  O   UNK     0     175.884 176.759 179.390  0.00  0.00    -0.358 OA
HETATM   43  H   UNK     0     175.684 177.638 179.031  0.00  0.00     0.217 HD
ENDBRANCH  37  42
ENDBRANCH  24  34
BRANCH  30  44
HETATM   44  O   UNK     0     185.157 177.426 184.646  0.00  0.00    -0.360 OA
HETATM   45  H   UNK     0     185.653 177.488 185.481  0.00  0.00     0.217 HD
ENDBRANCH  30  44
BRANCH  33  46
HETATM   46  O   UNK     0     182.776 174.278 187.283  0.00  0.00    -0.361 OA
HETATM   47  H   UNK     0     183.359 174.631 187.976  0.00  0.00     0.217 HD
ENDBRANCH  33  46
ENDBRANCH  22  23
ENDBRANCH   6  22
BRANCH   3  48
HETATM   48  O   UNK     0     184.531 177.661 176.249  0.00  0.00    -0.390 OA
HETATM   49  H   UNK     0     184.804 176.779 176.550  0.00  0.00     0.210 HD
ENDBRANCH   3  48
BRANCH   5  50
HETATM   50  O   UNK     0     180.314 177.808 178.529  0.00  0.00    -0.388 OA
HETATM   51  H   UNK     0     179.993 177.822 179.446  0.00  0.00     0.210 HD
ENDBRANCH   5  50
BRANCH   4  52
HETATM   52  O   UNK     0     181.798 178.592 176.107  0.00  0.00    -0.390 OA
HETATM   53  H   UNK     0     181.073 179.158 176.420  0.00  0.00     0.210 HD
ENDBRANCH   4  52
TORSDOF 16
ENDMDL
MODEL 2
REMARK VINA RESULT:      -9.1      2.079      4.410
REMARK  16 active torsions:
REMARK  status: ('A' for Active; 'I' for Inactive)
REMARK    1  A    between atoms: O_2  and  C_22 
REMARK    2  A    between atoms: O_2  and  C_26 
REMARK    3  A    between atoms: O_4  and  C_18 
REMARK    4  A    between atoms: O_5  and  C_19 
REMARK    5  A    between atoms: O_6  and  C_25 
REMARK    6  A    between atoms: O_6  and  C_29 
REMARK    7  A    between atoms: O_7  and  C_20 
REMARK    8  A    between atoms: O_8  and  C_21 
REMARK    9  A    between atoms: O_9  and  C_23 
REMARK   10  A    between atoms: O_10  and  C_24 
REMARK   11  A    between atoms: O_13  and  C_35 
REMARK   12  A    between atoms: O_14  and  C_40 
REMARK   13  A    between atoms: O_15  and  C_41 
REMARK   14  A    between atoms: O_16  and  C_43 
REMARK   15  A    between atoms: C_17  and  C_26 
REMARK   16  A    between atoms: C_30  and  C_33 
ROOT
HETATM    1  O   UNK     0     183.575 177.927 180.049  0.00  0.00    -0.348 OA
HETATM    2  C   UNK     0     184.328 177.701 178.856  0.00  0.00     0.180 C 
HETATM    3  C   UNK     0     183.640 178.378 177.668  0.00  0.00     0.180 C 
HETATM    4  C   UNK     0     182.196 177.895 177.529  0.00  0.00     0.183 C 
HETATM    5  C   UNK     0     181.455 177.973 178.864  0.00  0.00     0.205 C 
HETATM    6  C   UNK     0     182.274 177.346 179.992  0.00  0.00     0.298 C 
ENDROOT
BRANCH   2   7
HETATM    7  C   UNK     0     185.731 178.253 179.087  0.00  0.00     0.205 C 
BRANCH   7   8
HETATM    8  O   UNK     0     186.676 177.383 178.481  0.00  0.00    -0.356 OA
BRANCH   8   9
HETATM    9  C   UNK     0     188.010 177.739 178.830  0.00  0.00     0.291 C 
HETATM   10  O   UNK     0     188.983 176.930 178.163  0.00  0.00    -0.351 OA
HETATM   11  C   UNK     0     188.938 175.545 178.520  0.00  0.00     0.152 C 
HETATM   12  C   UNK     0     189.165 175.356 180.026  0.00  0.00     0.178 C 
HETATM   13  C   UNK     0     190.004 174.834 177.688  0.00  0.00     0.042 C 
HETATM   14  C   UNK     0     188.168 176.202 180.818  0.00  0.00     0.183 C 
HETATM   15  C   UNK     0     188.186 177.656 180.346  0.00  0.00     0.204 C 
BRANCH  12  16
HETATM   16  O   UNK     0     188.974 173.990 180.388  0.00  0.00    -0.390 OA
HETATM   17  H   UNK     0     188.195 173.941 180.968  0.00  0.00     0.210 HD
ENDBRANCH  12  16
BRANCH  14  18
HETATM   18  O   UNK     0     188.494 176.137 182.205  0.00  0.00    -0.390 OA
HETATM   19  H   UNK     0     187.660 176.147 182.707  0.00  0.00     0.210 HD
ENDBRANCH  14  18
BRANCH  15  20
HETATM   20  O   UNK     0     189.441 178.258 180.671  0.00  0.00    -0.388 OA
HETATM   21  H   UNK     0     189.422 179.185 180.377  0.00  0.00     0.210 HD
ENDBRANCH  15  20
ENDBRANCH   8   9
ENDBRANCH   7   8
ENDBRANCH   2   7
BRANCH   6  22
HETATM   22  O   UNK     0     181.586 177.585 181.220  0.00  0.00    -0.311 OA
BRANCH  22  23
HETATM   23  C   UNK     0     181.551 176.456 182.009  0.00  0.00     0.157 A 
HETATM   24  C   UNK     0     182.409 176.241 183.022  0.00  0.00     0.124 A 
HETATM   25  O   UNK     0     182.421 175.103 183.814  0.00  0.00    -0.306 OA
HETATM   26  C   UNK     0     181.487 174.128 183.573  0.00  0.00     0.096 A 
HETATM   27  C   UNK     0     180.536 174.228 182.560  0.00  0.00     0.084 A 
HETATM   28  C   UNK     0     181.519 172.999 184.392  0.00  0.00     0.075 A 
HETATM   29  C   UNK     0     180.526 175.427 181.708  0.00  0.00     0.223 A 
HETATM   30  C   UNK     0     179.608 173.202 182.359  0.00  0.00     0.085 A 
HETATM   31  O   UNK     0     179.718 175.568 180.800  0.00  0.00    -0.284 OA
HETATM   32  C   UNK     0     179.642 172.074 183.181  0.00  0.00     0.074 A 
HETATM   33  C   UNK     0     180.594 171.973 184.195  0.00  0.00     0.071 A 
BRANCH  24  34
HETATM   34  C   UNK     0     183.462 177.205 183.387  0.00  0.00     0.004 A 
HETATM   35  C   UNK     0     183.174 178.257 184.257  0.00  0.00     0.053 A 
HETATM   36  C   UNK     0     184.171 179.168 184.604  0.00  0.00     0.099 A 
HETATM   37  C   UNK     0     185.456 179.030 184.080  0.00  0.00     0.098 A 
HETATM   38  C   UNK     0     185.744 177.978 183.210  0.00  0.00     0.040 A 
HETATM   39  C   UNK     0     184.747 177.066 182.864  0.00  0.00     0.017 A 
BRANCH  36  40
HETATM   40  O   UNK     0     183.877 180.193 185.453  0.00  0.00    -0.358 OA
HETATM   41  H   UNK     0     184.564 180.877 185.390  0.00  0.00     0.217 HD
ENDBRANCH  36  40
BRANCH  37  42
HETATM   42  O   UNK     0     186.438 179.913 184.412  0.00  0.00    -0.358 OA
HETATM   43  H   UNK     0     186.669 180.451 183.638  0.00  0.00     0.217 HD
ENDBRANCH  37  42
ENDBRANCH  24  34
BRANCH  30  44
HETATM   44  O   UNK     0     178.659 173.250 181.384  0.00  0.00    -0.360 OA
HETATM   45  H   UNK     0     178.098 174.034 181.516  0.00  0.00     0.217 HD
ENDBRANCH  30  44
BRANCH  33  46
HETATM   46  O   UNK     0     180.623 170.871 184.993  0.00  0.00    -0.361 OA
HETATM   47  H   UNK     0     181.537 170.721 185.291  0.00  0.00     0.217 HD
ENDBRANCH  33  46
ENDBRANCH  22  23
ENDBRANCH   6  22
BRANCH   3  48
HETATM   48  O   UNK     0     184.355 178.075 176.474  0.00  0.00    -0.390 OA
HETATM   49  H   UNK     0     185.235 178.482 176.538  0.00  0.00     0.210 HD
ENDBRANCH   3  48
BRANCH   5  50
HETATM   50  O   UNK     0     180.219 177.268 178.762  0.00  0.00    -0.388 OA
HETATM   51  H   UNK     0     179.704 177.664 178.040  0.00  0.00     0.210 HD
ENDBRANCH   5  50
BRANCH   4  52
HETATM   52  O   UNK     0     181.541 178.729 176.572  0.00  0.00    -0.390 OA
HETATM   53  H   UNK     0     182.231 179.141 176.024  0.00  0.00     0.210 HD
ENDBRANCH   4  52
TORSDOF 16
ENDMDL
MODEL 3
REMARK VINA RESULT:      -9.1     38.034     42.285
REMARK  16 active torsions:
REMARK  status: ('A' for Active; 'I' for Inactive)
REMARK    1  A    between atoms: O_2  and  C_22 
REMARK    2  A    between atoms: O_2  and  C_26 
REMARK    3  A    between atoms: O_4  and  C_18 
REMARK    4  A    between atoms: O_5  and  C_19 
REMARK    5  A    between atoms: O_6  and  C_25 
REMARK    6  A    between atoms: O_6  and  C_29 
REMARK    7  A    between atoms: O_7  and  C_20 
REMARK    8  A    between atoms: O_8  and  C_21 
REMARK    9  A    between atoms: O_9  and  C_23 
REMARK   10  A    between atoms: O_10  and  C_24 
REMARK   11  A    between atoms: O_13  and  C_35 
REMARK   12  A    between atoms: O_14  and  C_40 
REMARK   13  A    between atoms: O_15  and  C_41 
REMARK   14  A    between atoms: O_16  and  C_43 
REMARK   15  A    between atoms: C_17  and  C_26 
REMARK   16  A    between atoms: C_30  and  C_33 
ROOT
HETATM    1  O   UNK     0     151.178 197.601 166.977  0.00  0.00    -0.348 OA
HETATM    2  C   UNK     0     152.126 197.427 168.032  0.00  0.00     0.180 C 
HETATM    3  C   UNK     0     152.960 196.168 167.782  0.00  0.00     0.180 C 
HETATM    4  C   UNK     0     152.059 194.944 167.621  0.00  0.00     0.183 C 
HETATM    5  C   UNK     0     150.936 195.210 166.618  0.00  0.00     0.205 C 
HETATM    6  C   UNK     0     150.233 196.535 166.911  0.00  0.00     0.298 C 
ENDROOT
BRANCH   2   7
HETATM    7  C   UNK     0     152.994 198.681 168.080  0.00  0.00     0.205 C 
BRANCH   7   8
HETATM    8  O   UNK     0     152.700 199.490 166.951  0.00  0.00    -0.356 OA
BRANCH   8   9
HETATM    9  C   UNK     0     153.859 199.715 166.155  0.00  0.00     0.291 C 
HETATM   10  O   UNK     0     153.644 200.707 165.147  0.00  0.00    -0.351 OA
HETATM   11  C   UNK     0     152.670 200.343 164.164  0.00  0.00     0.152 C 
HETATM   12  C   UNK     0     153.076 199.055 163.435  0.00  0.00     0.178 C 
HETATM   13  C   UNK     0     152.540 201.524 163.205  0.00  0.00     0.042 C 
HETATM   14  C   UNK     0     153.338 197.939 164.447  0.00  0.00     0.183 C 
HETATM   15  C   UNK     0     154.318 198.399 165.528  0.00  0.00     0.204 C 
BRANCH  12  16
HETATM   16  O   UNK     0     152.030 198.628 162.565  0.00  0.00    -0.390 OA
HETATM   17  H   UNK     0     152.349 197.853 162.072  0.00  0.00     0.210 HD
ENDBRANCH  12  16
BRANCH  14  18
HETATM   18  O   UNK     0     153.864 196.801 163.767  0.00  0.00    -0.390 OA
HETATM   19  H   UNK     0     154.795 196.702 164.032  0.00  0.00     0.210 HD
ENDBRANCH  14  18
BRANCH  15  20
HETATM   20  O   UNK     0     155.608 198.617 164.956  0.00  0.00    -0.388 OA
HETATM   21  H   UNK     0     156.074 197.764 164.915  0.00  0.00     0.210 HD
ENDBRANCH  15  20
ENDBRANCH   8   9
ENDBRANCH   7   8
ENDBRANCH   2   7
BRANCH   6  22
HETATM   22  O   UNK     0     149.302 196.782 165.857  0.00  0.00    -0.311 OA
BRANCH  22  23
HETATM   23  C   UNK     0     148.019 196.927 166.337  0.00  0.00     0.157 A 
HETATM   24  C   UNK     0     147.579 198.050 166.931  0.00  0.00     0.124 A 
HETATM   25  O   UNK     0     146.306 198.217 167.454  0.00  0.00    -0.306 OA
HETATM   26  C   UNK     0     145.414 197.181 167.348  0.00  0.00     0.096 A 
HETATM   27  C   UNK     0     145.737 195.966 166.748  0.00  0.00     0.084 A 
HETATM   28  C   UNK     0     144.138 197.383 167.874  0.00  0.00     0.075 A 
HETATM   29  C   UNK     0     147.091 195.778 166.204  0.00  0.00     0.223 A 
HETATM   30  C   UNK     0     144.788 194.943 166.669  0.00  0.00     0.085 A 
HETATM   31  O   UNK     0     147.433 194.731 165.671  0.00  0.00    -0.284 OA
HETATM   32  C   UNK     0     143.511 195.148 167.196  0.00  0.00     0.074 A 
HETATM   33  C   UNK     0     143.187 196.365 167.796  0.00  0.00     0.071 A 
BRANCH  24  34
HETATM   34  C   UNK     0     148.434 199.237 167.112  0.00  0.00     0.004 A 
HETATM   35  C   UNK     0     148.865 199.599 168.389  0.00  0.00     0.053 A 
HETATM   36  C   UNK     0     149.675 200.721 168.561  0.00  0.00     0.099 A 
HETATM   37  C   UNK     0     150.054 201.483 167.456  0.00  0.00     0.098 A 
HETATM   38  C   UNK     0     149.622 201.123 166.179  0.00  0.00     0.040 A 
HETATM   39  C   UNK     0     148.813 200.000 166.008  0.00  0.00     0.017 A 
BRANCH  36  40
HETATM   40  O   UNK     0     150.089 201.064 169.813  0.00  0.00    -0.358 OA
HETATM   41  H   UNK     0     150.822 200.489 170.084  0.00  0.00     0.217 HD
ENDBRANCH  36  40
BRANCH  37  42
HETATM   42  O   UNK     0     150.845 202.581 167.611  0.00  0.00    -0.358 OA
HETATM   43  H   UNK     0     150.619 203.033 168.439  0.00  0.00     0.217 HD
ENDBRANCH  37  42
ENDBRANCH  24  34
BRANCH  30  44
HETATM   44  O   UNK     0     145.052 193.738 166.095  0.00  0.00    -0.360 OA
HETATM   45  H   UNK     0     145.770 193.837 165.446  0.00  0.00     0.217 HD
ENDBRANCH  30  44
BRANCH  33  46
HETATM   46  O   UNK     0     141.941 196.560 168.309  0.00  0.00    -0.361 OA
HETATM   47  H   UNK     0     141.914 197.424 168.753  0.00  0.00     0.217 HD
ENDBRANCH  33  46
ENDBRANCH  22  23
ENDBRANCH   6  22
BRANCH   3  48
HETATM   48  O   UNK     0     153.842 195.962 168.883  0.00  0.00    -0.390 OA
HETATM   49  H   UNK     0     153.329 195.575 169.611  0.00  0.00     0.210 HD
ENDBRANCH   3  48
BRANCH   5  50
HETATM   50  O   UNK     0     149.970 194.163 166.698  0.00  0.00    -0.388 OA
HETATM   51  H   UNK     0     150.378 193.412 167.162  0.00  0.00     0.210 HD
ENDBRANCH   5  50
BRANCH   4  52
HETATM   52  O   UNK     0     152.866 193.860 167.155  0.00  0.00    -0.390 OA
HETATM   53  H   UNK     0     152.291 193.270 166.639  0.00  0.00     0.210 HD
ENDBRANCH   4  52
TORSDOF 16
ENDMDL
MODEL 4
REMARK VINA RESULT:      -8.9     13.795     18.972
REMARK  16 active torsions:
REMARK  status: ('A' for Active; 'I' for Inactive)
REMARK    1  A    between atoms: O_2  and  C_22 
REMARK    2  A    between atoms: O_2  and  C_26 
REMARK    3  A    between atoms: O_4  and  C_18 
REMARK    4  A    between atoms: O_5  and  C_19 
REMARK    5  A    between atoms: O_6  and  C_25 
REMARK    6  A    between atoms: O_6  and  C_29 
REMARK    7  A    between atoms: O_7  and  C_20 
REMARK    8  A    between atoms: O_8  and  C_21 
REMARK    9  A    between atoms: O_9  and  C_23 
REMARK   10  A    between atoms: O_10  and  C_24 
REMARK   11  A    between atoms: O_13  and  C_35 
REMARK   12  A    between atoms: O_14  and  C_40 
REMARK   13  A    between atoms: O_15  and  C_41 
REMARK   14  A    between atoms: O_16  and  C_43 
REMARK   15  A    between atoms: C_17  and  C_26 
REMARK   16  A    between atoms: C_30  and  C_33 
ROOT
HETATM    1  O   UNK     0     169.789 179.944 172.433  0.00  0.00    -0.348 OA
HETATM    2  C   UNK     0     170.534 178.745 172.216  0.00  0.00     0.180 C 
HETATM    3  C   UNK     0     171.222 178.316 173.514  0.00  0.00     0.180 C 
HETATM    4  C   UNK     0     172.103 179.441 174.059  0.00  0.00     0.183 C 
HETATM    5  C   UNK     0     171.339 180.764 174.114  0.00  0.00     0.205 C 
HETATM    6  C   UNK     0     170.619 181.046 172.795  0.00  0.00     0.298 C 
ENDROOT
BRANCH   2   7
HETATM    7  C   UNK     0     169.560 177.683 171.715  0.00  0.00     0.205 C 
BRANCH   7   8
HETATM    8  O   UNK     0     168.960 178.137 170.511  0.00  0.00    -0.356 OA
BRANCH   8   9
HETATM    9  C   UNK     0     169.803 177.902 169.388  0.00  0.00     0.291 C 
HETATM   10  O   UNK     0     169.736 178.957 168.424  0.00  0.00    -0.351 OA
HETATM   11  C   UNK     0     168.452 179.109 167.809  0.00  0.00     0.152 C 
HETATM   12  C   UNK     0     168.032 177.822 167.085  0.00  0.00     0.178 C 
HETATM   13  C   UNK     0     168.552 180.296 166.854  0.00  0.00     0.042 C 
HETATM   14  C   UNK     0     168.089 176.635 168.048  0.00  0.00     0.183 C 
HETATM   15  C   UNK     0     169.447 176.562 168.747  0.00  0.00     0.204 C 
BRANCH  12  16
HETATM   16  O   UNK     0     166.695 177.940 166.605  0.00  0.00    -0.390 OA
HETATM   17  H   UNK     0     166.555 178.863 166.333  0.00  0.00     0.210 HD
ENDBRANCH  12  16
BRANCH  14  18
HETATM   18  O   UNK     0     167.850 175.431 167.323  0.00  0.00    -0.390 OA
HETATM   19  H   UNK     0     167.397 174.810 167.920  0.00  0.00     0.210 HD
ENDBRANCH  14  18
BRANCH  15  20
HETATM   20  O   UNK     0     170.468 176.249 167.797  0.00  0.00    -0.388 OA
HETATM   21  H   UNK     0     170.114 175.594 167.171  0.00  0.00     0.210 HD
ENDBRANCH  15  20
ENDBRANCH   8   9
ENDBRANCH   7   8
ENDBRANCH   2   7
BRANCH   6  22
HETATM   22  O   UNK     0     169.819 182.214 172.972  0.00  0.00    -0.311 OA
BRANCH  22  23
HETATM   23  C   UNK     0     169.847 183.022 171.856  0.00  0.00     0.157 A 
HETATM   24  C   UNK     0     168.816 183.127 170.999  0.00  0.00     0.124 A 
HETATM   25  O   UNK     0     168.824 183.905 169.851  0.00  0.00    -0.306 OA
HETATM   26  C   UNK     0     169.947 184.638 169.566  0.00  0.00     0.096 A 
HETATM   27  C   UNK     0     171.081 184.627 170.374  0.00  0.00     0.084 A 
HETATM   28  C   UNK     0     169.921 185.418 168.409  0.00  0.00     0.075 A 
HETATM   29  C   UNK     0     171.084 183.794 171.586  0.00  0.00     0.223 A 
HETATM   30  C   UNK     0     172.199 185.395 170.033  0.00  0.00     0.085 A 
HETATM   31  O   UNK     0     172.054 183.740 172.331  0.00  0.00    -0.284 OA
HETATM   32  C   UNK     0     172.170 186.174 168.875  0.00  0.00     0.074 A 
HETATM   33  C   UNK     0     171.034 186.186 168.066  0.00  0.00     0.071 A 
BRANCH  24  34
HETATM   34  C   UNK     0     167.553 182.392 171.185  0.00  0.00     0.004 A 
HETATM   35  C   UNK     0     167.414 181.102 170.673  0.00  0.00     0.053 A 
HETATM   36  C   UNK     0     166.219 180.405 170.850  0.00  0.00     0.099 A 
HETATM   37  C   UNK     0     165.161 180.998 171.539  0.00  0.00     0.098 A 
HETATM   38  C   UNK     0     165.299 182.288 172.051  0.00  0.00     0.040 A 
HETATM   39  C   UNK     0     166.495 182.985 171.875  0.00  0.00     0.017 A 
BRANCH  36  40
HETATM   40  O   UNK     0     166.095 179.146 170.343  0.00  0.00    -0.358 OA
HETATM   41  H   UNK     0     166.968 178.813 170.078  0.00  0.00     0.217 HD
ENDBRANCH  36  40
BRANCH  37  42
HETATM   42  O   UNK     0     163.990 180.328 171.719  0.00  0.00    -0.358 OA
HETATM   43  H   UNK     0     163.959 179.558 171.129  0.00  0.00     0.217 HD
ENDBRANCH  37  42
ENDBRANCH  24  34
BRANCH  30  44
HETATM   44  O   UNK     0     173.332 185.419 170.787  0.00  0.00    -0.360 OA
HETATM   45  H   UNK     0     173.653 184.510 170.919  0.00  0.00     0.217 HD
ENDBRANCH  30  44
BRANCH  33  46
HETATM   46  O   UNK     0     171.011 186.948 166.938  0.00  0.00    -0.361 OA
HETATM   47  H   UNK     0     171.802 186.750 166.407  0.00  0.00     0.217 HD
ENDBRANCH  33  46
ENDBRANCH  22  23
ENDBRANCH   6  22
BRANCH   3  48
HETATM   48  O   UNK     0     172.028 177.168 173.262  0.00  0.00    -0.390 OA
HETATM   49  H   UNK     0     171.536 176.580 172.664  0.00  0.00     0.210 HD
ENDBRANCH   3  48
BRANCH   5  50
HETATM   50  O   UNK     0     172.255 181.830 174.361  0.00  0.00    -0.388 OA
HETATM   51  H   UNK     0     173.130 181.556 174.041  0.00  0.00     0.210 HD
ENDBRANCH   5  50
BRANCH   4  52
HETATM   52  O   UNK     0     172.519 179.077 175.376  0.00  0.00    -0.390 OA
HETATM   53  H   UNK     0     173.468 178.870 175.335  0.00  0.00     0.210 HD
ENDBRANCH   4  52
TORSDOF 16
ENDMDL
MODEL 5
REMARK VINA RESULT:      -8.7     42.450     46.352
REMARK  16 active torsions:
REMARK  status: ('A' for Active; 'I' for Inactive)
REMARK    1  A    between atoms: O_2  and  C_22 
REMARK    2  A    between atoms: O_2  and  C_26 
REMARK    3  A    between atoms: O_4  and  C_18 
REMARK    4  A    between atoms: O_5  and  C_19 
REMARK    5  A    between atoms: O_6  and  C_25 
REMARK    6  A    between atoms: O_6  and  C_29 
REMARK    7  A    between atoms: O_7  and  C_20 
REMARK    8  A    between atoms: O_8  and  C_21 
REMARK    9  A    between atoms: O_9  and  C_23 
REMARK   10  A    between atoms: O_10  and  C_24 
REMARK   11  A    between atoms: O_13  and  C_35 
REMARK   12  A    between atoms: O_14  and  C_40 
REMARK   13  A    between atoms: O_15  and  C_41 
REMARK   14  A    between atoms: O_16  and  C_43 
REMARK   15  A    between atoms: C_17  and  C_26 
REMARK   16  A    between atoms: C_30  and  C_33 
ROOT
HETATM    1  O   UNK     0     154.415 193.001 147.248  0.00  0.00    -0.348 OA
HETATM    2  C   UNK     0     153.774 193.712 146.187  0.00  0.00     0.180 C 
HETATM    3  C   UNK     0     153.480 195.149 146.625  0.00  0.00     0.180 C 
HETATM    4  C   UNK     0     152.646 195.166 147.906  0.00  0.00     0.183 C 
HETATM    5  C   UNK     0     153.250 194.253 148.973  0.00  0.00     0.205 C 
HETATM    6  C   UNK     0     153.586 192.876 148.401  0.00  0.00     0.298 C 
ENDROOT
BRANCH   2   7
HETATM    7  C   UNK     0     154.704 193.669 144.978  0.00  0.00     0.205 C 
BRANCH   7   8
HETATM    8  O   UNK     0     156.047 193.785 145.423  0.00  0.00    -0.356 OA
BRANCH   8   9
HETATM    9  C   UNK     0     156.861 194.441 144.457  0.00  0.00     0.291 C 
HETATM   10  O   UNK     0     157.812 193.558 143.854  0.00  0.00    -0.351 OA
HETATM   11  C   UNK     0     158.786 193.036 144.764  0.00  0.00     0.152 C 
HETATM   12  C   UNK     0     159.589 194.168 145.420  0.00  0.00     0.178 C 
HETATM   13  C   UNK     0     159.681 192.090 143.966  0.00  0.00     0.042 C 
HETATM   14  C   UNK     0     158.642 195.170 146.081  0.00  0.00     0.183 C 
HETATM   15  C   UNK     0     157.565 195.635 145.099  0.00  0.00     0.204 C 
BRANCH  12  16
HETATM   16  O   UNK     0     160.452 193.643 146.427  0.00  0.00    -0.390 OA
HETATM   17  H   UNK     0     160.360 194.199 147.219  0.00  0.00     0.210 HD
ENDBRANCH  12  16
BRANCH  14  18
HETATM   18  O   UNK     0     159.392 196.290 146.546  0.00  0.00    -0.390 OA
HETATM   19  H   UNK     0     160.333 196.104 146.384  0.00  0.00     0.210 HD
ENDBRANCH  14  18
BRANCH  15  20
HETATM   20  O   UNK     0     158.160 196.404 144.053  0.00  0.00    -0.388 OA
HETATM   21  H   UNK     0     158.211 197.331 144.344  0.00  0.00     0.210 HD
ENDBRANCH  15  20
ENDBRANCH   8   9
ENDBRANCH   7   8
ENDBRANCH   2   7
BRANCH   6  22
HETATM   22  O   UNK     0     154.273 192.136 149.410  0.00  0.00    -0.311 OA
BRANCH  22  23
HETATM   23  C   UNK     0     153.953 190.797 149.363  0.00  0.00     0.157 A 
HETATM   24  C   UNK     0     154.830 189.845 148.997  0.00  0.00     0.124 A 
HETATM   25  O   UNK     0     154.533 188.494 148.908  0.00  0.00    -0.306 OA
HETATM   26  C   UNK     0     153.266 188.080 149.231  0.00  0.00     0.096 A 
HETATM   27  C   UNK     0     152.264 188.961 149.633  0.00  0.00     0.084 A 
HETATM   28  C   UNK     0     153.000 186.714 149.141  0.00  0.00     0.075 A 
HETATM   29  C   UNK     0     152.570 190.397 149.717  0.00  0.00     0.223 A 
HETATM   30  C   UNK     0     150.989 188.483 149.949  0.00  0.00     0.085 A 
HETATM   31  O   UNK     0     151.729 191.218 150.059  0.00  0.00    -0.284 OA
HETATM   32  C   UNK     0     150.726 187.115 149.859  0.00  0.00     0.074 A 
HETATM   33  C   UNK     0     151.728 186.232 149.456  0.00  0.00     0.071 A 
BRANCH  24  34
HETATM   34  C   UNK     0     156.222 190.152 148.623  0.00  0.00     0.004 A 
HETATM   35  C   UNK     0     157.152 190.488 149.607  0.00  0.00     0.053 A 
HETATM   36  C   UNK     0     158.470 190.777 149.253  0.00  0.00     0.099 A 
HETATM   37  C   UNK     0     158.858 190.731 147.915  0.00  0.00     0.098 A 
HETATM   38  C   UNK     0     157.929 190.396 146.930  0.00  0.00     0.040 A 
HETATM   39  C   UNK     0     156.612 190.106 147.284  0.00  0.00     0.017 A 
BRANCH  36  40
HETATM   40  O   UNK     0     159.368 191.105 150.224  0.00  0.00    -0.358 OA
HETATM   41  H   UNK     0     159.135 190.654 151.051  0.00  0.00     0.217 HD
ENDBRANCH  36  40
BRANCH  37  42
HETATM   42  O   UNK     0     160.142 191.011 147.557  0.00  0.00    -0.358 OA
HETATM   43  H   UNK     0     160.581 190.201 147.251  0.00  0.00     0.217 HD
ENDBRANCH  37  42
ENDBRANCH  24  34
BRANCH  30  44
HETATM   44  O   UNK     0     149.976 189.299 150.347  0.00  0.00    -0.360 OA
HETATM   45  H   UNK     0     150.101 190.184 149.962  0.00  0.00     0.217 HD
ENDBRANCH  30  44
BRANCH  33  46
HETATM   46  O   UNK     0     151.467 184.900 149.368  0.00  0.00    -0.361 OA
HETATM   47  H   UNK     0     151.886 184.446 150.119  0.00  0.00     0.217 HD
ENDBRANCH  33  46
ENDBRANCH  22  23
ENDBRANCH   6  22
BRANCH   3  48
HETATM   48  O   UNK     0     152.768 195.820 145.590  0.00  0.00    -0.390 OA
HETATM   49  H   UNK     0     153.315 196.561 145.279  0.00  0.00     0.210 HD
ENDBRANCH   3  48
BRANCH   5  50
HETATM   50  O   UNK     0     152.313 194.081 150.036  0.00  0.00    -0.388 OA
HETATM   51  H   UNK     0     152.661 193.401 150.637  0.00  0.00     0.210 HD
ENDBRANCH   5  50
BRANCH   4  52
HETATM   52  O   UNK     0     152.611 196.509 148.392  0.00  0.00    -0.390 OA
HETATM   53  H   UNK     0     152.716 197.099 147.627  0.00  0.00     0.210 HD
ENDBRANCH   4  52
TORSDOF 16
ENDMDL
MODEL 6
REMARK VINA RESULT:      -8.7     43.055     46.463
REMARK  16 active torsions:
REMARK  status: ('A' for Active; 'I' for Inactive)
REMARK    1  A    between atoms: O_2  and  C_22 
REMARK    2  A    between atoms: O_2  and  C_26 
REMARK    3  A    between atoms: O_4  and  C_18 
REMARK    4  A    between atoms: O_5  and  C_19 
REMARK    5  A    between atoms: O_6  and  C_25 
REMARK    6  A    between atoms: O_6  and  C_29 
REMARK    7  A    between atoms: O_7  and  C_20 
REMARK    8  A    between atoms: O_8  and  C_21 
REMARK    9  A    between atoms: O_9  and  C_23 
REMARK   10  A    between atoms: O_10  and  C_24 
REMARK   11  A    between atoms: O_13  and  C_35 
REMARK   12  A    between atoms: O_14  and  C_40 
REMARK   13  A    between atoms: O_15  and  C_41 
REMARK   14  A    between atoms: O_16  and  C_43 
REMARK   15  A    between atoms: C_17  and  C_26 
REMARK   16  A    between atoms: C_30  and  C_33 
ROOT
HETATM    1  O   UNK     0     153.008 191.710 146.951  0.00  0.00    -0.348 OA
HETATM    2  C   UNK     0     151.899 191.940 146.081  0.00  0.00     0.180 C 
HETATM    3  C   UNK     0     152.352 192.745 144.860  0.00  0.00     0.180 C 
HETATM    4  C   UNK     0     153.018 194.052 145.289  0.00  0.00     0.183 C 
HETATM    5  C   UNK     0     154.082 193.807 146.358  0.00  0.00     0.205 C 
HETATM    6  C   UNK     0     153.546 192.919 147.482  0.00  0.00     0.298 C 
ENDROOT
BRANCH   2   7
HETATM    7  C   UNK     0     151.337 190.579 145.684  0.00  0.00     0.205 C 
BRANCH   7   8
HETATM    8  O   UNK     0     152.093 189.562 146.324  0.00  0.00    -0.356 OA
BRANCH   8   9
HETATM    9  C   UNK     0     151.387 188.326 146.350  0.00  0.00     0.291 C 
HETATM   10  O   UNK     0     150.670 188.134 147.573  0.00  0.00    -0.351 OA
HETATM   11  C   UNK     0     151.503 188.029 148.732  0.00  0.00     0.152 C 
HETATM   12  C   UNK     0     152.480 186.852 148.603  0.00  0.00     0.178 C 
HETATM   13  C   UNK     0     150.577 187.874 149.936  0.00  0.00     0.042 C 
HETATM   14  C   UNK     0     153.283 186.974 147.308  0.00  0.00     0.183 C 
HETATM   15  C   UNK     0     152.357 187.171 146.106  0.00  0.00     0.204 C 
BRANCH  12  16
HETATM   16  O   UNK     0     153.397 186.849 149.695  0.00  0.00    -0.390 OA
HETATM   17  H   UNK     0     154.026 187.577 149.558  0.00  0.00     0.210 HD
ENDBRANCH  12  16
BRANCH  14  18
HETATM   18  O   UNK     0     154.068 185.797 147.129  0.00  0.00    -0.390 OA
HETATM   19  H   UNK     0     154.697 185.967 146.406  0.00  0.00     0.210 HD
ENDBRANCH  14  18
BRANCH  15  20
HETATM   20  O   UNK     0     151.583 185.991 145.889  0.00  0.00    -0.388 OA
HETATM   21  H   UNK     0     150.699 186.256 145.582  0.00  0.00     0.210 HD
ENDBRANCH  15  20
ENDBRANCH   8   9
ENDBRANCH   7   8
ENDBRANCH   2   7
BRANCH   6  22
HETATM   22  O   UNK     0     154.630 192.620 148.360  0.00  0.00    -0.311 OA
BRANCH  22  23
HETATM   23  C   UNK     0     154.247 191.753 149.361  0.00  0.00     0.157 A 
HETATM   24  C   UNK     0     154.868 190.584 149.597  0.00  0.00     0.124 A 
HETATM   25  O   UNK     0     154.489 189.675 150.574  0.00  0.00    -0.306 OA
HETATM   26  C   UNK     0     153.420 189.985 151.375  0.00  0.00     0.096 A 
HETATM   27  C   UNK     0     152.695 191.167 151.243  0.00  0.00     0.084 A 
HETATM   28  C   UNK     0     153.069 189.055 152.355  0.00  0.00     0.075 A 
HETATM   29  C   UNK     0     153.084 192.128 150.201  0.00  0.00     0.223 A 
HETATM   30  C   UNK     0     151.613 191.429 152.089  0.00  0.00     0.085 A 
HETATM   31  O   UNK     0     152.481 193.180 150.034  0.00  0.00    -0.284 OA
HETATM   32  C   UNK     0     151.264 190.497 153.068  0.00  0.00     0.074 A 
HETATM   33  C   UNK     0     151.990 189.314 153.201  0.00  0.00     0.071 A 
BRANCH  24  34
HETATM   34  C   UNK     0     156.026 190.128 148.809  0.00  0.00     0.004 A 
HETATM   35  C   UNK     0     157.285 190.690 149.028  0.00  0.00     0.053 A 
HETATM   36  C   UNK     0     158.382 190.258 148.283  0.00  0.00     0.099 A 
HETATM   37  C   UNK     0     158.221 189.264 147.317  0.00  0.00     0.098 A 
HETATM   38  C   UNK     0     156.963 188.703 147.097  0.00  0.00     0.040 A 
HETATM   39  C   UNK     0     155.867 189.134 147.843  0.00  0.00     0.017 A 
BRANCH  36  40
HETATM   40  O   UNK     0     159.605 190.815 148.505  0.00  0.00    -0.358 OA
HETATM   41  H   UNK     0     159.519 191.552 149.133  0.00  0.00     0.217 HD
ENDBRANCH  36  40
BRANCH  37  42
HETATM   42  O   UNK     0     159.285 188.834 146.584  0.00  0.00    -0.358 OA
HETATM   43  H   UNK     0     158.972 188.307 145.832  0.00  0.00     0.217 HD
ENDBRANCH  37  42
ENDBRANCH  24  34
BRANCH  30  44
HETATM   44  O   UNK     0     150.872 192.567 152.001  0.00  0.00    -0.360 OA
HETATM   45  H   UNK     0     149.979 192.401 152.350  0.00  0.00     0.217 HD
ENDBRANCH  30  44
BRANCH  33  46
HETATM   46  O   UNK     0     151.645 188.408 154.157  0.00  0.00    -0.361 OA
HETATM   47  H   UNK     0     152.412 187.841 154.346  0.00  0.00     0.217 HD
ENDBRANCH  33  46
ENDBRANCH  22  23
ENDBRANCH   6  22
BRANCH   3  48
HETATM   48  O   UNK     0     151.221 193.038 144.043  0.00  0.00    -0.390 OA
HETATM   49  H   UNK     0     150.665 193.679 144.518  0.00  0.00     0.210 HD
ENDBRANCH   3  48
BRANCH   5  50
HETATM   50  O   UNK     0     154.482 195.055 146.925  0.00  0.00    -0.388 OA
HETATM   51  H   UNK     0     154.083 195.767 146.397  0.00  0.00     0.210 HD
ENDBRANCH   5  50
BRANCH   4  52
HETATM   52  O   UNK     0     153.628 194.635 144.136  0.00  0.00    -0.390 OA
HETATM   53  H   UNK     0     153.398 195.580 144.130  0.00  0.00     0.210 HD
ENDBRANCH   4  52
TORSDOF 16
ENDMDL
MODEL 7
REMARK VINA RESULT:      -8.7     13.825     18.786
REMARK  16 active torsions:
REMARK  status: ('A' for Active; 'I' for Inactive)
REMARK    1  A    between atoms: O_2  and  C_22 
REMARK    2  A    between atoms: O_2  and  C_26 
REMARK    3  A    between atoms: O_4  and  C_18 
REMARK    4  A    between atoms: O_5  and  C_19 
REMARK    5  A    between atoms: O_6  and  C_25 
REMARK    6  A    between atoms: O_6  and  C_29 
REMARK    7  A    between atoms: O_7  and  C_20 
REMARK    8  A    between atoms: O_8  and  C_21 
REMARK    9  A    between atoms: O_9  and  C_23 
REMARK   10  A    between atoms: O_10  and  C_24 
REMARK   11  A    between atoms: O_13  and  C_35 
REMARK   12  A    between atoms: O_14  and  C_40 
REMARK   13  A    between atoms: O_15  and  C_41 
REMARK   14  A    between atoms: O_16  and  C_43 
REMARK   15  A    between atoms: C_17  and  C_26 
REMARK   16  A    between atoms: C_30  and  C_33 
ROOT
HETATM    1  O   UNK     0     170.333 183.194 169.668  0.00  0.00    -0.348 OA
HETATM    2  C   UNK     0     171.471 183.506 170.474  0.00  0.00     0.180 C 
HETATM    3  C   UNK     0     172.010 184.889 170.100  0.00  0.00     0.180 C 
HETATM    4  C   UNK     0     172.334 184.960 168.608  0.00  0.00     0.183 C 
HETATM    5  C   UNK     0     171.167 184.449 167.763  0.00  0.00     0.205 C 
HETATM    6  C   UNK     0     170.653 183.106 168.281  0.00  0.00     0.298 C 
ENDROOT
BRANCH   2   7
HETATM    7  C   UNK     0     171.030 183.447 171.933  0.00  0.00     0.205 C 
BRANCH   7   8
HETATM    8  O   UNK     0     170.920 182.087 172.328  0.00  0.00    -0.356 OA
BRANCH   8   9
HETATM    9  C   UNK     0     172.146 181.388 172.135  0.00  0.00     0.291 C 
HETATM   10  O   UNK     0     172.007 180.281 171.239  0.00  0.00    -0.351 OA
HETATM   11  C   UNK     0     171.142 179.246 171.717  0.00  0.00     0.152 C 
HETATM   12  C   UNK     0     171.648 178.675 173.049  0.00  0.00     0.178 C 
HETATM   13  C   UNK     0     171.078 178.179 170.626  0.00  0.00     0.042 C 
HETATM   14  C   UNK     0     171.836 179.802 174.066  0.00  0.00     0.183 C 
HETATM   15  C   UNK     0     172.695 180.926 173.484  0.00  0.00     0.204 C 
BRANCH  12  16
HETATM   16  O   UNK     0     170.702 177.751 173.582  0.00  0.00    -0.390 OA
HETATM   17  H   UNK     0     170.026 177.590 172.902  0.00  0.00     0.210 HD
ENDBRANCH  12  16
BRANCH  14  18
HETATM   18  O   UNK     0     172.453 179.278 175.239  0.00  0.00    -0.390 OA
HETATM   19  H   UNK     0     171.767 179.197 175.924  0.00  0.00     0.210 HD
ENDBRANCH  14  18
BRANCH  15  20
HETATM   20  O   UNK     0     174.029 180.462 173.274  0.00  0.00    -0.388 OA
HETATM   21  H   UNK     0     174.008 179.492 173.198  0.00  0.00     0.210 HD
ENDBRANCH  15  20
ENDBRANCH   8   9
ENDBRANCH   7   8
ENDBRANCH   2   7
BRANCH   6  22
HETATM   22  O   UNK     0     169.483 182.766 167.538  0.00  0.00    -0.311 OA
BRANCH  22  23
HETATM   23  C   UNK     0     169.470 181.433 167.192  0.00  0.00     0.157 A 
HETATM   24  C   UNK     0     168.687 180.523 167.799  0.00  0.00     0.124 A 
HETATM   25  O   UNK     0     168.674 179.170 167.498  0.00  0.00    -0.306 OA
HETATM   26  C   UNK     0     169.497 178.714 166.501  0.00  0.00     0.096 A 
HETATM   27  C   UNK     0     170.352 179.550 165.786  0.00  0.00     0.084 A 
HETATM   28  C   UNK     0     169.454 177.349 166.214  0.00  0.00     0.075 A 
HETATM   29  C   UNK     0     170.380 180.985 166.110  0.00  0.00     0.223 A 
HETATM   30  C   UNK     0     171.170 179.029 164.780  0.00  0.00     0.085 A 
HETATM   31  O   UNK     0     171.114 181.766 165.520  0.00  0.00    -0.284 OA
HETATM   32  C   UNK     0     171.125 177.663 164.495  0.00  0.00     0.074 A 
HETATM   33  C   UNK     0     170.269 176.826 165.210  0.00  0.00     0.071 A 
BRANCH  24  34
HETATM   34  C   UNK     0     167.759 180.878 168.888  0.00  0.00     0.004 A 
HETATM   35  C   UNK     0     168.027 180.471 170.195  0.00  0.00     0.053 A 
HETATM   36  C   UNK     0     167.150 180.808 171.225  0.00  0.00     0.099 A 
HETATM   37  C   UNK     0     166.003 181.551 170.949  0.00  0.00     0.098 A 
HETATM   38  C   UNK     0     165.733 181.958 169.642  0.00  0.00     0.040 A 
HETATM   39  C   UNK     0     166.611 181.622 168.612  0.00  0.00     0.017 A 
BRANCH  36  40
HETATM   40  O   UNK     0     167.422 180.402 172.498  0.00  0.00    -0.358 OA
HETATM   41  H   UNK     0     166.637 180.526 173.055  0.00  0.00     0.217 HD
ENDBRANCH  36  40
BRANCH  37  42
HETATM   42  O   UNK     0     165.138 181.886 171.947  0.00  0.00    -0.358 OA
HETATM   43  H   UNK     0     164.314 181.384 171.849  0.00  0.00     0.217 HD
ENDBRANCH  37  42
ENDBRANCH  24  34
BRANCH  30  44
HETATM   44  O   UNK     0     172.023 179.802 164.053  0.00  0.00    -0.360 OA
HETATM   45  H   UNK     0     171.625 180.000 163.188  0.00  0.00     0.217 HD
ENDBRANCH  30  44
BRANCH  33  46
HETATM   46  O   UNK     0     170.229 175.494 164.929  0.00  0.00    -0.361 OA
HETATM   47  H   UNK     0     171.054 175.082 165.237  0.00  0.00     0.217 HD
ENDBRANCH  33  46
ENDBRANCH  22  23
ENDBRANCH   6  22
BRANCH   3  48
HETATM   48  O   UNK     0     173.192 185.152 170.851  0.00  0.00    -0.390 OA
HETATM   49  H   UNK     0     173.531 184.305 171.186  0.00  0.00     0.210 HD
ENDBRANCH   3  48
BRANCH   5  50
HETATM   50  O   UNK     0     171.599 184.272 166.414  0.00  0.00    -0.388 OA
HETATM   51  H   UNK     0     172.545 184.491 166.370  0.00  0.00     0.210 HD
ENDBRANCH   5  50
BRANCH   4  52
HETATM   52  O   UNK     0     172.597 186.325 168.278  0.00  0.00    -0.390 OA
HETATM   53  H   UNK     0     172.372 186.862 169.057  0.00  0.00     0.210 HD
ENDBRANCH   4  52
TORSDOF 16
ENDMDL
MODEL 8
REMARK VINA RESULT:      -8.6     37.040     42.820
REMARK  16 active torsions:
REMARK  status: ('A' for Active; 'I' for Inactive)
REMARK    1  A    between atoms: O_2  and  C_22 
REMARK    2  A    between atoms: O_2  and  C_26 
REMARK    3  A    between atoms: O_4  and  C_18 
REMARK    4  A    between atoms: O_5  and  C_19 
REMARK    5  A    between atoms: O_6  and  C_25 
REMARK    6  A    between atoms: O_6  and  C_29 
REMARK    7  A    between atoms: O_7  and  C_20 
REMARK    8  A    between atoms: O_8  and  C_21 
REMARK    9  A    between atoms: O_9  and  C_23 
REMARK   10  A    between atoms: O_10  and  C_24 
REMARK   11  A    between atoms: O_13  and  C_35 
REMARK   12  A    between atoms: O_14  and  C_40 
REMARK   13  A    between atoms: O_15  and  C_41 
REMARK   14  A    between atoms: O_16  and  C_43 
REMARK   15  A    between atoms: C_17  and  C_26 
REMARK   16  A    between atoms: C_30  and  C_33 
ROOT
HETATM    1  O   UNK     0     148.726 198.912 167.047  0.00  0.00    -0.348 OA
HETATM    2  C   UNK     0     147.987 198.819 165.828  0.00  0.00     0.180 C 
HETATM    3  C   UNK     0     147.277 197.465 165.750  0.00  0.00     0.180 C 
HETATM    4  C   UNK     0     148.278 196.319 165.896  0.00  0.00     0.183 C 
HETATM    5  C   UNK     0     149.186 196.527 167.107  0.00  0.00     0.205 C 
HETATM    6  C   UNK     0     149.767 197.941 167.129  0.00  0.00     0.298 C 
ENDROOT
BRANCH   2   7
HETATM    7  C   UNK     0     146.996 199.979 165.803  0.00  0.00     0.205 C 
BRANCH   7   8
HETATM    8  O   UNK     0     147.435 200.942 164.856  0.00  0.00    -0.356 OA
BRANCH   8   9
HETATM    9  C   UNK     0     146.803 202.201 165.062  0.00  0.00     0.291 C 
HETATM   10  O   UNK     0     147.344 203.227 164.225  0.00  0.00    -0.351 OA
HETATM   11  C   UNK     0     148.717 203.534 164.487  0.00  0.00     0.152 C 
HETATM   12  C   UNK     0     148.911 203.999 165.938  0.00  0.00     0.178 C 
HETATM   13  C   UNK     0     149.135 204.606 163.483  0.00  0.00     0.042 C 
HETATM   14  C   UNK     0     148.345 202.958 166.903  0.00  0.00     0.183 C 
HETATM   15  C   UNK     0     146.905 202.595 166.535  0.00  0.00     0.204 C 
BRANCH  12  16
HETATM   16  O   UNK     0     150.299 204.160 166.223  0.00  0.00    -0.390 OA
HETATM   17  H   UNK     0     150.455 205.099 166.421  0.00  0.00     0.210 HD
ENDBRANCH  12  16
BRANCH  14  18
HETATM   18  O   UNK     0     148.390 203.475 168.231  0.00  0.00    -0.390 OA
HETATM   19  H   UNK     0     149.321 203.664 168.444  0.00  0.00     0.210 HD
ENDBRANCH  14  18
BRANCH  15  20
HETATM   20  O   UNK     0     146.050 203.720 166.744  0.00  0.00    -0.388 OA
HETATM   21  H   UNK     0     146.450 204.494 166.311  0.00  0.00     0.210 HD
ENDBRANCH  15  20
ENDBRANCH   8   9
ENDBRANCH   7   8
ENDBRANCH   2   7
BRANCH   6  22
HETATM   22  O   UNK     0     150.481 198.104 168.354  0.00  0.00    -0.311 OA
BRANCH  22  23
HETATM   23  C   UNK     0     151.528 198.989 168.217  0.00  0.00     0.157 A 
HETATM   24  C   UNK     0     152.772 198.609 167.878  0.00  0.00     0.124 A 
HETATM   25  O   UNK     0     153.854 199.469 167.763  0.00  0.00    -0.306 OA
HETATM   26  C   UNK     0     153.653 200.806 167.990  0.00  0.00     0.096 A 
HETATM   27  C   UNK     0     152.413 201.334 168.340  0.00  0.00     0.084 A 
HETATM   28  C   UNK     0     154.758 201.647 167.857  0.00  0.00     0.075 A 
HETATM   29  C   UNK     0     151.264 200.425 168.476  0.00  0.00     0.223 A 
HETATM   30  C   UNK     0     152.267 202.707 168.560  0.00  0.00     0.085 A 
HETATM   31  O   UNK     0     150.152 200.831 168.786  0.00  0.00    -0.284 OA
HETATM   32  C   UNK     0     153.374 203.546 168.427  0.00  0.00     0.074 A 
HETATM   33  C   UNK     0     154.617 203.018 168.076  0.00  0.00     0.071 A 
BRANCH  24  34
HETATM   34  C   UNK     0     153.126 197.204 167.610  0.00  0.00     0.004 A 
HETATM   35  C   UNK     0     153.275 196.760 166.295  0.00  0.00     0.053 A 
HETATM   36  C   UNK     0     153.611 195.431 166.041  0.00  0.00     0.099 A 
HETATM   37  C   UNK     0     153.797 194.543 167.101  0.00  0.00     0.098 A 
HETATM   38  C   UNK     0     153.648 194.986 168.415  0.00  0.00     0.040 A 
HETATM   39  C   UNK     0     153.313 196.316 168.669  0.00  0.00     0.017 A 
BRANCH  36  40
HETATM   40  O   UNK     0     153.752 195.009 164.753  0.00  0.00    -0.358 OA
HETATM   41  H   UNK     0     154.543 194.451 164.677  0.00  0.00     0.217 HD
ENDBRANCH  36  40
BRANCH  37  42
HETATM   42  O   UNK     0     154.126 193.243 166.865  0.00  0.00    -0.358 OA
HETATM   43  H   UNK     0     154.761 193.193 166.133  0.00  0.00     0.217 HD
ENDBRANCH  37  42
ENDBRANCH  24  34
BRANCH  30  44
HETATM   44  O   UNK     0     151.078 203.274 168.905  0.00  0.00    -0.360 OA
HETATM   45  H   UNK     0     150.348 202.748 168.534  0.00  0.00     0.217 HD
ENDBRANCH  30  44
BRANCH  33  46
HETATM   46  O   UNK     0     155.693 203.841 167.947  0.00  0.00    -0.361 OA
HETATM   47  H   UNK     0     155.381 204.744 167.768  0.00  0.00     0.217 HD
ENDBRANCH  33  46
ENDBRANCH  22  23
ENDBRANCH   6  22
BRANCH   3  48
HETATM   48  O   UNK     0     146.612 197.354 164.494  0.00  0.00    -0.390 OA
HETATM   49  H   UNK     0     147.203 197.708 163.809  0.00  0.00     0.210 HD
ENDBRANCH   3  48
BRANCH   5  50
HETATM   50  O   UNK     0     150.268 195.599 167.054  0.00  0.00    -0.388 OA
HETATM   51  H   UNK     0     150.197 195.100 166.223  0.00  0.00     0.210 HD
ENDBRANCH   5  50
BRANCH   4  52
HETATM   52  O   UNK     0     147.539 195.106 166.058  0.00  0.00    -0.390 OA
HETATM   53  H   UNK     0     147.718 194.774 166.954  0.00  0.00     0.210 HD
ENDBRANCH   4  52
TORSDOF 16
ENDMDL
MODEL 9
REMARK VINA RESULT:      -8.5     15.203     20.554
REMARK  16 active torsions:
REMARK  status: ('A' for Active; 'I' for Inactive)
REMARK    1  A    between atoms: O_2  and  C_22 
REMARK    2  A    between atoms: O_2  and  C_26 
REMARK    3  A    between atoms: O_4  and  C_18 
REMARK    4  A    between atoms: O_5  and  C_19 
REMARK    5  A    between atoms: O_6  and  C_25 
REMARK    6  A    between atoms: O_6  and  C_29 
REMARK    7  A    between atoms: O_7  and  C_20 
REMARK    8  A    between atoms: O_8  and  C_21 
REMARK    9  A    between atoms: O_9  and  C_23 
REMARK   10  A    between atoms: O_10  and  C_24 
REMARK   11  A    between atoms: O_13  and  C_35 
REMARK   12  A    between atoms: O_14  and  C_40 
REMARK   13  A    between atoms: O_15  and  C_41 
REMARK   14  A    between atoms: O_16  and  C_43 
REMARK   15  A    between atoms: C_17  and  C_26 
REMARK   16  A    between atoms: C_30  and  C_33 
ROOT
HETATM    1  O   UNK     0     169.643 184.626 170.929  0.00  0.00    -0.348 OA
HETATM    2  C   UNK     0     170.356 183.388 170.920  0.00  0.00     0.180 C 
HETATM    3  C   UNK     0     171.818 183.625 171.307  0.00  0.00     0.180 C 
HETATM    4  C   UNK     0     172.463 184.658 170.383  0.00  0.00     0.183 C 
HETATM    5  C   UNK     0     171.594 185.910 170.259  0.00  0.00     0.205 C 
HETATM    6  C   UNK     0     170.139 185.549 169.961  0.00  0.00     0.298 C 
ENDROOT
BRANCH   2   7
HETATM    7  C   UNK     0     169.657 182.450 171.900  0.00  0.00     0.205 C 
BRANCH   7   8
HETATM    8  O   UNK     0     170.168 181.137 171.727  0.00  0.00    -0.356 OA
BRANCH   8   9
HETATM    9  C   UNK     0     169.328 180.166 172.342  0.00  0.00     0.291 C 
HETATM   10  O   UNK     0     169.723 179.875 173.686  0.00  0.00    -0.351 OA
HETATM   11  C   UNK     0     171.015 179.270 173.799  0.00  0.00     0.152 C 
HETATM   12  C   UNK     0     171.073 177.945 173.026  0.00  0.00     0.178 C 
HETATM   13  C   UNK     0     171.287 179.073 175.289  0.00  0.00     0.042 C 
HETATM   14  C   UNK     0     170.651 178.166 171.573  0.00  0.00     0.183 C 
HETATM   15  C   UNK     0     169.307 178.892 171.498  0.00  0.00     0.204 C 
BRANCH  12  16
HETATM   16  O   UNK     0     172.403 177.430 173.027  0.00  0.00    -0.390 OA
HETATM   17  H   UNK     0     172.551 176.983 172.177  0.00  0.00     0.210 HD
ENDBRANCH  12  16
BRANCH  14  18
HETATM   18  O   UNK     0     170.559 176.905 170.913  0.00  0.00    -0.390 OA
HETATM   19  H   UNK     0     169.623 176.641 170.907  0.00  0.00     0.210 HD
ENDBRANCH  14  18
BRANCH  15  20
HETATM   20  O   UNK     0     168.270 178.051 172.005  0.00  0.00    -0.388 OA
HETATM   21  H   UNK     0     167.414 178.478 171.828  0.00  0.00     0.210 HD
ENDBRANCH  15  20
ENDBRANCH   8   9
ENDBRANCH   7   8
ENDBRANCH   2   7
BRANCH   6  22
HETATM   22  O   UNK     0     169.370 186.750 170.002  0.00  0.00    -0.311 OA
BRANCH  22  23
HETATM   23  C   UNK     0     168.315 186.708 169.118  0.00  0.00     0.157 A 
HETATM   24  C   UNK     0     167.029 186.803 169.503  0.00  0.00     0.124 A 
HETATM   25  O   UNK     0     165.943 186.732 168.644  0.00  0.00    -0.306 OA
HETATM   26  C   UNK     0     166.180 186.574 167.303  0.00  0.00     0.096 A 
HETATM   27  C   UNK     0     167.463 186.471 166.770  0.00  0.00     0.084 A 
HETATM   28  C   UNK     0     165.067 186.515 166.463  0.00  0.00     0.075 A 
HETATM   29  C   UNK     0     168.618 186.532 167.678  0.00  0.00     0.223 A 
HETATM   30  C   UNK     0     167.644 186.309 165.393  0.00  0.00     0.085 A 
HETATM   31  O   UNK     0     169.768 186.442 167.267  0.00  0.00    -0.284 OA
HETATM   32  C   UNK     0     166.529 186.252 164.555  0.00  0.00     0.074 A 
HETATM   33  C   UNK     0     165.244 186.355 165.088  0.00  0.00     0.071 A 
BRANCH  24  34
HETATM   34  C   UNK     0     166.635 186.972 170.913  0.00  0.00     0.004 A 
HETATM   35  C   UNK     0     166.222 185.868 171.660  0.00  0.00     0.053 A 
HETATM   36  C   UNK     0     165.851 186.028 172.995  0.00  0.00     0.099 A 
HETATM   37  C   UNK     0     165.891 187.291 173.584  0.00  0.00     0.098 A 
HETATM   38  C   UNK     0     166.303 188.395 172.837  0.00  0.00     0.040 A 
HETATM   39  C   UNK     0     166.676 188.236 171.503  0.00  0.00     0.017 A 
BRANCH  36  40
HETATM   40  O   UNK     0     165.448 184.942 173.713  0.00  0.00    -0.358 OA
HETATM   41  H   UNK     0     165.736 185.036 174.636  0.00  0.00     0.217 HD
ENDBRANCH  36  40
BRANCH  37  42
HETATM   42  O   UNK     0     165.531 187.460 174.887  0.00  0.00    -0.358 OA
HETATM   43  H   UNK     0     165.142 188.340 175.008  0.00  0.00     0.217 HD
ENDBRANCH  37  42
ENDBRANCH  24  34
BRANCH  30  44
HETATM   44  O   UNK     0     168.874 186.203 164.822  0.00  0.00    -0.360 OA
HETATM   45  H   UNK     0     168.865 185.491 164.159  0.00  0.00     0.217 HD
ENDBRANCH  30  44
BRANCH  33  46
HETATM   46  O   UNK     0     164.160 186.298 164.267  0.00  0.00    -0.361 OA
HETATM   47  H   UNK     0     163.876 187.203 164.056  0.00  0.00     0.217 HD
ENDBRANCH  33  46
ENDBRANCH  22  23
ENDBRANCH   6  22
BRANCH   3  48
HETATM   48  O   UNK     0     172.535 182.397 171.214  0.00  0.00    -0.390 OA
HETATM   49  H   UNK     0     173.456 182.603 170.983  0.00  0.00     0.210 HD
ENDBRANCH   3  48
BRANCH   5  50
HETATM   50  O   UNK     0     172.082 186.722 169.192  0.00  0.00    -0.388 OA
HETATM   51  H   UNK     0     172.980 186.422 168.970  0.00  0.00     0.210 HD
ENDBRANCH   5  50
BRANCH   4  52
HETATM   52  O   UNK     0     173.732 185.013 170.935  0.00  0.00    -0.390 OA
HETATM   53  H   UNK     0     173.642 185.898 171.326  0.00  0.00     0.210 HD
ENDBRANCH   4  52
TORSDOF 16
ENDMDL
