MODEL 1
REMARK VINA RESULT:      -7.0      0.000      0.000
REMARK  Name = 1794427
REMARK                            x       y       z     vdW  Elec       q    Type
REMARK                         _______ _______ _______ _____ _____    ______ ____
ROOT
ATOM     16  C   LIG    1      187.440 185.273 171.997  0.00  0.00    +0.211 C 
ATOM     17  C   LIG    1      186.557 186.521 172.085  0.00  0.00    +0.184 C 
ATOM     18  C   LIG    1      186.208 186.875 173.534  0.00  0.00    +0.150 C 
ATOM     19  C   LIG    1      185.558 185.686 174.252  0.00  0.00    +0.080 C 
ATOM     20  C   LIG    1      186.405 184.415 174.151  0.00  0.00    +0.168 C 
ATOM     31  C   LIG    1      186.783 184.086 172.710  0.00  0.00    +0.093 C 
ENDROOT
BRANCH  20  21
ATOM     21  C   LIG    1      185.563 183.283 174.713  0.00  0.00    +0.337 C 
ATOM     22  O   LIG    1      184.508 183.425 175.315  0.00  0.00    -0.248 OA
BRANCH  21  23
ATOM     23  O   LIG    1      186.140 182.084 174.459  0.00  0.00    -0.479 OA
ATOM     24  H   LIG    1      186.408 181.623 175.283  0.00  0.00    +0.295 HD
ENDBRANCH  21  23
ENDBRANCH  20  21
BRANCH  20  25
ATOM     25  O   LIG    1      187.565 184.532 174.964  0.00  0.00    -0.377 OA
ATOM     26  H   LIG    1      187.914 185.434 174.867  0.00  0.00    +0.211 HD
ENDBRANCH  20  25
BRANCH  18  27
ATOM     27  O   LIG    1      187.398 187.262 174.224  0.00  0.00    -0.389 OA
ATOM     28  H   LIG    1      187.671 186.512 174.779  0.00  0.00    +0.210 HD
ENDBRANCH  18  27
BRANCH  17  29
ATOM     29  O   LIG    1      187.226 187.636 171.497  0.00  0.00    -0.386 OA
ATOM     30  H   LIG    1      186.838 188.441 171.878  0.00  0.00    +0.210 HD
ENDBRANCH  17  29
BRANCH  16   1
ATOM      1  O   LIG    1      187.623 184.906 170.630  0.00  0.00    -0.455 OA
BRANCH   1   2
ATOM      2  C   LIG    1      188.825 185.243 170.083  0.00  0.00    +0.332 C 
ATOM     15  O   LIG    1      189.604 186.087 170.496  0.00  0.00    -0.246 OA
BRANCH   2   3
ATOM      3  C   LIG    1      189.030 184.400 168.882  0.00  0.00    +0.092 C 
ATOM      4  C   LIG    1      189.310 183.098 169.029  0.00  0.00    +0.015 C 
BRANCH   4   5
ATOM      5  C   LIG    1      189.524 182.158 167.915  0.00  0.00    -0.021 A 
ATOM      6  C   LIG    1      188.669 182.193 166.824  0.00  0.00    +0.012 A 
ATOM      7  C   LIG    1      188.872 181.302 165.769  0.00  0.00    +0.050 A 
ATOM      8  C   LIG    1      189.925 180.389 165.820  0.00  0.00    +0.158 A 
ATOM      9  C   LIG    1      190.777 180.366 166.925  0.00  0.00    +0.159 A 
ATOM     14  C   LIG    1      190.574 181.257 167.980  0.00  0.00    +0.057 A 
BRANCH   9  10
ATOM     10  O   LIG    1      191.809 179.480 166.985  0.00  0.00    -0.503 OA
ATOM     11  H   LIG    1      192.508 179.830 167.560  0.00  0.00    +0.292 HD
ENDBRANCH   9  10
BRANCH   8  12
ATOM     12  O   LIG    1      190.112 179.525 164.784  0.00  0.00    -0.503 OA
ATOM     13  H   LIG    1      190.113 180.014 163.945  0.00  0.00    +0.292 HD
ENDBRANCH   8  12
ENDBRANCH   4   5
ENDBRANCH   2   3
ENDBRANCH   1   2
ENDBRANCH  16   1
TORSDOF 11
ENDMDL
MODEL 2
REMARK VINA RESULT:      -7.0      6.361      9.870
REMARK  Name = 1794427
REMARK                            x       y       z     vdW  Elec       q    Type
REMARK                         _______ _______ _______ _____ _____    ______ ____
ROOT
ATOM     16  C   LIG    1      182.813 183.683 173.791  0.00  0.00    +0.211 C 
ATOM     17  C   LIG    1      183.731 182.464 173.926  0.00  0.00    +0.184 C 
ATOM     18  C   LIG    1      184.772 182.650 175.035  0.00  0.00    +0.150 C 
ATOM     19  C   LIG    1      185.585 183.933 174.820  0.00  0.00    +0.080 C 
ATOM     20  C   LIG    1      184.689 185.163 174.648  0.00  0.00    +0.168 C 
ATOM     31  C   LIG    1      183.630 184.960 173.570  0.00  0.00    +0.093 C 
ENDROOT
BRANCH  20  21
ATOM     21  C   LIG    1      185.598 186.310 174.241  0.00  0.00    +0.337 C 
ATOM     22  O   LIG    1      185.487 186.962 173.213  0.00  0.00    -0.248 OA
BRANCH  21  23
ATOM     23  O   LIG    1      186.557 186.517 175.175  0.00  0.00    -0.479 OA
ATOM     24  H   LIG    1      186.370 186.030 176.006  0.00  0.00    +0.295 HD
ENDBRANCH  21  23
ENDBRANCH  20  21
BRANCH  20  25
ATOM     25  O   LIG    1      184.089 185.510 175.888  0.00  0.00    -0.377 OA
ATOM     26  H   LIG    1      184.779 185.876 176.467  0.00  0.00    +0.211 HD
ENDBRANCH  20  25
BRANCH  18  27
ATOM     27  O   LIG    1      184.108 182.707 176.299  0.00  0.00    -0.389 OA
ATOM     28  H   LIG    1      184.466 183.470 176.783  0.00  0.00    +0.210 HD
ENDBRANCH  18  27
BRANCH  17  29
ATOM     29  O   LIG    1      182.959 181.301 174.223  0.00  0.00    -0.386 OA
ATOM     30  H   LIG    1      182.035 181.500 173.996  0.00  0.00    +0.210 HD
ENDBRANCH  17  29
BRANCH  16   1
ATOM      1  O   LIG    1      181.957 183.518 172.662  0.00  0.00    -0.455 OA
BRANCH   1   2
ATOM      2  C   LIG    1      180.634 183.343 172.943  0.00  0.00    +0.332 C 
ATOM     15  O   LIG    1      180.081 182.292 173.226  0.00  0.00    -0.246 OA
BRANCH   2   3
ATOM      3  C   LIG    1      179.969 184.663 172.845  0.00  0.00    +0.092 C 
ATOM      4  C   LIG    1      180.163 185.420 171.756  0.00  0.00    +0.015 C 
BRANCH   4   5
ATOM      5  C   LIG    1      179.550 186.742 171.537  0.00  0.00    -0.021 A 
ATOM      6  C   LIG    1      179.631 187.328 170.284  0.00  0.00    +0.012 A 
ATOM      7  C   LIG    1      179.050 188.581 170.078  0.00  0.00    +0.050 A 
ATOM      8  C   LIG    1      178.397 189.228 171.127  0.00  0.00    +0.158 A 
ATOM      9  C   LIG    1      178.325 188.624 172.382  0.00  0.00    +0.159 A 
ATOM     14  C   LIG    1      178.905 187.372 172.589  0.00  0.00    +0.057 A 
BRANCH   9  10
ATOM     10  O   LIG    1      177.689 189.247 173.414  0.00  0.00    -0.503 OA
ATOM     11  H   LIG    1      178.340 189.699 173.974  0.00  0.00    +0.292 HD
ENDBRANCH   9  10
BRANCH   8  12
ATOM     12  O   LIG    1      177.834 190.450 170.912  0.00  0.00    -0.503 OA
ATOM     13  H   LIG    1      177.376 190.745 171.716  0.00  0.00    +0.292 HD
ENDBRANCH   8  12
ENDBRANCH   4   5
ENDBRANCH   2   3
ENDBRANCH   1   2
ENDBRANCH  16   1
TORSDOF 11
ENDMDL
MODEL 3
REMARK VINA RESULT:      -6.9      1.344      1.949
REMARK  Name = 1794427
REMARK                            x       y       z     vdW  Elec       q    Type
REMARK                         _______ _______ _______ _____ _____    ______ ____
ROOT
ATOM     16  C   LIG    1      186.434 185.049 173.328  0.00  0.00    +0.211 C 
ATOM     17  C   LIG    1      186.118 186.244 174.233  0.00  0.00    +0.184 C 
ATOM     18  C   LIG    1      185.921 185.821 175.692  0.00  0.00    +0.150 C 
ATOM     19  C   LIG    1      184.843 184.737 175.812  0.00  0.00    +0.080 C 
ATOM     20  C   LIG    1      185.118 183.544 174.892  0.00  0.00    +0.168 C 
ATOM     31  C   LIG    1      185.352 183.971 173.447  0.00  0.00    +0.093 C 
ENDROOT
BRANCH  20  21
ATOM     21  C   LIG    1      183.888 182.654 174.953  0.00  0.00    +0.337 C 
ATOM     22  O   LIG    1      183.212 182.325 173.990  0.00  0.00    -0.248 OA
BRANCH  21  23
ATOM     23  O   LIG    1      183.637 182.270 176.228  0.00  0.00    -0.479 OA
ATOM     24  H   LIG    1      183.417 183.033 176.804  0.00  0.00    +0.295 HD
ENDBRANCH  21  23
ENDBRANCH  20  21
BRANCH  20  25
ATOM     25  O   LIG    1      186.218 182.790 175.381  0.00  0.00    -0.377 OA
ATOM     26  H   LIG    1      186.542 183.217 176.192  0.00  0.00    +0.211 HD
ENDBRANCH  20  25
BRANCH  18  27
ATOM     27  O   LIG    1      187.157 185.331 176.212  0.00  0.00    -0.389 OA
ATOM     28  H   LIG    1      186.969 184.499 176.679  0.00  0.00    +0.210 HD
ENDBRANCH  18  27
BRANCH  17  29
ATOM     29  O   LIG    1      187.182 187.194 174.178  0.00  0.00    -0.386 OA
ATOM     30  H   LIG    1      186.824 188.007 173.785  0.00  0.00    +0.210 HD
ENDBRANCH  17  29
BRANCH  16   1
ATOM      1  O   LIG    1      186.473 185.473 171.966  0.00  0.00    -0.455 OA
BRANCH   1   2
ATOM      2  C   LIG    1      187.710 185.514 171.394  0.00  0.00    +0.332 C 
ATOM     15  O   LIG    1      188.588 186.332 171.614  0.00  0.00    -0.246 OA
BRANCH   2   3
ATOM      3  C   LIG    1      187.809 184.382 170.444  0.00  0.00    +0.092 C 
ATOM      4  C   LIG    1      188.755 184.397 169.495  0.00  0.00    +0.015 C 
BRANCH   4   5
ATOM      5  C   LIG    1      188.961 183.328 168.503  0.00  0.00    -0.021 A 
ATOM      6  C   LIG    1      188.602 183.550 167.182  0.00  0.00    +0.012 A 
ATOM      7  C   LIG    1      188.797 182.537 166.242  0.00  0.00    +0.050 A 
ATOM      8  C   LIG    1      189.349 181.317 166.636  0.00  0.00    +0.158 A 
ATOM      9  C   LIG    1      189.704 181.110 167.969  0.00  0.00    +0.159 A 
ATOM     14  C   LIG    1      189.510 182.122 168.909  0.00  0.00    +0.057 A 
BRANCH   9  10
ATOM     10  O   LIG    1      190.244 179.923 168.364  0.00  0.00    -0.503 OA
ATOM     11  H   LIG    1      191.184 180.044 168.574  0.00  0.00    +0.292 HD
ENDBRANCH   9  10
BRANCH   8  12
ATOM     12  O   LIG    1      189.534 180.337 165.709  0.00  0.00    -0.503 OA
ATOM     13  H   LIG    1      188.673 180.002 165.409  0.00  0.00    +0.292 HD
ENDBRANCH   8  12
ENDBRANCH   4   5
ENDBRANCH   2   3
ENDBRANCH   1   2
ENDBRANCH  16   1
TORSDOF 11
ENDMDL
MODEL 4
REMARK VINA RESULT:      -6.9      6.360      9.857
REMARK  Name = 1794427
REMARK                            x       y       z     vdW  Elec       q    Type
REMARK                         _______ _______ _______ _____ _____    ______ ____
ROOT
ATOM     16  C   LIG    1      182.833 183.746 173.781  0.00  0.00    +0.211 C 
ATOM     17  C   LIG    1      183.735 182.517 173.919  0.00  0.00    +0.184 C 
ATOM     18  C   LIG    1      184.770 182.688 175.036  0.00  0.00    +0.150 C 
ATOM     19  C   LIG    1      185.599 183.962 174.832  0.00  0.00    +0.080 C 
ATOM     20  C   LIG    1      184.718 185.202 174.657  0.00  0.00    +0.168 C 
ATOM     31  C   LIG    1      183.665 185.015 173.570  0.00  0.00    +0.093 C 
ENDROOT
BRANCH  20  21
ATOM     21  C   LIG    1      185.643 186.341 174.261  0.00  0.00    +0.337 C 
ATOM     22  O   LIG    1      185.563 186.980 173.222  0.00  0.00    -0.248 OA
BRANCH  21  23
ATOM     23  O   LIG    1      186.577 186.556 175.219  0.00  0.00    -0.479 OA
ATOM     24  H   LIG    1      186.638 187.504 175.465  0.00  0.00    +0.295 HD
ENDBRANCH  21  23
ENDBRANCH  20  21
BRANCH  20  25
ATOM     25  O   LIG    1      184.113 185.552 175.894  0.00  0.00    -0.377 OA
ATOM     26  H   LIG    1      183.219 185.888 175.710  0.00  0.00    +0.211 HD
ENDBRANCH  20  25
BRANCH  18  27
ATOM     27  O   LIG    1      184.098 182.747 176.295  0.00  0.00    -0.389 OA
ATOM     28  H   LIG    1      183.160 182.934 176.117  0.00  0.00    +0.210 HD
ENDBRANCH  18  27
BRANCH  17  29
ATOM     29  O   LIG    1      182.948 181.361 174.206  0.00  0.00    -0.386 OA
ATOM     30  H   LIG    1      182.496 181.522 175.051  0.00  0.00    +0.210 HD
ENDBRANCH  17  29
BRANCH  16   1
ATOM      1  O   LIG    1      181.983 183.595 172.645  0.00  0.00    -0.455 OA
BRANCH   1   2
ATOM      2  C   LIG    1      180.655 183.438 172.916  0.00  0.00    +0.332 C 
ATOM     15  O   LIG    1      180.072 182.386 173.118  0.00  0.00    -0.246 OA
BRANCH   2   3
ATOM      3  C   LIG    1      180.031 184.781 172.921  0.00  0.00    +0.092 C 
ATOM      4  C   LIG    1      179.987 185.494 171.787  0.00  0.00    +0.015 C 
BRANCH   4   5
ATOM      5  C   LIG    1      179.384 186.833 171.664  0.00  0.00    -0.021 A 
ATOM      6  C   LIG    1      178.845 187.440 172.787  0.00  0.00    +0.012 A 
ATOM      7  C   LIG    1      178.275 188.709 172.669  0.00  0.00    +0.050 A 
ATOM      8  C   LIG    1      178.251 189.351 171.431  0.00  0.00    +0.158 A 
ATOM      9  C   LIG    1      178.797 188.725 170.310  0.00  0.00    +0.159 A 
ATOM     14  C   LIG    1      179.368 187.458 170.427  0.00  0.00    +0.057 A 
BRANCH   9  10
ATOM     10  O   LIG    1      178.780 189.343 169.096  0.00  0.00    -0.503 OA
ATOM     11  H   LIG    1      179.524 189.028 168.558  0.00  0.00    +0.292 HD
ENDBRANCH   9  10
BRANCH   8  12
ATOM     12  O   LIG    1      177.691 190.588 171.330  0.00  0.00    -0.503 OA
ATOM     13  H   LIG    1      176.970 190.675 171.974  0.00  0.00    +0.292 HD
ENDBRANCH   8  12
ENDBRANCH   4   5
ENDBRANCH   2   3
ENDBRANCH   1   2
ENDBRANCH  16   1
TORSDOF 11
ENDMDL
MODEL 5
REMARK VINA RESULT:      -6.8      6.282      8.678
REMARK  Name = 1794427
REMARK                            x       y       z     vdW  Elec       q    Type
REMARK                         _______ _______ _______ _____ _____    ______ ____
ROOT
ATOM     16  C   LIG    1      182.993 183.593 173.660  0.00  0.00    +0.211 C 
ATOM     17  C   LIG    1      183.967 182.430 173.878  0.00  0.00    +0.184 C 
ATOM     18  C   LIG    1      184.923 182.695 175.045  0.00  0.00    +0.150 C 
ATOM     19  C   LIG    1      185.675 184.018 174.855  0.00  0.00    +0.080 C 
ATOM     20  C   LIG    1      184.725 185.192 174.602  0.00  0.00    +0.168 C 
ATOM     31  C   LIG    1      183.749 184.911 173.464  0.00  0.00    +0.093 C 
ENDROOT
BRANCH  20  21
ATOM     21  C   LIG    1      185.592 186.382 174.228  0.00  0.00    +0.337 C 
ATOM     22  O   LIG    1      185.437 187.080 173.237  0.00  0.00    -0.248 OA
BRANCH  21  23
ATOM     23  O   LIG    1      186.570 186.570 175.147  0.00  0.00    -0.479 OA
ATOM     24  H   LIG    1      187.435 186.224 174.838  0.00  0.00    +0.295 HD
ENDBRANCH  21  23
ENDBRANCH  20  21
BRANCH  20  25
ATOM     25  O   LIG    1      184.029 185.526 175.794  0.00  0.00    -0.377 OA
ATOM     26  H   LIG    1      183.547 186.356 175.642  0.00  0.00    +0.211 HD
ENDBRANCH  20  25
BRANCH  18  27
ATOM     27  O   LIG    1      184.179 182.735 176.264  0.00  0.00    -0.389 OA
ATOM     28  H   LIG    1      184.726 183.191 176.926  0.00  0.00    +0.210 HD
ENDBRANCH  18  27
BRANCH  17  29
ATOM     29  O   LIG    1      183.244 181.231 174.150  0.00  0.00    -0.386 OA
ATOM     30  H   LIG    1      183.858 180.488 174.024  0.00  0.00    +0.210 HD
ENDBRANCH  17  29
BRANCH  16   1
ATOM      1  O   LIG    1      182.221 183.360 172.484  0.00  0.00    -0.455 OA
BRANCH   1   2
ATOM      2  C   LIG    1      180.880 183.581 172.602  0.00  0.00    +0.332 C 
ATOM     15  O   LIG    1      180.309 184.657 172.521  0.00  0.00    -0.246 OA
BRANCH   2   3
ATOM      3  C   LIG    1      180.224 182.277 172.852  0.00  0.00    +0.092 C 
ATOM      4  C   LIG    1      180.511 181.232 172.064  0.00  0.00    +0.015 C 
BRANCH   4   5
ATOM      5  C   LIG    1      179.934 179.885 172.218  0.00  0.00    -0.021 A 
ATOM      6  C   LIG    1      178.559 179.724 172.145  0.00  0.00    +0.012 A 
ATOM      7  C   LIG    1      178.012 178.448 172.291  0.00  0.00    +0.050 A 
ATOM      8  C   LIG    1      178.848 177.353 172.507  0.00  0.00    +0.158 A 
ATOM      9  C   LIG    1      180.229 177.531 172.579  0.00  0.00    +0.159 A 
ATOM     14  C   LIG    1      180.776 178.806 172.433  0.00  0.00    +0.057 A 
BRANCH   9  10
ATOM     10  O   LIG    1      181.055 176.468 172.789  0.00  0.00    -0.503 OA
ATOM     11  H   LIG    1      180.846 175.762 172.158  0.00  0.00    +0.292 HD
ENDBRANCH   9  10
BRANCH   8  12
ATOM     12  O   LIG    1      178.301 176.113 172.649  0.00  0.00    -0.503 OA
ATOM     13  H   LIG    1      177.730 175.918 171.888  0.00  0.00    +0.292 HD
ENDBRANCH   8  12
ENDBRANCH   4   5
ENDBRANCH   2   3
ENDBRANCH   1   2
ENDBRANCH  16   1
TORSDOF 11
ENDMDL
MODEL 6
REMARK VINA RESULT:      -6.7      6.031      8.741
REMARK  Name = 1794427
REMARK                            x       y       z     vdW  Elec       q    Type
REMARK                         _______ _______ _______ _____ _____    ______ ____
ROOT
ATOM     16  C   LIG    1      183.081 183.450 173.871  0.00  0.00    +0.211 C 
ATOM     17  C   LIG    1      184.074 182.329 173.550  0.00  0.00    +0.184 C 
ATOM     18  C   LIG    1      185.282 182.347 174.492  0.00  0.00    +0.150 C 
ATOM     19  C   LIG    1      185.973 183.716 174.480  0.00  0.00    +0.080 C 
ATOM     20  C   LIG    1      184.994 184.859 174.766  0.00  0.00    +0.168 C 
ATOM     31  C   LIG    1      183.774 184.817 173.852  0.00  0.00    +0.093 C 
ENDROOT
BRANCH  20  21
ATOM     21  C   LIG    1      185.752 186.153 174.521  0.00  0.00    +0.337 C 
ATOM     22  O   LIG    1      185.720 186.800 173.485  0.00  0.00    -0.248 OA
BRANCH  21  23
ATOM     23  O   LIG    1      186.475 186.498 175.614  0.00  0.00    -0.479 OA
ATOM     24  H   LIG    1      187.242 187.065 175.382  0.00  0.00    +0.295 HD
ENDBRANCH  21  23
ENDBRANCH  20  21
BRANCH  20  25
ATOM     25  O   LIG    1      184.604 184.842 176.132  0.00  0.00    -0.377 OA
ATOM     26  H   LIG    1      184.413 183.922 176.381  0.00  0.00    +0.211 HD
ENDBRANCH  20  25
BRANCH  18  27
ATOM     27  O   LIG    1      184.851 182.036 175.817  0.00  0.00    -0.389 OA
ATOM     28  H   LIG    1      184.687 181.078 175.855  0.00  0.00    +0.210 HD
ENDBRANCH  18  27
BRANCH  17  29
ATOM     29  O   LIG    1      183.432 181.060 173.664  0.00  0.00    -0.386 OA
ATOM     30  H   LIG    1      182.609 181.195 174.162  0.00  0.00    +0.210 HD
ENDBRANCH  17  29
BRANCH  16   1
ATOM      1  O   LIG    1      182.049 183.477 172.886  0.00  0.00    -0.455 OA
BRANCH   1   2
ATOM      2  C   LIG    1      180.805 183.130 173.324  0.00  0.00    +0.332 C 
ATOM     15  O   LIG    1      180.321 183.376 174.417  0.00  0.00    -0.246 OA
BRANCH   2   3
ATOM      3  C   LIG    1      180.129 182.391 172.233  0.00  0.00    +0.092 C 
ATOM      4  C   LIG    1      179.792 181.107 172.414  0.00  0.00    +0.015 C 
BRANCH   4   5
ATOM      5  C   LIG    1      179.109 180.272 171.411  0.00  0.00    -0.021 A 
ATOM      6  C   LIG    1      178.355 180.881 170.421  0.00  0.00    +0.012 A 
ATOM      7  C   LIG    1      177.708 180.089 169.471  0.00  0.00    +0.050 A 
ATOM      8  C   LIG    1      177.824 178.700 169.525  0.00  0.00    +0.158 A 
ATOM      9  C   LIG    1      178.586 178.102 170.529  0.00  0.00    +0.159 A 
ATOM     14  C   LIG    1      179.233 178.893 171.478  0.00  0.00    +0.057 A 
BRANCH   9  10
ATOM     10  O   LIG    1      178.707 176.746 170.591  0.00  0.00    -0.503 OA
ATOM     11  H   LIG    1      178.934 176.479 171.496  0.00  0.00    +0.292 HD
ENDBRANCH   9  10
BRANCH   8  12
ATOM     12  O   LIG    1      177.187 177.939 168.592  0.00  0.00    -0.503 OA
ATOM     13  H   LIG    1      177.630 177.078 168.514  0.00  0.00    +0.292 HD
ENDBRANCH   8  12
ENDBRANCH   4   5
ENDBRANCH   2   3
ENDBRANCH   1   2
ENDBRANCH  16   1
TORSDOF 11
ENDMDL
MODEL 7
REMARK VINA RESULT:      -6.7      5.411      7.389
REMARK  Name = 1794427
REMARK                            x       y       z     vdW  Elec       q    Type
REMARK                         _______ _______ _______ _____ _____    ______ ____
ROOT
ATOM     16  C   LIG    1      183.946 185.203 172.919  0.00  0.00    +0.211 C 
ATOM     17  C   LIG    1      183.735 184.255 174.103  0.00  0.00    +0.184 C 
ATOM     18  C   LIG    1      184.500 184.716 175.349  0.00  0.00    +0.150 C 
ATOM     19  C   LIG    1      185.992 184.898 175.045  0.00  0.00    +0.080 C 
ATOM     20  C   LIG    1      186.230 185.816 173.843  0.00  0.00    +0.168 C 
ATOM     31  C   LIG    1      185.438 185.376 172.615  0.00  0.00    +0.093 C 
ENDROOT
BRANCH  20  21
ATOM     21  C   LIG    1      187.714 185.745 173.526  0.00  0.00    +0.337 C 
ATOM     22  O   LIG    1      188.370 186.650 173.032  0.00  0.00    -0.248 OA
BRANCH  21  23
ATOM     23  O   LIG    1      188.219 184.534 173.866  0.00  0.00    -0.479 OA
ATOM     24  H   LIG    1      188.101 183.873 173.151  0.00  0.00    +0.295 HD
ENDBRANCH  21  23
ENDBRANCH  20  21
BRANCH  20  25
ATOM     25  O   LIG    1      185.928 187.161 174.184  0.00  0.00    -0.377 OA
ATOM     26  H   LIG    1      186.763 187.655 174.240  0.00  0.00    +0.211 HD
ENDBRANCH  20  25
BRANCH  18  27
ATOM     27  O   LIG    1      183.948 185.950 175.810  0.00  0.00    -0.389 OA
ATOM     28  H   LIG    1      183.034 185.775 176.091  0.00  0.00    +0.210 HD
ENDBRANCH  18  27
BRANCH  17  29
ATOM     29  O   LIG    1      182.348 184.179 174.429  0.00  0.00    -0.386 OA
ATOM     30  H   LIG    1      182.278 184.154 175.398  0.00  0.00    +0.210 HD
ENDBRANCH  17  29
BRANCH  16   1
ATOM      1  O   LIG    1      183.329 184.660 171.752  0.00  0.00    -0.455 OA
BRANCH   1   2
ATOM      2  C   LIG    1      182.285 185.377 171.247  0.00  0.00    +0.332 C 
ATOM     15  O   LIG    1      181.152 184.971 171.045  0.00  0.00    -0.246 OA
BRANCH   2   3
ATOM      3  C   LIG    1      182.765 186.751 170.977  0.00  0.00    +0.092 C 
ATOM      4  C   LIG    1      183.437 187.007 169.846  0.00  0.00    +0.015 C 
BRANCH   4   5
ATOM      5  C   LIG    1      183.954 188.332 169.461  0.00  0.00    -0.021 A 
ATOM      6  C   LIG    1      183.064 189.323 169.081  0.00  0.00    +0.012 A 
ATOM      7  C   LIG    1      183.554 190.578 168.717  0.00  0.00    +0.050 A 
ATOM      8  C   LIG    1      184.927 190.823 168.739  0.00  0.00    +0.158 A 
ATOM      9  C   LIG    1      185.811 189.814 169.123  0.00  0.00    +0.159 A 
ATOM     14  C   LIG    1      185.321 188.560 169.487  0.00  0.00    +0.057 A 
BRANCH   9  10
ATOM     10  O   LIG    1      187.154 190.042 169.147  0.00  0.00    -0.503 OA
ATOM     11  H   LIG    1      187.435 190.433 168.305  0.00  0.00    +0.292 HD
ENDBRANCH   9  10
BRANCH   8  12
ATOM     12  O   LIG    1      185.393 192.052 168.381  0.00  0.00    -0.503 OA
ATOM     13  H   LIG    1      184.947 192.737 168.905  0.00  0.00    +0.292 HD
ENDBRANCH   8  12
ENDBRANCH   4   5
ENDBRANCH   2   3
ENDBRANCH   1   2
ENDBRANCH  16   1
TORSDOF 11
ENDMDL
MODEL 8
REMARK VINA RESULT:      -6.7      4.893      6.875
REMARK  Name = 1794427
REMARK                            x       y       z     vdW  Elec       q    Type
REMARK                         _______ _______ _______ _____ _____    ______ ____
ROOT
ATOM     16  C   LIG    1      185.170 184.099 173.645  0.00  0.00    +0.211 C 
ATOM     17  C   LIG    1      186.394 183.316 174.129  0.00  0.00    +0.184 C 
ATOM     18  C   LIG    1      187.501 184.244 174.641  0.00  0.00    +0.150 C 
ATOM     19  C   LIG    1      187.891 185.279 173.578  0.00  0.00    +0.080 C 
ATOM     20  C   LIG    1      186.678 186.052 173.052  0.00  0.00    +0.168 C 
ATOM     31  C   LIG    1      185.563 185.126 172.578  0.00  0.00    +0.093 C 
ENDROOT
BRANCH  20  21
ATOM     21  C   LIG    1      187.167 186.882 171.877  0.00  0.00    +0.337 C 
ATOM     22  O   LIG    1      186.644 186.909 170.772  0.00  0.00    -0.248 OA
BRANCH  21  23
ATOM     23  O   LIG    1      188.268 187.593 172.217  0.00  0.00    -0.479 OA
ATOM     24  H   LIG    1      189.087 187.056 172.151  0.00  0.00    +0.295 HD
ENDBRANCH  21  23
ENDBRANCH  20  21
BRANCH  20  25
ATOM     25  O   LIG    1      186.202 186.952 174.043  0.00  0.00    -0.377 OA
ATOM     26  H   LIG    1      186.534 186.655 174.907  0.00  0.00    +0.211 HD
ENDBRANCH  20  25
BRANCH  18  27
ATOM     27  O   LIG    1      187.047 184.912 175.820  0.00  0.00    -0.389 OA
ATOM     28  H   LIG    1      186.093 185.071 175.718  0.00  0.00    +0.210 HD
ENDBRANCH  18  27
BRANCH  17  29
ATOM     29  O   LIG    1      186.023 182.432 175.186  0.00  0.00    -0.386 OA
ATOM     30  H   LIG    1      185.895 181.551 174.795  0.00  0.00    +0.210 HD
ENDBRANCH  17  29
BRANCH  16   1
ATOM      1  O   LIG    1      184.229 183.203 173.054  0.00  0.00    -0.455 OA
BRANCH   1   2
ATOM      2  C   LIG    1      183.122 182.929 173.802  0.00  0.00    +0.332 C 
ATOM     15  O   LIG    1      182.661 183.614 174.701  0.00  0.00    -0.246 OA
BRANCH   2   3
ATOM      3  C   LIG    1      182.566 181.639 173.335  0.00  0.00    +0.092 C 
ATOM      4  C   LIG    1      183.347 180.792 172.649  0.00  0.00    +0.015 C 
BRANCH   4   5
ATOM      5  C   LIG    1      182.912 179.479 172.142  0.00  0.00    -0.021 A 
ATOM      6  C   LIG    1      181.576 179.125 172.232  0.00  0.00    +0.012 A 
ATOM      7  C   LIG    1      181.165 177.880 171.752  0.00  0.00    +0.050 A 
ATOM      8  C   LIG    1      182.097 177.008 171.188  0.00  0.00    +0.158 A 
ATOM      9  C   LIG    1      183.439 177.379 171.106  0.00  0.00    +0.159 A 
ATOM     14  C   LIG    1      183.850 178.623 171.585  0.00  0.00    +0.057 A 
BRANCH   9  10
ATOM     10  O   LIG    1      184.358 176.536 170.557  0.00  0.00    -0.503 OA
ATOM     11  H   LIG    1      184.414 176.691 169.601  0.00  0.00    +0.292 HD
ENDBRANCH   9  10
BRANCH   8  12
ATOM     12  O   LIG    1      181.683 175.796 170.724  0.00  0.00    -0.503 OA
ATOM     13  H   LIG    1      182.078 175.088 171.259  0.00  0.00    +0.292 HD
ENDBRANCH   8  12
ENDBRANCH   4   5
ENDBRANCH   2   3
ENDBRANCH   1   2
ENDBRANCH  16   1
TORSDOF 11
ENDMDL
MODEL 9
REMARK VINA RESULT:      -6.6      2.118      2.716
REMARK  Name = 1794427
REMARK                            x       y       z     vdW  Elec       q    Type
REMARK                         _______ _______ _______ _____ _____    ______ ____
ROOT
ATOM     16  C   LIG    1      186.212 185.139 173.274  0.00  0.00    +0.211 C 
ATOM     17  C   LIG    1      186.165 186.374 174.179  0.00  0.00    +0.184 C 
ATOM     18  C   LIG    1      185.899 186.002 175.641  0.00  0.00    +0.150 C 
ATOM     19  C   LIG    1      184.618 185.169 175.776  0.00  0.00    +0.080 C 
ATOM     20  C   LIG    1      184.625 183.945 174.855  0.00  0.00    +0.168 C 
ATOM     31  C   LIG    1      184.928 184.314 173.407  0.00  0.00    +0.093 C 
ENDROOT
BRANCH  20  21
ATOM     21  C   LIG    1      183.236 183.334 174.931  0.00  0.00    +0.337 C 
ATOM     22  O   LIG    1      182.959 182.291 175.505  0.00  0.00    -0.248 OA
BRANCH  21  23
ATOM     23  O   LIG    1      182.337 184.104 174.272  0.00  0.00    -0.479 OA
ATOM     24  H   LIG    1      181.414 183.884 174.521  0.00  0.00    +0.295 HD
ENDBRANCH  21  23
ENDBRANCH  20  21
BRANCH  20  25
ATOM     25  O   LIG    1      185.547 182.976 175.334  0.00  0.00    -0.377 OA
ATOM     26  H   LIG    1      185.871 183.269 176.202  0.00  0.00    +0.211 HD
ENDBRANCH  20  25
BRANCH  18  27
ATOM     27  O   LIG    1      187.010 185.262 176.149  0.00  0.00    -0.389 OA
ATOM     28  H   LIG    1      186.877 184.330 175.904  0.00  0.00    +0.210 HD
ENDBRANCH  18  27
BRANCH  17  29
ATOM     29  O   LIG    1      187.404 187.078 174.111  0.00  0.00    -0.386 OA
ATOM     30  H   LIG    1      187.291 187.911 174.598  0.00  0.00    +0.210 HD
ENDBRANCH  17  29
BRANCH  16   1
ATOM      1  O   LIG    1      186.324 185.545 171.911  0.00  0.00    -0.455 OA
BRANCH   1   2
ATOM      2  C   LIG    1      187.489 185.208 171.287  0.00  0.00    +0.332 C 
ATOM     15  O   LIG    1      188.521 185.860 171.268  0.00  0.00    -0.246 OA
BRANCH   2   3
ATOM      3  C   LIG    1      187.288 183.900 170.624  0.00  0.00    +0.092 C 
ATOM      4  C   LIG    1      187.083 183.855 169.300  0.00  0.00    +0.015 C 
BRANCH   4   5
ATOM      5  C   LIG    1      186.882 182.616 168.527  0.00  0.00    -0.021 A 
ATOM      6  C   LIG    1      185.593 182.181 168.266  0.00  0.00    +0.012 A 
ATOM      7  C   LIG    1      185.403 181.008 167.534  0.00  0.00    +0.050 A 
ATOM      8  C   LIG    1      186.505 180.288 167.072  0.00  0.00    +0.158 A 
ATOM      9  C   LIG    1      187.797 180.740 167.344  0.00  0.00    +0.159 A 
ATOM     14  C   LIG    1      187.987 181.912 168.075  0.00  0.00    +0.057 A 
BRANCH   9  10
ATOM     10  O   LIG    1      188.880 180.044 166.898  0.00  0.00    -0.503 OA
ATOM     11  H   LIG    1      189.693 180.521 167.129  0.00  0.00    +0.292 HD
ENDBRANCH   9  10
BRANCH   8  12
ATOM     12  O   LIG    1      186.306 179.145 166.359  0.00  0.00    -0.503 OA
ATOM     13  H   LIG    1      185.905 179.360 165.501  0.00  0.00    +0.292 HD
ENDBRANCH   8  12
ENDBRANCH   4   5
ENDBRANCH   2   3
ENDBRANCH   1   2
ENDBRANCH  16   1
TORSDOF 11
ENDMDL
MODEL 10
REMARK VINA RESULT:      -6.6      5.168      8.272
REMARK  Name = 1794427
REMARK                            x       y       z     vdW  Elec       q    Type
REMARK                         _______ _______ _______ _____ _____    ______ ____
ROOT
ATOM     16  C   LIG    1      185.086 184.114 173.753  0.00  0.00    +0.211 C 
ATOM     17  C   LIG    1      186.321 183.319 174.187  0.00  0.00    +0.184 C 
ATOM     18  C   LIG    1      187.464 184.236 174.636  0.00  0.00    +0.150 C 
ATOM     19  C   LIG    1      187.816 185.255 173.545  0.00  0.00    +0.080 C 
ATOM     20  C   LIG    1      186.591 186.040 173.069  0.00  0.00    +0.168 C 
ATOM     31  C   LIG    1      185.442 185.125 172.659  0.00  0.00    +0.093 C 
ENDROOT
BRANCH  20  21
ATOM     21  C   LIG    1      187.034 186.851 171.863  0.00  0.00    +0.337 C 
ATOM     22  O   LIG    1      186.494 186.831 170.767  0.00  0.00    -0.248 OA
BRANCH  21  23
ATOM     23  O   LIG    1      188.118 187.607 172.166  0.00  0.00    -0.479 OA
ATOM     24  H   LIG    1      188.341 188.233 171.444  0.00  0.00    +0.295 HD
ENDBRANCH  21  23
ENDBRANCH  20  21
BRANCH  20  25
ATOM     25  O   LIG    1      186.175 186.956 174.073  0.00  0.00    -0.377 OA
ATOM     26  H   LIG    1      186.965 187.397 174.428  0.00  0.00    +0.211 HD
ENDBRANCH  20  25
BRANCH  18  27
ATOM     27  O   LIG    1      187.076 184.922 175.828  0.00  0.00    -0.389 OA
ATOM     28  H   LIG    1      187.511 185.792 175.819  0.00  0.00    +0.210 HD
ENDBRANCH  18  27
BRANCH  17  29
ATOM     29  O   LIG    1      185.989 182.450 175.269  0.00  0.00    -0.386 OA
ATOM     30  H   LIG    1      186.092 182.958 176.091  0.00  0.00    +0.210 HD
ENDBRANCH  17  29
BRANCH  16   1
ATOM      1  O   LIG    1      184.106 183.226 173.217  0.00  0.00    -0.455 OA
BRANCH   1   2
ATOM      2  C   LIG    1      183.067 182.921 174.045  0.00  0.00    +0.332 C 
ATOM     15  O   LIG    1      182.930 183.277 175.205  0.00  0.00    -0.246 OA
BRANCH   2   3
ATOM      3  C   LIG    1      182.118 182.071 173.291  0.00  0.00    +0.092 C 
ATOM      4  C   LIG    1      181.056 182.634 172.696  0.00  0.00    +0.015 C 
BRANCH   4   5
ATOM      5  C   LIG    1      180.051 181.898 171.910  0.00  0.00    -0.021 A 
ATOM      6  C   LIG    1      179.612 182.424 170.706  0.00  0.00    +0.012 A 
ATOM      7  C   LIG    1      178.659 181.726 169.962  0.00  0.00    +0.050 A 
ATOM      8  C   LIG    1      178.160 180.512 170.433  0.00  0.00    +0.158 A 
ATOM      9  C   LIG    1      178.611 179.996 171.648  0.00  0.00    +0.159 A 
ATOM     14  C   LIG    1      179.563 180.693 172.391  0.00  0.00    +0.057 A 
BRANCH   9  10
ATOM     10  O   LIG    1      178.130 178.810 172.117  0.00  0.00    -0.503 OA
ATOM     11  H   LIG    1      177.755 178.937 173.003  0.00  0.00    +0.292 HD
ENDBRANCH   9  10
BRANCH   8  12
ATOM     12  O   LIG    1      177.230 179.841 169.697  0.00  0.00    -0.503 OA
ATOM     13  H   LIG    1      176.820 179.148 170.241  0.00  0.00    +0.292 HD
ENDBRANCH   8  12
ENDBRANCH   4   5
ENDBRANCH   2   3
ENDBRANCH   1   2
ENDBRANCH  16   1
TORSDOF 11
ENDMDL
