REMARK VINA RESULT:      -7.0      6.361      9.870
REMARK  Name = 1794427
REMARK                            x       y       z     vdW  Elec       q    Type
REMARK                         _______ _______ _______ _____ _____    ______ ____
ROOT
ATOM     16  C   LIG    1      182.813 183.683 173.791  0.00  0.00    +0.211 C 
ATOM     17  C   LIG    1      183.731 182.464 173.926  0.00  0.00    +0.184 C 
ATOM     18  C   LIG    1      184.772 182.650 175.035  0.00  0.00    +0.150 C 
ATOM     19  C   LIG    1      185.585 183.933 174.820  0.00  0.00    +0.080 C 
ATOM     20  C   LIG    1      184.689 185.163 174.648  0.00  0.00    +0.168 C 
ATOM     31  C   LIG    1      183.630 184.960 173.570  0.00  0.00    +0.093 C 
ENDROOT
BRANCH  20  21
ATOM     21  C   LIG    1      185.598 186.310 174.241  0.00  0.00    +0.337 C 
ATOM     22  O   LIG    1      185.487 186.962 173.213  0.00  0.00    -0.248 OA
BRANCH  21  23
ATOM     23  O   LIG    1      186.557 186.517 175.175  0.00  0.00    -0.479 OA
ATOM     24  H   LIG    1      186.370 186.030 176.006  0.00  0.00    +0.295 HD
ENDBRANCH  21  23
ENDBRANCH  20  21
BRANCH  20  25
ATOM     25  O   LIG    1      184.089 185.510 175.888  0.00  0.00    -0.377 OA
ATOM     26  H   LIG    1      184.779 185.876 176.467  0.00  0.00    +0.211 HD
ENDBRANCH  20  25
BRANCH  18  27
ATOM     27  O   LIG    1      184.108 182.707 176.299  0.00  0.00    -0.389 OA
ATOM     28  H   LIG    1      184.466 183.470 176.783  0.00  0.00    +0.210 HD
ENDBRANCH  18  27
BRANCH  17  29
ATOM     29  O   LIG    1      182.959 181.301 174.223  0.00  0.00    -0.386 OA
ATOM     30  H   LIG    1      182.035 181.500 173.996  0.00  0.00    +0.210 HD
ENDBRANCH  17  29
BRANCH  16   1
ATOM      1  O   LIG    1      181.957 183.518 172.662  0.00  0.00    -0.455 OA
BRANCH   1   2
ATOM      2  C   LIG    1      180.634 183.343 172.943  0.00  0.00    +0.332 C 
ATOM     15  O   LIG    1      180.081 182.292 173.226  0.00  0.00    -0.246 OA
BRANCH   2   3
ATOM      3  C   LIG    1      179.969 184.663 172.845  0.00  0.00    +0.092 C 
ATOM      4  C   LIG    1      180.163 185.420 171.756  0.00  0.00    +0.015 C 
BRANCH   4   5
ATOM      5  C   LIG    1      179.550 186.742 171.537  0.00  0.00    -0.021 A 
ATOM      6  C   LIG    1      179.631 187.328 170.284  0.00  0.00    +0.012 A 
ATOM      7  C   LIG    1      179.050 188.581 170.078  0.00  0.00    +0.050 A 
ATOM      8  C   LIG    1      178.397 189.228 171.127  0.00  0.00    +0.158 A 
ATOM      9  C   LIG    1      178.325 188.624 172.382  0.00  0.00    +0.159 A 
ATOM     14  C   LIG    1      178.905 187.372 172.589  0.00  0.00    +0.057 A 
BRANCH   9  10
ATOM     10  O   LIG    1      177.689 189.247 173.414  0.00  0.00    -0.503 OA
ATOM     11  H   LIG    1      178.340 189.699 173.974  0.00  0.00    +0.292 HD
ENDBRANCH   9  10
BRANCH   8  12
ATOM     12  O   LIG    1      177.834 190.450 170.912  0.00  0.00    -0.503 OA
ATOM     13  H   LIG    1      177.376 190.745 171.716  0.00  0.00    +0.292 HD
ENDBRANCH   8  12
ENDBRANCH   4   5
ENDBRANCH   2   3
ENDBRANCH   1   2
ENDBRANCH  16   1
TORSDOF 11
