REMARK VINA RESULT:      -6.6      2.118      2.716
REMARK  Name = 1794427
REMARK                            x       y       z     vdW  Elec       q    Type
REMARK                         _______ _______ _______ _____ _____    ______ ____
ROOT
ATOM     16  C   LIG    1      186.212 185.139 173.274  0.00  0.00    +0.211 C 
ATOM     17  C   LIG    1      186.165 186.374 174.179  0.00  0.00    +0.184 C 
ATOM     18  C   LIG    1      185.899 186.002 175.641  0.00  0.00    +0.150 C 
ATOM     19  C   LIG    1      184.618 185.169 175.776  0.00  0.00    +0.080 C 
ATOM     20  C   LIG    1      184.625 183.945 174.855  0.00  0.00    +0.168 C 
ATOM     31  C   LIG    1      184.928 184.314 173.407  0.00  0.00    +0.093 C 
ENDROOT
BRANCH  20  21
ATOM     21  C   LIG    1      183.236 183.334 174.931  0.00  0.00    +0.337 C 
ATOM     22  O   LIG    1      182.959 182.291 175.505  0.00  0.00    -0.248 OA
BRANCH  21  23
ATOM     23  O   LIG    1      182.337 184.104 174.272  0.00  0.00    -0.479 OA
ATOM     24  H   LIG    1      181.414 183.884 174.521  0.00  0.00    +0.295 HD
ENDBRANCH  21  23
ENDBRANCH  20  21
BRANCH  20  25
ATOM     25  O   LIG    1      185.547 182.976 175.334  0.00  0.00    -0.377 OA
ATOM     26  H   LIG    1      185.871 183.269 176.202  0.00  0.00    +0.211 HD
ENDBRANCH  20  25
BRANCH  18  27
ATOM     27  O   LIG    1      187.010 185.262 176.149  0.00  0.00    -0.389 OA
ATOM     28  H   LIG    1      186.877 184.330 175.904  0.00  0.00    +0.210 HD
ENDBRANCH  18  27
BRANCH  17  29
ATOM     29  O   LIG    1      187.404 187.078 174.111  0.00  0.00    -0.386 OA
ATOM     30  H   LIG    1      187.291 187.911 174.598  0.00  0.00    +0.210 HD
ENDBRANCH  17  29
BRANCH  16   1
ATOM      1  O   LIG    1      186.324 185.545 171.911  0.00  0.00    -0.455 OA
BRANCH   1   2
ATOM      2  C   LIG    1      187.489 185.208 171.287  0.00  0.00    +0.332 C 
ATOM     15  O   LIG    1      188.521 185.860 171.268  0.00  0.00    -0.246 OA
BRANCH   2   3
ATOM      3  C   LIG    1      187.288 183.900 170.624  0.00  0.00    +0.092 C 
ATOM      4  C   LIG    1      187.083 183.855 169.300  0.00  0.00    +0.015 C 
BRANCH   4   5
ATOM      5  C   LIG    1      186.882 182.616 168.527  0.00  0.00    -0.021 A 
ATOM      6  C   LIG    1      185.593 182.181 168.266  0.00  0.00    +0.012 A 
ATOM      7  C   LIG    1      185.403 181.008 167.534  0.00  0.00    +0.050 A 
ATOM      8  C   LIG    1      186.505 180.288 167.072  0.00  0.00    +0.158 A 
ATOM      9  C   LIG    1      187.797 180.740 167.344  0.00  0.00    +0.159 A 
ATOM     14  C   LIG    1      187.987 181.912 168.075  0.00  0.00    +0.057 A 
BRANCH   9  10
ATOM     10  O   LIG    1      188.880 180.044 166.898  0.00  0.00    -0.503 OA
ATOM     11  H   LIG    1      189.693 180.521 167.129  0.00  0.00    +0.292 HD
ENDBRANCH   9  10
BRANCH   8  12
ATOM     12  O   LIG    1      186.306 179.145 166.359  0.00  0.00    -0.503 OA
ATOM     13  H   LIG    1      185.905 179.360 165.501  0.00  0.00    +0.292 HD
ENDBRANCH   8  12
ENDBRANCH   4   5
ENDBRANCH   2   3
ENDBRANCH   1   2
ENDBRANCH  16   1
TORSDOF 11
