REMARK VINA RESULT:      -6.8      6.282      8.678
REMARK  Name = 1794427
REMARK                            x       y       z     vdW  Elec       q    Type
REMARK                         _______ _______ _______ _____ _____    ______ ____
ROOT
ATOM     16  C   LIG    1      182.993 183.593 173.660  0.00  0.00    +0.211 C 
ATOM     17  C   LIG    1      183.967 182.430 173.878  0.00  0.00    +0.184 C 
ATOM     18  C   LIG    1      184.923 182.695 175.045  0.00  0.00    +0.150 C 
ATOM     19  C   LIG    1      185.675 184.018 174.855  0.00  0.00    +0.080 C 
ATOM     20  C   LIG    1      184.725 185.192 174.602  0.00  0.00    +0.168 C 
ATOM     31  C   LIG    1      183.749 184.911 173.464  0.00  0.00    +0.093 C 
ENDROOT
BRANCH  20  21
ATOM     21  C   LIG    1      185.592 186.382 174.228  0.00  0.00    +0.337 C 
ATOM     22  O   LIG    1      185.437 187.080 173.237  0.00  0.00    -0.248 OA
BRANCH  21  23
ATOM     23  O   LIG    1      186.570 186.570 175.147  0.00  0.00    -0.479 OA
ATOM     24  H   LIG    1      187.435 186.224 174.838  0.00  0.00    +0.295 HD
ENDBRANCH  21  23
ENDBRANCH  20  21
BRANCH  20  25
ATOM     25  O   LIG    1      184.029 185.526 175.794  0.00  0.00    -0.377 OA
ATOM     26  H   LIG    1      183.547 186.356 175.642  0.00  0.00    +0.211 HD
ENDBRANCH  20  25
BRANCH  18  27
ATOM     27  O   LIG    1      184.179 182.735 176.264  0.00  0.00    -0.389 OA
ATOM     28  H   LIG    1      184.726 183.191 176.926  0.00  0.00    +0.210 HD
ENDBRANCH  18  27
BRANCH  17  29
ATOM     29  O   LIG    1      183.244 181.231 174.150  0.00  0.00    -0.386 OA
ATOM     30  H   LIG    1      183.858 180.488 174.024  0.00  0.00    +0.210 HD
ENDBRANCH  17  29
BRANCH  16   1
ATOM      1  O   LIG    1      182.221 183.360 172.484  0.00  0.00    -0.455 OA
BRANCH   1   2
ATOM      2  C   LIG    1      180.880 183.581 172.602  0.00  0.00    +0.332 C 
ATOM     15  O   LIG    1      180.309 184.657 172.521  0.00  0.00    -0.246 OA
BRANCH   2   3
ATOM      3  C   LIG    1      180.224 182.277 172.852  0.00  0.00    +0.092 C 
ATOM      4  C   LIG    1      180.511 181.232 172.064  0.00  0.00    +0.015 C 
BRANCH   4   5
ATOM      5  C   LIG    1      179.934 179.885 172.218  0.00  0.00    -0.021 A 
ATOM      6  C   LIG    1      178.559 179.724 172.145  0.00  0.00    +0.012 A 
ATOM      7  C   LIG    1      178.012 178.448 172.291  0.00  0.00    +0.050 A 
ATOM      8  C   LIG    1      178.848 177.353 172.507  0.00  0.00    +0.158 A 
ATOM      9  C   LIG    1      180.229 177.531 172.579  0.00  0.00    +0.159 A 
ATOM     14  C   LIG    1      180.776 178.806 172.433  0.00  0.00    +0.057 A 
BRANCH   9  10
ATOM     10  O   LIG    1      181.055 176.468 172.789  0.00  0.00    -0.503 OA
ATOM     11  H   LIG    1      180.846 175.762 172.158  0.00  0.00    +0.292 HD
ENDBRANCH   9  10
BRANCH   8  12
ATOM     12  O   LIG    1      178.301 176.113 172.649  0.00  0.00    -0.503 OA
ATOM     13  H   LIG    1      177.730 175.918 171.888  0.00  0.00    +0.292 HD
ENDBRANCH   8  12
ENDBRANCH   4   5
ENDBRANCH   2   3
ENDBRANCH   1   2
ENDBRANCH  16   1
TORSDOF 11
