REMARK VINA RESULT:      -6.7      6.031      8.741
REMARK  Name = 1794427
REMARK                            x       y       z     vdW  Elec       q    Type
REMARK                         _______ _______ _______ _____ _____    ______ ____
ROOT
ATOM     16  C   LIG    1      183.081 183.450 173.871  0.00  0.00    +0.211 C 
ATOM     17  C   LIG    1      184.074 182.329 173.550  0.00  0.00    +0.184 C 
ATOM     18  C   LIG    1      185.282 182.347 174.492  0.00  0.00    +0.150 C 
ATOM     19  C   LIG    1      185.973 183.716 174.480  0.00  0.00    +0.080 C 
ATOM     20  C   LIG    1      184.994 184.859 174.766  0.00  0.00    +0.168 C 
ATOM     31  C   LIG    1      183.774 184.817 173.852  0.00  0.00    +0.093 C 
ENDROOT
BRANCH  20  21
ATOM     21  C   LIG    1      185.752 186.153 174.521  0.00  0.00    +0.337 C 
ATOM     22  O   LIG    1      185.720 186.800 173.485  0.00  0.00    -0.248 OA
BRANCH  21  23
ATOM     23  O   LIG    1      186.475 186.498 175.614  0.00  0.00    -0.479 OA
ATOM     24  H   LIG    1      187.242 187.065 175.382  0.00  0.00    +0.295 HD
ENDBRANCH  21  23
ENDBRANCH  20  21
BRANCH  20  25
ATOM     25  O   LIG    1      184.604 184.842 176.132  0.00  0.00    -0.377 OA
ATOM     26  H   LIG    1      184.413 183.922 176.381  0.00  0.00    +0.211 HD
ENDBRANCH  20  25
BRANCH  18  27
ATOM     27  O   LIG    1      184.851 182.036 175.817  0.00  0.00    -0.389 OA
ATOM     28  H   LIG    1      184.687 181.078 175.855  0.00  0.00    +0.210 HD
ENDBRANCH  18  27
BRANCH  17  29
ATOM     29  O   LIG    1      183.432 181.060 173.664  0.00  0.00    -0.386 OA
ATOM     30  H   LIG    1      182.609 181.195 174.162  0.00  0.00    +0.210 HD
ENDBRANCH  17  29
BRANCH  16   1
ATOM      1  O   LIG    1      182.049 183.477 172.886  0.00  0.00    -0.455 OA
BRANCH   1   2
ATOM      2  C   LIG    1      180.805 183.130 173.324  0.00  0.00    +0.332 C 
ATOM     15  O   LIG    1      180.321 183.376 174.417  0.00  0.00    -0.246 OA
BRANCH   2   3
ATOM      3  C   LIG    1      180.129 182.391 172.233  0.00  0.00    +0.092 C 
ATOM      4  C   LIG    1      179.792 181.107 172.414  0.00  0.00    +0.015 C 
BRANCH   4   5
ATOM      5  C   LIG    1      179.109 180.272 171.411  0.00  0.00    -0.021 A 
ATOM      6  C   LIG    1      178.355 180.881 170.421  0.00  0.00    +0.012 A 
ATOM      7  C   LIG    1      177.708 180.089 169.471  0.00  0.00    +0.050 A 
ATOM      8  C   LIG    1      177.824 178.700 169.525  0.00  0.00    +0.158 A 
ATOM      9  C   LIG    1      178.586 178.102 170.529  0.00  0.00    +0.159 A 
ATOM     14  C   LIG    1      179.233 178.893 171.478  0.00  0.00    +0.057 A 
BRANCH   9  10
ATOM     10  O   LIG    1      178.707 176.746 170.591  0.00  0.00    -0.503 OA
ATOM     11  H   LIG    1      178.934 176.479 171.496  0.00  0.00    +0.292 HD
ENDBRANCH   9  10
BRANCH   8  12
ATOM     12  O   LIG    1      177.187 177.939 168.592  0.00  0.00    -0.503 OA
ATOM     13  H   LIG    1      177.630 177.078 168.514  0.00  0.00    +0.292 HD
ENDBRANCH   8  12
ENDBRANCH   4   5
ENDBRANCH   2   3
ENDBRANCH   1   2
ENDBRANCH  16   1
TORSDOF 11
