REMARK VINA RESULT:      -6.9      1.344      1.949
REMARK  Name = 1794427
REMARK                            x       y       z     vdW  Elec       q    Type
REMARK                         _______ _______ _______ _____ _____    ______ ____
ROOT
ATOM     16  C   LIG    1      186.434 185.049 173.328  0.00  0.00    +0.211 C 
ATOM     17  C   LIG    1      186.118 186.244 174.233  0.00  0.00    +0.184 C 
ATOM     18  C   LIG    1      185.921 185.821 175.692  0.00  0.00    +0.150 C 
ATOM     19  C   LIG    1      184.843 184.737 175.812  0.00  0.00    +0.080 C 
ATOM     20  C   LIG    1      185.118 183.544 174.892  0.00  0.00    +0.168 C 
ATOM     31  C   LIG    1      185.352 183.971 173.447  0.00  0.00    +0.093 C 
ENDROOT
BRANCH  20  21
ATOM     21  C   LIG    1      183.888 182.654 174.953  0.00  0.00    +0.337 C 
ATOM     22  O   LIG    1      183.212 182.325 173.990  0.00  0.00    -0.248 OA
BRANCH  21  23
ATOM     23  O   LIG    1      183.637 182.270 176.228  0.00  0.00    -0.479 OA
ATOM     24  H   LIG    1      183.417 183.033 176.804  0.00  0.00    +0.295 HD
ENDBRANCH  21  23
ENDBRANCH  20  21
BRANCH  20  25
ATOM     25  O   LIG    1      186.218 182.790 175.381  0.00  0.00    -0.377 OA
ATOM     26  H   LIG    1      186.542 183.217 176.192  0.00  0.00    +0.211 HD
ENDBRANCH  20  25
BRANCH  18  27
ATOM     27  O   LIG    1      187.157 185.331 176.212  0.00  0.00    -0.389 OA
ATOM     28  H   LIG    1      186.969 184.499 176.679  0.00  0.00    +0.210 HD
ENDBRANCH  18  27
BRANCH  17  29
ATOM     29  O   LIG    1      187.182 187.194 174.178  0.00  0.00    -0.386 OA
ATOM     30  H   LIG    1      186.824 188.007 173.785  0.00  0.00    +0.210 HD
ENDBRANCH  17  29
BRANCH  16   1
ATOM      1  O   LIG    1      186.473 185.473 171.966  0.00  0.00    -0.455 OA
BRANCH   1   2
ATOM      2  C   LIG    1      187.710 185.514 171.394  0.00  0.00    +0.332 C 
ATOM     15  O   LIG    1      188.588 186.332 171.614  0.00  0.00    -0.246 OA
BRANCH   2   3
ATOM      3  C   LIG    1      187.809 184.382 170.444  0.00  0.00    +0.092 C 
ATOM      4  C   LIG    1      188.755 184.397 169.495  0.00  0.00    +0.015 C 
BRANCH   4   5
ATOM      5  C   LIG    1      188.961 183.328 168.503  0.00  0.00    -0.021 A 
ATOM      6  C   LIG    1      188.602 183.550 167.182  0.00  0.00    +0.012 A 
ATOM      7  C   LIG    1      188.797 182.537 166.242  0.00  0.00    +0.050 A 
ATOM      8  C   LIG    1      189.349 181.317 166.636  0.00  0.00    +0.158 A 
ATOM      9  C   LIG    1      189.704 181.110 167.969  0.00  0.00    +0.159 A 
ATOM     14  C   LIG    1      189.510 182.122 168.909  0.00  0.00    +0.057 A 
BRANCH   9  10
ATOM     10  O   LIG    1      190.244 179.923 168.364  0.00  0.00    -0.503 OA
ATOM     11  H   LIG    1      191.184 180.044 168.574  0.00  0.00    +0.292 HD
ENDBRANCH   9  10
BRANCH   8  12
ATOM     12  O   LIG    1      189.534 180.337 165.709  0.00  0.00    -0.503 OA
ATOM     13  H   LIG    1      188.673 180.002 165.409  0.00  0.00    +0.292 HD
ENDBRANCH   8  12
ENDBRANCH   4   5
ENDBRANCH   2   3
ENDBRANCH   1   2
ENDBRANCH  16   1
TORSDOF 11
