REMARK VINA RESULT:      -7.0      0.000      0.000
REMARK  Name = 1794427
REMARK                            x       y       z     vdW  Elec       q    Type
REMARK                         _______ _______ _______ _____ _____    ______ ____
ROOT
ATOM     16  C   LIG    1      187.440 185.273 171.997  0.00  0.00    +0.211 C 
ATOM     17  C   LIG    1      186.557 186.521 172.085  0.00  0.00    +0.184 C 
ATOM     18  C   LIG    1      186.208 186.875 173.534  0.00  0.00    +0.150 C 
ATOM     19  C   LIG    1      185.558 185.686 174.252  0.00  0.00    +0.080 C 
ATOM     20  C   LIG    1      186.405 184.415 174.151  0.00  0.00    +0.168 C 
ATOM     31  C   LIG    1      186.783 184.086 172.710  0.00  0.00    +0.093 C 
ENDROOT
BRANCH  20  21
ATOM     21  C   LIG    1      185.563 183.283 174.713  0.00  0.00    +0.337 C 
ATOM     22  O   LIG    1      184.508 183.425 175.315  0.00  0.00    -0.248 OA
BRANCH  21  23
ATOM     23  O   LIG    1      186.140 182.084 174.459  0.00  0.00    -0.479 OA
ATOM     24  H   LIG    1      186.408 181.623 175.283  0.00  0.00    +0.295 HD
ENDBRANCH  21  23
ENDBRANCH  20  21
BRANCH  20  25
ATOM     25  O   LIG    1      187.565 184.532 174.964  0.00  0.00    -0.377 OA
ATOM     26  H   LIG    1      187.914 185.434 174.867  0.00  0.00    +0.211 HD
ENDBRANCH  20  25
BRANCH  18  27
ATOM     27  O   LIG    1      187.398 187.262 174.224  0.00  0.00    -0.389 OA
ATOM     28  H   LIG    1      187.671 186.512 174.779  0.00  0.00    +0.210 HD
ENDBRANCH  18  27
BRANCH  17  29
ATOM     29  O   LIG    1      187.226 187.636 171.497  0.00  0.00    -0.386 OA
ATOM     30  H   LIG    1      186.838 188.441 171.878  0.00  0.00    +0.210 HD
ENDBRANCH  17  29
BRANCH  16   1
ATOM      1  O   LIG    1      187.623 184.906 170.630  0.00  0.00    -0.455 OA
BRANCH   1   2
ATOM      2  C   LIG    1      188.825 185.243 170.083  0.00  0.00    +0.332 C 
ATOM     15  O   LIG    1      189.604 186.087 170.496  0.00  0.00    -0.246 OA
BRANCH   2   3
ATOM      3  C   LIG    1      189.030 184.400 168.882  0.00  0.00    +0.092 C 
ATOM      4  C   LIG    1      189.310 183.098 169.029  0.00  0.00    +0.015 C 
BRANCH   4   5
ATOM      5  C   LIG    1      189.524 182.158 167.915  0.00  0.00    -0.021 A 
ATOM      6  C   LIG    1      188.669 182.193 166.824  0.00  0.00    +0.012 A 
ATOM      7  C   LIG    1      188.872 181.302 165.769  0.00  0.00    +0.050 A 
ATOM      8  C   LIG    1      189.925 180.389 165.820  0.00  0.00    +0.158 A 
ATOM      9  C   LIG    1      190.777 180.366 166.925  0.00  0.00    +0.159 A 
ATOM     14  C   LIG    1      190.574 181.257 167.980  0.00  0.00    +0.057 A 
BRANCH   9  10
ATOM     10  O   LIG    1      191.809 179.480 166.985  0.00  0.00    -0.503 OA
ATOM     11  H   LIG    1      192.508 179.830 167.560  0.00  0.00    +0.292 HD
ENDBRANCH   9  10
BRANCH   8  12
ATOM     12  O   LIG    1      190.112 179.525 164.784  0.00  0.00    -0.503 OA
ATOM     13  H   LIG    1      190.113 180.014 163.945  0.00  0.00    +0.292 HD
ENDBRANCH   8  12
ENDBRANCH   4   5
ENDBRANCH   2   3
ENDBRANCH   1   2
ENDBRANCH  16   1
TORSDOF 11
