REMARK VINA RESULT:      -6.9      6.360      9.857
REMARK  Name = 1794427
REMARK                            x       y       z     vdW  Elec       q    Type
REMARK                         _______ _______ _______ _____ _____    ______ ____
ROOT
ATOM     16  C   LIG    1      182.833 183.746 173.781  0.00  0.00    +0.211 C 
ATOM     17  C   LIG    1      183.735 182.517 173.919  0.00  0.00    +0.184 C 
ATOM     18  C   LIG    1      184.770 182.688 175.036  0.00  0.00    +0.150 C 
ATOM     19  C   LIG    1      185.599 183.962 174.832  0.00  0.00    +0.080 C 
ATOM     20  C   LIG    1      184.718 185.202 174.657  0.00  0.00    +0.168 C 
ATOM     31  C   LIG    1      183.665 185.015 173.570  0.00  0.00    +0.093 C 
ENDROOT
BRANCH  20  21
ATOM     21  C   LIG    1      185.643 186.341 174.261  0.00  0.00    +0.337 C 
ATOM     22  O   LIG    1      185.563 186.980 173.222  0.00  0.00    -0.248 OA
BRANCH  21  23
ATOM     23  O   LIG    1      186.577 186.556 175.219  0.00  0.00    -0.479 OA
ATOM     24  H   LIG    1      186.638 187.504 175.465  0.00  0.00    +0.295 HD
ENDBRANCH  21  23
ENDBRANCH  20  21
BRANCH  20  25
ATOM     25  O   LIG    1      184.113 185.552 175.894  0.00  0.00    -0.377 OA
ATOM     26  H   LIG    1      183.219 185.888 175.710  0.00  0.00    +0.211 HD
ENDBRANCH  20  25
BRANCH  18  27
ATOM     27  O   LIG    1      184.098 182.747 176.295  0.00  0.00    -0.389 OA
ATOM     28  H   LIG    1      183.160 182.934 176.117  0.00  0.00    +0.210 HD
ENDBRANCH  18  27
BRANCH  17  29
ATOM     29  O   LIG    1      182.948 181.361 174.206  0.00  0.00    -0.386 OA
ATOM     30  H   LIG    1      182.496 181.522 175.051  0.00  0.00    +0.210 HD
ENDBRANCH  17  29
BRANCH  16   1
ATOM      1  O   LIG    1      181.983 183.595 172.645  0.00  0.00    -0.455 OA
BRANCH   1   2
ATOM      2  C   LIG    1      180.655 183.438 172.916  0.00  0.00    +0.332 C 
ATOM     15  O   LIG    1      180.072 182.386 173.118  0.00  0.00    -0.246 OA
BRANCH   2   3
ATOM      3  C   LIG    1      180.031 184.781 172.921  0.00  0.00    +0.092 C 
ATOM      4  C   LIG    1      179.987 185.494 171.787  0.00  0.00    +0.015 C 
BRANCH   4   5
ATOM      5  C   LIG    1      179.384 186.833 171.664  0.00  0.00    -0.021 A 
ATOM      6  C   LIG    1      178.845 187.440 172.787  0.00  0.00    +0.012 A 
ATOM      7  C   LIG    1      178.275 188.709 172.669  0.00  0.00    +0.050 A 
ATOM      8  C   LIG    1      178.251 189.351 171.431  0.00  0.00    +0.158 A 
ATOM      9  C   LIG    1      178.797 188.725 170.310  0.00  0.00    +0.159 A 
ATOM     14  C   LIG    1      179.368 187.458 170.427  0.00  0.00    +0.057 A 
BRANCH   9  10
ATOM     10  O   LIG    1      178.780 189.343 169.096  0.00  0.00    -0.503 OA
ATOM     11  H   LIG    1      179.524 189.028 168.558  0.00  0.00    +0.292 HD
ENDBRANCH   9  10
BRANCH   8  12
ATOM     12  O   LIG    1      177.691 190.588 171.330  0.00  0.00    -0.503 OA
ATOM     13  H   LIG    1      176.970 190.675 171.974  0.00  0.00    +0.292 HD
ENDBRANCH   8  12
ENDBRANCH   4   5
ENDBRANCH   2   3
ENDBRANCH   1   2
ENDBRANCH  16   1
TORSDOF 11
