REMARK VINA RESULT:      -6.7      4.893      6.875
REMARK  Name = 1794427
REMARK                            x       y       z     vdW  Elec       q    Type
REMARK                         _______ _______ _______ _____ _____    ______ ____
ROOT
ATOM     16  C   LIG    1      185.170 184.099 173.645  0.00  0.00    +0.211 C 
ATOM     17  C   LIG    1      186.394 183.316 174.129  0.00  0.00    +0.184 C 
ATOM     18  C   LIG    1      187.501 184.244 174.641  0.00  0.00    +0.150 C 
ATOM     19  C   LIG    1      187.891 185.279 173.578  0.00  0.00    +0.080 C 
ATOM     20  C   LIG    1      186.678 186.052 173.052  0.00  0.00    +0.168 C 
ATOM     31  C   LIG    1      185.563 185.126 172.578  0.00  0.00    +0.093 C 
ENDROOT
BRANCH  20  21
ATOM     21  C   LIG    1      187.167 186.882 171.877  0.00  0.00    +0.337 C 
ATOM     22  O   LIG    1      186.644 186.909 170.772  0.00  0.00    -0.248 OA
BRANCH  21  23
ATOM     23  O   LIG    1      188.268 187.593 172.217  0.00  0.00    -0.479 OA
ATOM     24  H   LIG    1      189.087 187.056 172.151  0.00  0.00    +0.295 HD
ENDBRANCH  21  23
ENDBRANCH  20  21
BRANCH  20  25
ATOM     25  O   LIG    1      186.202 186.952 174.043  0.00  0.00    -0.377 OA
ATOM     26  H   LIG    1      186.534 186.655 174.907  0.00  0.00    +0.211 HD
ENDBRANCH  20  25
BRANCH  18  27
ATOM     27  O   LIG    1      187.047 184.912 175.820  0.00  0.00    -0.389 OA
ATOM     28  H   LIG    1      186.093 185.071 175.718  0.00  0.00    +0.210 HD
ENDBRANCH  18  27
BRANCH  17  29
ATOM     29  O   LIG    1      186.023 182.432 175.186  0.00  0.00    -0.386 OA
ATOM     30  H   LIG    1      185.895 181.551 174.795  0.00  0.00    +0.210 HD
ENDBRANCH  17  29
BRANCH  16   1
ATOM      1  O   LIG    1      184.229 183.203 173.054  0.00  0.00    -0.455 OA
BRANCH   1   2
ATOM      2  C   LIG    1      183.122 182.929 173.802  0.00  0.00    +0.332 C 
ATOM     15  O   LIG    1      182.661 183.614 174.701  0.00  0.00    -0.246 OA
BRANCH   2   3
ATOM      3  C   LIG    1      182.566 181.639 173.335  0.00  0.00    +0.092 C 
ATOM      4  C   LIG    1      183.347 180.792 172.649  0.00  0.00    +0.015 C 
BRANCH   4   5
ATOM      5  C   LIG    1      182.912 179.479 172.142  0.00  0.00    -0.021 A 
ATOM      6  C   LIG    1      181.576 179.125 172.232  0.00  0.00    +0.012 A 
ATOM      7  C   LIG    1      181.165 177.880 171.752  0.00  0.00    +0.050 A 
ATOM      8  C   LIG    1      182.097 177.008 171.188  0.00  0.00    +0.158 A 
ATOM      9  C   LIG    1      183.439 177.379 171.106  0.00  0.00    +0.159 A 
ATOM     14  C   LIG    1      183.850 178.623 171.585  0.00  0.00    +0.057 A 
BRANCH   9  10
ATOM     10  O   LIG    1      184.358 176.536 170.557  0.00  0.00    -0.503 OA
ATOM     11  H   LIG    1      184.414 176.691 169.601  0.00  0.00    +0.292 HD
ENDBRANCH   9  10
BRANCH   8  12
ATOM     12  O   LIG    1      181.683 175.796 170.724  0.00  0.00    -0.503 OA
ATOM     13  H   LIG    1      182.078 175.088 171.259  0.00  0.00    +0.292 HD
ENDBRANCH   8  12
ENDBRANCH   4   5
ENDBRANCH   2   3
ENDBRANCH   1   2
ENDBRANCH  16   1
TORSDOF 11
