REMARK VINA RESULT:      -6.6      5.168      8.272
REMARK  Name = 1794427
REMARK                            x       y       z     vdW  Elec       q    Type
REMARK                         _______ _______ _______ _____ _____    ______ ____
ROOT
ATOM     16  C   LIG    1      185.086 184.114 173.753  0.00  0.00    +0.211 C 
ATOM     17  C   LIG    1      186.321 183.319 174.187  0.00  0.00    +0.184 C 
ATOM     18  C   LIG    1      187.464 184.236 174.636  0.00  0.00    +0.150 C 
ATOM     19  C   LIG    1      187.816 185.255 173.545  0.00  0.00    +0.080 C 
ATOM     20  C   LIG    1      186.591 186.040 173.069  0.00  0.00    +0.168 C 
ATOM     31  C   LIG    1      185.442 185.125 172.659  0.00  0.00    +0.093 C 
ENDROOT
BRANCH  20  21
ATOM     21  C   LIG    1      187.034 186.851 171.863  0.00  0.00    +0.337 C 
ATOM     22  O   LIG    1      186.494 186.831 170.767  0.00  0.00    -0.248 OA
BRANCH  21  23
ATOM     23  O   LIG    1      188.118 187.607 172.166  0.00  0.00    -0.479 OA
ATOM     24  H   LIG    1      188.341 188.233 171.444  0.00  0.00    +0.295 HD
ENDBRANCH  21  23
ENDBRANCH  20  21
BRANCH  20  25
ATOM     25  O   LIG    1      186.175 186.956 174.073  0.00  0.00    -0.377 OA
ATOM     26  H   LIG    1      186.965 187.397 174.428  0.00  0.00    +0.211 HD
ENDBRANCH  20  25
BRANCH  18  27
ATOM     27  O   LIG    1      187.076 184.922 175.828  0.00  0.00    -0.389 OA
ATOM     28  H   LIG    1      187.511 185.792 175.819  0.00  0.00    +0.210 HD
ENDBRANCH  18  27
BRANCH  17  29
ATOM     29  O   LIG    1      185.989 182.450 175.269  0.00  0.00    -0.386 OA
ATOM     30  H   LIG    1      186.092 182.958 176.091  0.00  0.00    +0.210 HD
ENDBRANCH  17  29
BRANCH  16   1
ATOM      1  O   LIG    1      184.106 183.226 173.217  0.00  0.00    -0.455 OA
BRANCH   1   2
ATOM      2  C   LIG    1      183.067 182.921 174.045  0.00  0.00    +0.332 C 
ATOM     15  O   LIG    1      182.930 183.277 175.205  0.00  0.00    -0.246 OA
BRANCH   2   3
ATOM      3  C   LIG    1      182.118 182.071 173.291  0.00  0.00    +0.092 C 
ATOM      4  C   LIG    1      181.056 182.634 172.696  0.00  0.00    +0.015 C 
BRANCH   4   5
ATOM      5  C   LIG    1      180.051 181.898 171.910  0.00  0.00    -0.021 A 
ATOM      6  C   LIG    1      179.612 182.424 170.706  0.00  0.00    +0.012 A 
ATOM      7  C   LIG    1      178.659 181.726 169.962  0.00  0.00    +0.050 A 
ATOM      8  C   LIG    1      178.160 180.512 170.433  0.00  0.00    +0.158 A 
ATOM      9  C   LIG    1      178.611 179.996 171.648  0.00  0.00    +0.159 A 
ATOM     14  C   LIG    1      179.563 180.693 172.391  0.00  0.00    +0.057 A 
BRANCH   9  10
ATOM     10  O   LIG    1      178.130 178.810 172.117  0.00  0.00    -0.503 OA
ATOM     11  H   LIG    1      177.755 178.937 173.003  0.00  0.00    +0.292 HD
ENDBRANCH   9  10
BRANCH   8  12
ATOM     12  O   LIG    1      177.230 179.841 169.697  0.00  0.00    -0.503 OA
ATOM     13  H   LIG    1      176.820 179.148 170.241  0.00  0.00    +0.292 HD
ENDBRANCH   8  12
ENDBRANCH   4   5
ENDBRANCH   2   3
ENDBRANCH   1   2
ENDBRANCH  16   1
TORSDOF 11
