REMARK VINA RESULT:      -6.7      5.411      7.389
REMARK  Name = 1794427
REMARK                            x       y       z     vdW  Elec       q    Type
REMARK                         _______ _______ _______ _____ _____    ______ ____
ROOT
ATOM     16  C   LIG    1      183.946 185.203 172.919  0.00  0.00    +0.211 C 
ATOM     17  C   LIG    1      183.735 184.255 174.103  0.00  0.00    +0.184 C 
ATOM     18  C   LIG    1      184.500 184.716 175.349  0.00  0.00    +0.150 C 
ATOM     19  C   LIG    1      185.992 184.898 175.045  0.00  0.00    +0.080 C 
ATOM     20  C   LIG    1      186.230 185.816 173.843  0.00  0.00    +0.168 C 
ATOM     31  C   LIG    1      185.438 185.376 172.615  0.00  0.00    +0.093 C 
ENDROOT
BRANCH  20  21
ATOM     21  C   LIG    1      187.714 185.745 173.526  0.00  0.00    +0.337 C 
ATOM     22  O   LIG    1      188.370 186.650 173.032  0.00  0.00    -0.248 OA
BRANCH  21  23
ATOM     23  O   LIG    1      188.219 184.534 173.866  0.00  0.00    -0.479 OA
ATOM     24  H   LIG    1      188.101 183.873 173.151  0.00  0.00    +0.295 HD
ENDBRANCH  21  23
ENDBRANCH  20  21
BRANCH  20  25
ATOM     25  O   LIG    1      185.928 187.161 174.184  0.00  0.00    -0.377 OA
ATOM     26  H   LIG    1      186.763 187.655 174.240  0.00  0.00    +0.211 HD
ENDBRANCH  20  25
BRANCH  18  27
ATOM     27  O   LIG    1      183.948 185.950 175.810  0.00  0.00    -0.389 OA
ATOM     28  H   LIG    1      183.034 185.775 176.091  0.00  0.00    +0.210 HD
ENDBRANCH  18  27
BRANCH  17  29
ATOM     29  O   LIG    1      182.348 184.179 174.429  0.00  0.00    -0.386 OA
ATOM     30  H   LIG    1      182.278 184.154 175.398  0.00  0.00    +0.210 HD
ENDBRANCH  17  29
BRANCH  16   1
ATOM      1  O   LIG    1      183.329 184.660 171.752  0.00  0.00    -0.455 OA
BRANCH   1   2
ATOM      2  C   LIG    1      182.285 185.377 171.247  0.00  0.00    +0.332 C 
ATOM     15  O   LIG    1      181.152 184.971 171.045  0.00  0.00    -0.246 OA
BRANCH   2   3
ATOM      3  C   LIG    1      182.765 186.751 170.977  0.00  0.00    +0.092 C 
ATOM      4  C   LIG    1      183.437 187.007 169.846  0.00  0.00    +0.015 C 
BRANCH   4   5
ATOM      5  C   LIG    1      183.954 188.332 169.461  0.00  0.00    -0.021 A 
ATOM      6  C   LIG    1      183.064 189.323 169.081  0.00  0.00    +0.012 A 
ATOM      7  C   LIG    1      183.554 190.578 168.717  0.00  0.00    +0.050 A 
ATOM      8  C   LIG    1      184.927 190.823 168.739  0.00  0.00    +0.158 A 
ATOM      9  C   LIG    1      185.811 189.814 169.123  0.00  0.00    +0.159 A 
ATOM     14  C   LIG    1      185.321 188.560 169.487  0.00  0.00    +0.057 A 
BRANCH   9  10
ATOM     10  O   LIG    1      187.154 190.042 169.147  0.00  0.00    -0.503 OA
ATOM     11  H   LIG    1      187.435 190.433 168.305  0.00  0.00    +0.292 HD
ENDBRANCH   9  10
BRANCH   8  12
ATOM     12  O   LIG    1      185.393 192.052 168.381  0.00  0.00    -0.503 OA
ATOM     13  H   LIG    1      184.947 192.737 168.905  0.00  0.00    +0.292 HD
ENDBRANCH   8  12
ENDBRANCH   4   5
ENDBRANCH   2   3
ENDBRANCH   1   2
ENDBRANCH  16   1
TORSDOF 11
