MODEL 1
REMARK VINA RESULT:      -8.9      0.000      0.000
REMARK  6 active torsions:
REMARK  status: ('A' for Active; 'I' for Inactive)
REMARK    1  A    between atoms: O_2  and  C_12 
REMARK    2  A    between atoms: O_3  and  C_14 
REMARK    3  A    between atoms: O_5  and  C_16 
REMARK    4  A    between atoms: O_6  and  C_20 
REMARK    5  A    between atoms: O_7  and  C_22 
REMARK    6  A    between atoms: C_10  and  C_11 
ROOT
HETATM    1  O   UNK     0     185.978 176.737 178.050  0.00  0.00    -0.306 OA
HETATM    2  O   UNK     0     184.714 177.778 181.781  0.00  0.00    -0.284 OA
HETATM    3  C   UNK     0     184.293 177.767 179.460  0.00  0.00     0.084 A 
HETATM    4  C   UNK     0     184.782 177.385 178.213  0.00  0.00     0.096 A 
HETATM    5  C   UNK     0     186.727 176.436 179.177  0.00  0.00     0.123 A 
HETATM    6  C   UNK     0     186.373 176.756 180.436  0.00  0.00     0.152 A 
HETATM    7  C   UNK     0     185.089 177.463 180.660  0.00  0.00     0.223 A 
HETATM    8  C   UNK     0     183.067 178.427 179.565  0.00  0.00     0.085 A 
HETATM    9  C   UNK     0     184.047 177.664 177.060  0.00  0.00     0.075 A 
HETATM   10  C   UNK     0     182.821 178.323 177.162  0.00  0.00     0.071 A 
HETATM   11  C   UNK     0     182.333 178.704 178.412  0.00  0.00     0.074 A 
ENDROOT
BRANCH   5  12
HETATM   12  C   UNK     0     187.987 175.740 178.862  0.00  0.00     0.004 A 
HETATM   13  C   UNK     0     188.109 174.373 179.108  0.00  0.00     0.053 A 
HETATM   14  C   UNK     0     189.302 173.714 178.809  0.00  0.00     0.099 A 
HETATM   15  C   UNK     0     190.373 174.423 178.265  0.00  0.00     0.098 A 
HETATM   16  C   UNK     0     190.251 175.791 178.019  0.00  0.00     0.040 A 
HETATM   17  C   UNK     0     189.058 176.450 178.317  0.00  0.00     0.017 A 
BRANCH  14  18
HETATM   18  O   UNK     0     189.411 172.379 179.055  0.00  0.00    -0.358 OA
HETATM   19  H   UNK     0     188.946 172.158 179.879  0.00  0.00     0.217 HD
ENDBRANCH  14  18
BRANCH  15  20
HETATM   20  O   UNK     0     191.542 173.791 177.967  0.00  0.00    -0.358 OA
HETATM   21  H   UNK     0     192.055 174.326 177.341  0.00  0.00     0.217 HD
ENDBRANCH  15  20
ENDBRANCH   5  12
BRANCH   6  22
HETATM   22  O   UNK     0     187.156 176.472 181.533  0.00  0.00    -0.355 OA
HETATM   23  H   UNK     0     187.030 175.546 181.798  0.00  0.00     0.218 HD
ENDBRANCH   6  22
BRANCH   8  24
HETATM   24  O   UNK     0     182.544 178.821 180.760  0.00  0.00    -0.360 OA
HETATM   25  H   UNK     0     183.249 179.103 181.363  0.00  0.00     0.217 HD
ENDBRANCH   8  24
BRANCH  10  26
HETATM   26  O   UNK     0     182.103 178.596 176.037  0.00  0.00    -0.361 OA
HETATM   27  H   UNK     0     182.588 178.260 175.264  0.00  0.00     0.217 HD
ENDBRANCH  10  26
TORSDOF 6
ENDMDL
MODEL 2
REMARK VINA RESULT:      -8.7      1.790      6.893
REMARK  6 active torsions:
REMARK  status: ('A' for Active; 'I' for Inactive)
REMARK    1  A    between atoms: O_2  and  C_12 
REMARK    2  A    between atoms: O_3  and  C_14 
REMARK    3  A    between atoms: O_5  and  C_16 
REMARK    4  A    between atoms: O_6  and  C_20 
REMARK    5  A    between atoms: O_7  and  C_22 
REMARK    6  A    between atoms: C_10  and  C_11 
ROOT
HETATM    1  O   UNK     0     185.881 175.704 178.687  0.00  0.00    -0.306 OA
HETATM    2  O   UNK     0     188.596 178.650 179.432  0.00  0.00    -0.284 OA
HETATM    3  C   UNK     0     188.174 176.346 179.156  0.00  0.00     0.084 A 
HETATM    4  C   UNK     0     187.197 175.386 178.898  0.00  0.00     0.096 A 
HETATM    5  C   UNK     0     185.509 177.039 178.719  0.00  0.00     0.123 A 
HETATM    6  C   UNK     0     186.351 178.060 178.965  0.00  0.00     0.152 A 
HETATM    7  C   UNK     0     187.784 177.763 179.205  0.00  0.00     0.223 A 
HETATM    8  C   UNK     0     189.501 175.963 179.365  0.00  0.00     0.085 A 
HETATM    9  C   UNK     0     187.542 174.035 178.850  0.00  0.00     0.075 A 
HETATM   10  C   UNK     0     188.867 173.649 179.058  0.00  0.00     0.071 A 
HETATM   11  C   UNK     0     189.844 174.611 179.315  0.00  0.00     0.074 A 
ENDROOT
BRANCH   5  12
HETATM   12  C   UNK     0     184.070 177.241 178.477  0.00  0.00     0.004 A 
HETATM   13  C   UNK     0     183.644 177.942 177.349  0.00  0.00     0.053 A 
HETATM   14  C   UNK     0     182.281 178.133 177.120  0.00  0.00     0.099 A 
HETATM   15  C   UNK     0     181.344 177.622 178.019  0.00  0.00     0.098 A 
HETATM   16  C   UNK     0     181.770 176.920 179.146  0.00  0.00     0.040 A 
HETATM   17  C   UNK     0     183.133 176.729 179.375  0.00  0.00     0.017 A 
BRANCH  14  18
HETATM   18  O   UNK     0     181.876 178.822 176.017  0.00  0.00    -0.358 OA
HETATM   19  H   UNK     0     181.433 178.219 175.398  0.00  0.00     0.217 HD
ENDBRANCH  14  18
BRANCH  15  20
HETATM   20  O   UNK     0     180.011 177.800 177.804  0.00  0.00    -0.358 OA
HETATM   21  H   UNK     0     179.785 178.739 177.902  0.00  0.00     0.217 HD
ENDBRANCH  15  20
ENDBRANCH   5  12
BRANCH   6  22
HETATM   22  O   UNK     0     185.943 179.375 179.022  0.00  0.00    -0.355 OA
HETATM   23  H   UNK     0     186.717 179.961 179.018  0.00  0.00     0.218 HD
ENDBRANCH   6  22
BRANCH   8  24
HETATM   24  O   UNK     0     190.494 176.861 179.621  0.00  0.00    -0.360 OA
HETATM   25  H   UNK     0     190.150 177.766 179.590  0.00  0.00     0.217 HD
ENDBRANCH   8  24
BRANCH  10  26
HETATM   26  O   UNK     0     189.205 172.331 179.011  0.00  0.00    -0.361 OA
HETATM   27  H   UNK     0     189.979 172.184 179.581  0.00  0.00     0.217 HD
ENDBRANCH  10  26
TORSDOF 6
ENDMDL
MODEL 3
REMARK VINA RESULT:      -8.2     40.592     41.776
REMARK  6 active torsions:
REMARK  status: ('A' for Active; 'I' for Inactive)
REMARK    1  A    between atoms: O_2  and  C_12 
REMARK    2  A    between atoms: O_3  and  C_14 
REMARK    3  A    between atoms: O_5  and  C_16 
REMARK    4  A    between atoms: O_6  and  C_20 
REMARK    5  A    between atoms: O_7  and  C_22 
REMARK    6  A    between atoms: C_10  and  C_11 
ROOT
HETATM    1  O   UNK     0     148.625 177.724 162.801  0.00  0.00    -0.306 OA
HETATM    2  O   UNK     0     148.436 181.289 160.835  0.00  0.00    -0.284 OA
HETATM    3  C   UNK     0     149.144 179.039 160.828  0.00  0.00     0.084 A 
HETATM    4  C   UNK     0     149.176 177.849 161.552  0.00  0.00     0.096 A 
HETATM    5  C   UNK     0     147.997 178.826 163.360  0.00  0.00     0.123 A 
HETATM    6  C   UNK     0     147.904 180.032 162.770  0.00  0.00     0.152 A 
HETATM    7  C   UNK     0     148.491 180.216 161.421  0.00  0.00     0.223 A 
HETATM    8  C   UNK     0     149.725 179.108 159.559  0.00  0.00     0.085 A 
HETATM    9  C   UNK     0     149.793 176.720 161.012  0.00  0.00     0.075 A 
HETATM   10  C   UNK     0     150.373 176.785 159.745  0.00  0.00     0.071 A 
HETATM   11  C   UNK     0     150.339 177.977 159.021  0.00  0.00     0.074 A 
ENDROOT
BRANCH   5  12
HETATM   12  C   UNK     0     147.448 178.557 164.701  0.00  0.00     0.004 A 
HETATM   13  C   UNK     0     146.255 177.847 164.837  0.00  0.00     0.053 A 
HETATM   14  C   UNK     0     145.736 177.592 166.106  0.00  0.00     0.099 A 
HETATM   15  C   UNK     0     146.411 178.046 167.240  0.00  0.00     0.098 A 
HETATM   16  C   UNK     0     147.605 178.755 167.104  0.00  0.00     0.040 A 
HETATM   17  C   UNK     0     148.123 179.010 165.834  0.00  0.00     0.017 A 
BRANCH  14  18
HETATM   18  O   UNK     0     144.569 176.900 166.228  0.00  0.00    -0.358 OA
HETATM   19  H   UNK     0     143.849 177.394 165.802  0.00  0.00     0.217 HD
ENDBRANCH  14  18
BRANCH  15  20
HETATM   20  O   UNK     0     145.915 177.801 168.485  0.00  0.00    -0.358 OA
HETATM   21  H   UNK     0     146.097 176.882 168.735  0.00  0.00     0.217 HD
ENDBRANCH  15  20
ENDBRANCH   5  12
BRANCH   6  22
HETATM   22  O   UNK     0     147.301 181.118 163.368  0.00  0.00    -0.355 OA
HETATM   23  H   UNK     0     146.505 181.368 162.871  0.00  0.00     0.218 HD
ENDBRANCH   6  22
BRANCH   8  24
HETATM   24  O   UNK     0     149.721 180.246 158.810  0.00  0.00    -0.360 OA
HETATM   25  H   UNK     0     149.621 181.026 159.376  0.00  0.00     0.217 HD
ENDBRANCH   8  24
BRANCH  10  26
HETATM   26  O   UNK     0     150.974 175.683 159.217  0.00  0.00    -0.361 OA
HETATM   27  H   UNK     0     150.612 174.890 159.648  0.00  0.00     0.217 HD
ENDBRANCH  10  26
TORSDOF 6
ENDMDL
MODEL 4
REMARK VINA RESULT:      -8.0      2.021      6.738
REMARK  6 active torsions:
REMARK  status: ('A' for Active; 'I' for Inactive)
REMARK    1  A    between atoms: O_2  and  C_12 
REMARK    2  A    between atoms: O_3  and  C_14 
REMARK    3  A    between atoms: O_5  and  C_16 
REMARK    4  A    between atoms: O_6  and  C_20 
REMARK    5  A    between atoms: O_7  and  C_22 
REMARK    6  A    between atoms: C_10  and  C_11 
ROOT
HETATM    1  O   UNK     0     186.112 175.738 179.045  0.00  0.00    -0.306 OA
HETATM    2  O   UNK     0     188.152 179.100 177.975  0.00  0.00    -0.284 OA
HETATM    3  C   UNK     0     188.165 176.757 178.248  0.00  0.00     0.084 A 
HETATM    4  C   UNK     0     187.414 175.647 178.628  0.00  0.00     0.096 A 
HETATM    5  C   UNK     0     185.513 176.988 179.077  0.00  0.00     0.123 A 
HETATM    6  C   UNK     0     186.130 178.138 178.744  0.00  0.00     0.152 A 
HETATM    7  C   UNK     0     187.541 178.088 178.292  0.00  0.00     0.223 A 
HETATM    8  C   UNK     0     189.490 176.603 177.833  0.00  0.00     0.085 A 
HETATM    9  C   UNK     0     187.985 174.374 178.597  0.00  0.00     0.075 A 
HETATM   10  C   UNK     0     189.308 174.217 178.182  0.00  0.00     0.071 A 
HETATM   11  C   UNK     0     190.058 175.329 177.801  0.00  0.00     0.074 A 
ENDROOT
BRANCH   5  12
HETATM   12  C   UNK     0     184.116 176.946 179.542  0.00  0.00     0.004 A 
HETATM   13  C   UNK     0     183.820 176.479 180.822  0.00  0.00     0.053 A 
HETATM   14  C   UNK     0     182.497 176.439 181.262  0.00  0.00     0.099 A 
HETATM   15  C   UNK     0     181.469 176.866 180.421  0.00  0.00     0.098 A 
HETATM   16  C   UNK     0     181.765 177.334 179.141  0.00  0.00     0.040 A 
HETATM   17  C   UNK     0     183.088 177.374 178.701  0.00  0.00     0.017 A 
BRANCH  14  18
HETATM   18  O   UNK     0     182.220 175.978 182.514  0.00  0.00    -0.358 OA
HETATM   19  H   UNK     0     182.959 176.180 183.109  0.00  0.00     0.217 HD
ENDBRANCH  14  18
BRANCH  15  20
HETATM   20  O   UNK     0     180.173 176.834 180.840  0.00  0.00    -0.358 OA
HETATM   21  H   UNK     0     179.934 177.689 181.230  0.00  0.00     0.217 HD
ENDBRANCH  15  20
ENDBRANCH   5  12
BRANCH   6  22
HETATM   22  O   UNK     0     185.516 179.369 178.818  0.00  0.00    -0.355 OA
HETATM   23  H   UNK     0     185.478 179.773 177.936  0.00  0.00     0.218 HD
ENDBRANCH   6  22
BRANCH   8  24
HETATM   24  O   UNK     0     190.268 177.655 177.451  0.00  0.00    -0.360 OA
HETATM   25  H   UNK     0     189.750 178.291 176.935  0.00  0.00     0.217 HD
ENDBRANCH   8  24
BRANCH  10  26
HETATM   26  O   UNK     0     189.866 172.975 178.151  0.00  0.00    -0.361 OA
HETATM   27  H   UNK     0     190.644 172.994 177.567  0.00  0.00     0.217 HD
ENDBRANCH  10  26
TORSDOF 6
ENDMDL
MODEL 5
REMARK VINA RESULT:      -7.9     38.235     43.240
REMARK  6 active torsions:
REMARK  status: ('A' for Active; 'I' for Inactive)
REMARK    1  A    between atoms: O_2  and  C_12 
REMARK    2  A    between atoms: O_3  and  C_14 
REMARK    3  A    between atoms: O_5  and  C_16 
REMARK    4  A    between atoms: O_6  and  C_20 
REMARK    5  A    between atoms: O_7  and  C_22 
REMARK    6  A    between atoms: C_10  and  C_11 
ROOT
HETATM    1  O   UNK     0     152.370 188.738 157.139  0.00  0.00    -0.306 OA
HETATM    2  O   UNK     0     155.174 188.798 154.183  0.00  0.00    -0.284 OA
HETATM    3  C   UNK     0     154.618 188.202 156.396  0.00  0.00     0.084 A 
HETATM    4  C   UNK     0     153.616 188.214 157.365  0.00  0.00     0.096 A 
HETATM    5  C   UNK     0     152.092 189.268 155.889  0.00  0.00     0.123 A 
HETATM    6  C   UNK     0     152.971 189.326 154.872  0.00  0.00     0.152 A 
HETATM    7  C   UNK     0     154.333 188.775 155.072  0.00  0.00     0.223 A 
HETATM    8  C   UNK     0     155.870 187.655 156.684  0.00  0.00     0.085 A 
HETATM    9  C   UNK     0     153.862 187.679 158.630  0.00  0.00     0.075 A 
HETATM   10  C   UNK     0     155.112 187.131 158.920  0.00  0.00     0.071 A 
HETATM   11  C   UNK     0     156.114 187.120 157.949  0.00  0.00     0.074 A 
ENDROOT
BRANCH   5  12
HETATM   12  C   UNK     0     150.720 189.797 155.780  0.00  0.00     0.004 A 
HETATM   13  C   UNK     0     149.682 188.964 155.363  0.00  0.00     0.053 A 
HETATM   14  C   UNK     0     148.384 189.464 155.261  0.00  0.00     0.099 A 
HETATM   15  C   UNK     0     148.125 190.799 155.576  0.00  0.00     0.098 A 
HETATM   16  C   UNK     0     149.162 191.631 155.995  0.00  0.00     0.040 A 
HETATM   17  C   UNK     0     150.460 191.131 156.097  0.00  0.00     0.017 A 
BRANCH  14  18
HETATM   18  O   UNK     0     147.379 188.643 154.850  0.00  0.00    -0.358 OA
HETATM   19  H   UNK     0     147.416 188.535 153.886  0.00  0.00     0.217 HD
ENDBRANCH  14  18
BRANCH  15  20
HETATM   20  O   UNK     0     146.860 191.298 155.483  0.00  0.00    -0.358 OA
HETATM   21  H   UNK     0     146.845 192.214 155.804  0.00  0.00     0.217 HD
ENDBRANCH  15  20
ENDBRANCH   5  12
BRANCH   6  22
HETATM   22  O   UNK     0     152.673 189.889 153.650  0.00  0.00    -0.355 OA
HETATM   23  H   UNK     0     153.350 189.644 152.999  0.00  0.00     0.218 HD
ENDBRANCH   6  22
BRANCH   8  24
HETATM   24  O   UNK     0     156.883 187.619 155.773  0.00  0.00    -0.360 OA
HETATM   25  H   UNK     0     157.507 186.908 155.985  0.00  0.00     0.217 HD
ENDBRANCH   8  24
BRANCH  10  26
HETATM   26  O   UNK     0     155.354 186.608 160.154  0.00  0.00    -0.361 OA
HETATM   27  H   UNK     0     155.318 185.637 160.097  0.00  0.00     0.217 HD
ENDBRANCH  10  26
TORSDOF 6
ENDMDL
MODEL 6
REMARK VINA RESULT:      -7.9     36.971     41.515
REMARK  6 active torsions:
REMARK  status: ('A' for Active; 'I' for Inactive)
REMARK    1  A    between atoms: O_2  and  C_12 
REMARK    2  A    between atoms: O_3  and  C_14 
REMARK    3  A    between atoms: O_5  and  C_16 
REMARK    4  A    between atoms: O_6  and  C_20 
REMARK    5  A    between atoms: O_7  and  C_22 
REMARK    6  A    between atoms: C_10  and  C_11 
ROOT
HETATM    1  O   UNK     0     154.118 188.101 155.732  0.00  0.00    -0.306 OA
HETATM    2  O   UNK     0     150.572 189.982 156.435  0.00  0.00    -0.284 OA
HETATM    3  C   UNK     0     152.279 189.446 154.898  0.00  0.00     0.084 A 
HETATM    4  C   UNK     0     153.492 188.784 154.723  0.00  0.00     0.096 A 
HETATM    5  C   UNK     0     153.511 188.058 156.978  0.00  0.00     0.123 A 
HETATM    6  C   UNK     0     152.346 188.660 157.280  0.00  0.00     0.152 A 
HETATM    7  C   UNK     0     151.635 189.415 156.220  0.00  0.00     0.223 A 
HETATM    8  C   UNK     0     151.687 190.128 153.831  0.00  0.00     0.085 A 
HETATM    9  C   UNK     0     154.124 188.801 153.478  0.00  0.00     0.075 A 
HETATM   10  C   UNK     0     153.535 189.481 152.411  0.00  0.00     0.071 A 
HETATM   11  C   UNK     0     152.320 190.143 152.588  0.00  0.00     0.074 A 
ENDROOT
BRANCH   5  12
HETATM   12  C   UNK     0     154.287 187.293 157.970  0.00  0.00     0.004 A 
HETATM   13  C   UNK     0     154.537 185.936 157.765  0.00  0.00     0.053 A 
HETATM   14  C   UNK     0     155.272 185.213 158.705  0.00  0.00     0.099 A 
HETATM   15  C   UNK     0     155.757 185.847 159.849  0.00  0.00     0.098 A 
HETATM   16  C   UNK     0     155.508 187.204 160.053  0.00  0.00     0.040 A 
HETATM   17  C   UNK     0     154.773 187.927 159.114  0.00  0.00     0.017 A 
BRANCH  14  18
HETATM   18  O   UNK     0     155.508 183.888 158.496  0.00  0.00    -0.358 OA
HETATM   19  H   UNK     0     156.416 183.670 158.762  0.00  0.00     0.217 HD
ENDBRANCH  14  18
BRANCH  15  20
HETATM   20  O   UNK     0     156.478 185.151 160.773  0.00  0.00    -0.358 OA
HETATM   21  H   UNK     0     155.877 184.660 161.355  0.00  0.00     0.217 HD
ENDBRANCH  15  20
ENDBRANCH   5  12
BRANCH   6  22
HETATM   22  O   UNK     0     151.784 188.625 158.538  0.00  0.00    -0.355 OA
HETATM   23  H   UNK     0     151.109 189.318 158.617  0.00  0.00     0.218 HD
ENDBRANCH   6  22
BRANCH   8  24
HETATM   24  O   UNK     0     150.503 190.791 153.949  0.00  0.00    -0.360 OA
HETATM   25  H   UNK     0     150.609 191.724 153.709  0.00  0.00     0.217 HD
ENDBRANCH   8  24
BRANCH  10  26
HETATM   26  O   UNK     0     154.150 189.498 151.196  0.00  0.00    -0.361 OA
HETATM   27  H   UNK     0     153.940 190.336 150.749  0.00  0.00     0.217 HD
ENDBRANCH  10  26
TORSDOF 6
ENDMDL
MODEL 7
REMARK VINA RESULT:      -7.8     36.576     41.122
REMARK  6 active torsions:
REMARK  status: ('A' for Active; 'I' for Inactive)
REMARK    1  A    between atoms: O_2  and  C_12 
REMARK    2  A    between atoms: O_3  and  C_14 
REMARK    3  A    between atoms: O_5  and  C_16 
REMARK    4  A    between atoms: O_6  and  C_20 
REMARK    5  A    between atoms: O_7  and  C_22 
REMARK    6  A    between atoms: C_10  and  C_11 
ROOT
HETATM    1  O   UNK     0     152.746 187.798 157.205  0.00  0.00    -0.306 OA
HETATM    2  O   UNK     0     154.655 189.005 153.813  0.00  0.00    -0.284 OA
HETATM    3  C   UNK     0     152.641 188.880 155.035  0.00  0.00     0.084 A 
HETATM    4  C   UNK     0     152.047 188.441 156.217  0.00  0.00     0.096 A 
HETATM    5  C   UNK     0     154.104 187.587 157.026  0.00  0.00     0.123 A 
HETATM    6  C   UNK     0     154.795 187.953 155.930  0.00  0.00     0.152 A 
HETATM    7  C   UNK     0     154.079 188.647 154.832  0.00  0.00     0.223 A 
HETATM    8  C   UNK     0     151.878 189.529 154.061  0.00  0.00     0.085 A 
HETATM    9  C   UNK     0     150.684 188.648 156.431  0.00  0.00     0.075 A 
HETATM   10  C   UNK     0     149.920 189.296 155.461  0.00  0.00     0.071 A 
HETATM   11  C   UNK     0     150.516 189.735 154.279  0.00  0.00     0.074 A 
ENDROOT
BRANCH   5  12
HETATM   12  C   UNK     0     154.732 186.888 158.160  0.00  0.00     0.004 A 
HETATM   13  C   UNK     0     154.906 185.505 158.118  0.00  0.00     0.053 A 
HETATM   14  C   UNK     0     155.501 184.843 159.192  0.00  0.00     0.099 A 
HETATM   15  C   UNK     0     155.923 185.566 160.309  0.00  0.00     0.098 A 
HETATM   16  C   UNK     0     155.751 186.949 160.350  0.00  0.00     0.040 A 
HETATM   17  C   UNK     0     155.155 187.611 159.276  0.00  0.00     0.017 A 
BRANCH  14  18
HETATM   18  O   UNK     0     155.663 183.492 159.142  0.00  0.00    -0.358 OA
HETATM   19  H   UNK     0     154.804 183.054 159.254  0.00  0.00     0.217 HD
ENDBRANCH  14  18
BRANCH  15  20
HETATM   20  O   UNK     0     156.508 184.931 161.363  0.00  0.00    -0.358 OA
HETATM   21  H   UNK     0     157.467 185.078 161.343  0.00  0.00     0.217 HD
ENDBRANCH  15  20
ENDBRANCH   5  12
BRANCH   6  22
HETATM   22  O   UNK     0     156.139 187.699 155.768  0.00  0.00    -0.355 OA
HETATM   23  H   UNK     0     156.443 188.059 154.919  0.00  0.00     0.218 HD
ENDBRANCH   6  22
BRANCH   8  24
HETATM   24  O   UNK     0     152.409 189.977 152.889  0.00  0.00    -0.360 OA
HETATM   25  H   UNK     0     152.953 189.289 152.477  0.00  0.00     0.217 HD
ENDBRANCH   8  24
BRANCH  10  26
HETATM   26  O   UNK     0     148.589 189.499 155.669  0.00  0.00    -0.361 OA
HETATM   27  H   UNK     0     148.091 189.095 154.938  0.00  0.00     0.217 HD
ENDBRANCH  10  26
TORSDOF 6
ENDMDL
MODEL 8
REMARK VINA RESULT:      -7.8      3.393      8.283
REMARK  6 active torsions:
REMARK  status: ('A' for Active; 'I' for Inactive)
REMARK    1  A    between atoms: O_2  and  C_12 
REMARK    2  A    between atoms: O_3  and  C_14 
REMARK    3  A    between atoms: O_5  and  C_16 
REMARK    4  A    between atoms: O_6  and  C_20 
REMARK    5  A    between atoms: O_7  and  C_22 
REMARK    6  A    between atoms: C_10  and  C_11 
ROOT
HETATM    1  O   UNK     0     181.888 177.265 179.995  0.00  0.00    -0.306 OA
HETATM    2  O   UNK     0     183.661 178.453 176.524  0.00  0.00    -0.284 OA
HETATM    3  C   UNK     0     183.910 177.859 178.793  0.00  0.00     0.084 A 
HETATM    4  C   UNK     0     183.244 177.454 179.948  0.00  0.00     0.096 A 
HETATM    5  C   UNK     0     181.149 177.471 178.840  0.00  0.00     0.123 A 
HETATM    6  C   UNK     0     181.669 177.870 177.664  0.00  0.00     0.152 A 
HETATM    7  C   UNK     0     183.132 178.092 177.567  0.00  0.00     0.223 A 
HETATM    8  C   UNK     0     185.296 178.038 178.804  0.00  0.00     0.085 A 
HETATM    9  C   UNK     0     183.960 177.229 181.124  0.00  0.00     0.075 A 
HETATM   10  C   UNK     0     185.344 177.406 181.138  0.00  0.00     0.071 A 
HETATM   11  C   UNK     0     186.010 177.810 179.981  0.00  0.00     0.074 A 
ENDROOT
BRANCH   5  12
HETATM   12  C   UNK     0     179.708 177.232 179.028  0.00  0.00     0.004 A 
HETATM   13  C   UNK     0     179.162 175.984 178.729  0.00  0.00     0.053 A 
HETATM   14  C   UNK     0     177.797 175.758 178.908  0.00  0.00     0.099 A 
HETATM   15  C   UNK     0     176.978 176.782 179.385  0.00  0.00     0.098 A 
HETATM   16  C   UNK     0     177.523 178.030 179.685  0.00  0.00     0.040 A 
HETATM   17  C   UNK     0     178.888 178.255 179.507  0.00  0.00     0.017 A 
BRANCH  14  18
HETATM   18  O   UNK     0     177.275 174.536 178.610  0.00  0.00    -0.358 OA
HETATM   19  H   UNK     0     176.538 174.637 177.986  0.00  0.00     0.217 HD
ENDBRANCH  14  18
BRANCH  15  20
HETATM   20  O   UNK     0     175.644 176.572 179.566  0.00  0.00    -0.358 OA
HETATM   21  H   UNK     0     175.404 176.763 180.486  0.00  0.00     0.217 HD
ENDBRANCH  15  20
ENDBRANCH   5  12
BRANCH   6  22
HETATM   22  O   UNK     0     180.903 178.098 176.542  0.00  0.00    -0.355 OA
HETATM   23  H   UNK     0     181.326 178.772 175.985  0.00  0.00     0.218 HD
ENDBRANCH   6  22
BRANCH   8  24
HETATM   24  O   UNK     0     185.995 178.431 177.703  0.00  0.00    -0.360 OA
HETATM   25  H   UNK     0     186.918 178.143 177.765  0.00  0.00     0.217 HD
ENDBRANCH   8  24
BRANCH  10  26
HETATM   26  O   UNK     0     186.044 177.185 182.285  0.00  0.00    -0.361 OA
HETATM   27  H   UNK     0     186.524 176.343 182.204  0.00  0.00     0.217 HD
ENDBRANCH  10  26
TORSDOF 6
ENDMDL
MODEL 9
REMARK VINA RESULT:      -7.7     40.467     41.726
REMARK  6 active torsions:
REMARK  status: ('A' for Active; 'I' for Inactive)
REMARK    1  A    between atoms: O_2  and  C_12 
REMARK    2  A    between atoms: O_3  and  C_14 
REMARK    3  A    between atoms: O_5  and  C_16 
REMARK    4  A    between atoms: O_6  and  C_20 
REMARK    5  A    between atoms: O_7  and  C_22 
REMARK    6  A    between atoms: C_10  and  C_11 
ROOT
HETATM    1  O   UNK     0     148.018 179.081 162.706  0.00  0.00    -0.306 OA
HETATM    2  O   UNK     0     150.275 176.056 161.171  0.00  0.00    -0.284 OA
HETATM    3  C   UNK     0     149.394 178.227 160.899  0.00  0.00     0.084 A 
HETATM    4  C   UNK     0     148.610 179.222 161.479  0.00  0.00     0.096 A 
HETATM    5  C   UNK     0     148.219 177.902 163.407  0.00  0.00     0.123 A 
HETATM    6  C   UNK     0     148.946 176.863 162.957  0.00  0.00     0.152 A 
HETATM    7  C   UNK     0     149.601 176.968 161.631  0.00  0.00     0.223 A 
HETATM    8  C   UNK     0     149.972 178.427 159.643  0.00  0.00     0.085 A 
HETATM    9  C   UNK     0     148.396 180.425 160.803  0.00  0.00     0.075 A 
HETATM   10  C   UNK     0     148.972 180.627 159.548  0.00  0.00     0.071 A 
HETATM   11  C   UNK     0     149.758 179.629 158.970  0.00  0.00     0.074 A 
ENDROOT
BRANCH   5  12
HETATM   12  C   UNK     0     147.529 177.881 164.709  0.00  0.00     0.004 A 
HETATM   13  C   UNK     0     146.299 177.237 164.836  0.00  0.00     0.053 A 
HETATM   14  C   UNK     0     145.646 177.217 166.069  0.00  0.00     0.099 A 
HETATM   15  C   UNK     0     146.225 177.842 167.174  0.00  0.00     0.098 A 
HETATM   16  C   UNK     0     147.455 178.485 167.047  0.00  0.00     0.040 A 
HETATM   17  C   UNK     0     148.108 178.505 165.814  0.00  0.00     0.017 A 
BRANCH  14  18
HETATM   18  O   UNK     0     144.444 176.587 166.182  0.00  0.00    -0.358 OA
HETATM   19  H   UNK     0     144.158 176.266 165.311  0.00  0.00     0.217 HD
ENDBRANCH  14  18
BRANCH  15  20
HETATM   20  O   UNK     0     145.598 177.827 168.384  0.00  0.00    -0.358 OA
HETATM   21  H   UNK     0     144.643 177.944 168.260  0.00  0.00     0.217 HD
ENDBRANCH  15  20
ENDBRANCH   5  12
BRANCH   6  22
HETATM   22  O   UNK     0     149.100 175.690 163.665  0.00  0.00    -0.355 OA
HETATM   23  H   UNK     0     148.384 175.073 163.441  0.00  0.00     0.218 HD
ENDBRANCH   6  22
BRANCH   8  24
HETATM   24  O   UNK     0     150.747 177.486 159.033  0.00  0.00    -0.360 OA
HETATM   25  H   UNK     0     151.358 177.903 158.407  0.00  0.00     0.217 HD
ENDBRANCH   8  24
BRANCH  10  26
HETATM   26  O   UNK     0     148.765 181.800 158.888  0.00  0.00    -0.361 OA
HETATM   27  H   UNK     0     147.847 182.086 159.035  0.00  0.00     0.217 HD
ENDBRANCH  10  26
TORSDOF 6
ENDMDL
