MODEL 1
REMARK VINA RESULT:      -8.4      0.000      0.000
REMARK  Name = 5280343
REMARK                            x       y       z     vdW  Elec       q    Type
REMARK                         _______ _______ _______ _____ _____    ______ ____
ROOT
ATOM      1  O   LIG    1      170.182 177.383 139.074  0.00  0.00    -0.451 OA
ATOM      2  C   LIG    1      170.202 176.134 139.676  0.00  0.00    +0.181 A 
ATOM      3  C   LIG    1      169.108 175.394 139.934  0.00  0.00    +0.208 A 
ATOM      4  C   LIG    1      167.779 175.921 139.541  0.00  0.00    +0.238 A 
ATOM      5  C   LIG    1      167.767 177.241 138.891  0.00  0.00    +0.109 A 
ATOM      6  C   LIG    1      166.565 177.823 138.480  0.00  0.00    +0.135 A 
ATOM      7  C   LIG    1      166.582 179.077 137.868  0.00  0.00    +0.091 A 
ATOM      8  C   LIG    1      167.791 179.744 137.667  0.00  0.00    +0.124 A 
ATOM      9  C   LIG    1      168.989 179.159 138.079  0.00  0.00    +0.092 A 
ATOM     14  O   LIG    1      166.749 175.293 139.748  0.00  0.00    -0.283 OA
ATOM     27  C   LIG    1      168.975 177.905 138.691  0.00  0.00    +0.147 A 
ENDROOT
BRANCH   2  17
ATOM     17  C   LIG    1      171.560 175.691 140.037  0.00  0.00    +0.025 A 
ATOM     18  C   LIG    1      172.016 175.839 141.348  0.00  0.00    +0.015 A 
ATOM     19  C   LIG    1      173.302 175.420 141.690  0.00  0.00    +0.050 A 
ATOM     20  C   LIG    1      174.132 174.853 140.723  0.00  0.00    +0.158 A 
ATOM     21  C   LIG    1      173.677 174.707 139.412  0.00  0.00    +0.159 A 
ATOM     26  C   LIG    1      172.390 175.125 139.070  0.00  0.00    +0.060 A 
BRANCH  21  22
ATOM     22  O   LIG    1      174.478 174.153 138.460  0.00  0.00    -0.503 OA
ATOM     23  H   LIG    1      175.113 174.815 138.140  0.00  0.00    +0.292 HD
ENDBRANCH  21  22
BRANCH  20  24
ATOM     24  O   LIG    1      175.387 174.450 141.069  0.00  0.00    -0.503 OA
ATOM     25  H   LIG    1      175.771 175.080 141.699  0.00  0.00    +0.292 HD
ENDBRANCH  20  24
ENDBRANCH   2  17
BRANCH   8  10
ATOM     10  O   LIG    1      167.803 180.967 137.069  0.00  0.00    -0.507 OA
ATOM     11  H   LIG    1      167.269 180.926 136.257  0.00  0.00    +0.292 HD
ENDBRANCH   8  10
BRANCH   6  12
ATOM     12  O   LIG    1      165.357 177.216 138.652  0.00  0.00    -0.506 OA
ATOM     13  H   LIG    1      165.466 176.363 139.099  0.00  0.00    +0.292 HD
ENDBRANCH   6  12
BRANCH   3  15
ATOM     15  O   LIG    1      169.159 174.169 140.563  0.00  0.00    -0.501 OA
ATOM     16  H   LIG    1      170.082 173.933 140.752  0.00  0.00    +0.292 HD
ENDBRANCH   3  15
TORSDOF 6
ENDMDL
MODEL 2
REMARK VINA RESULT:      -8.3      2.724      7.963
REMARK  Name = 5280343
REMARK                            x       y       z     vdW  Elec       q    Type
REMARK                         _______ _______ _______ _____ _____    ______ ____
ROOT
ATOM      1  O   LIG    1      166.773 177.075 140.020  0.00  0.00    -0.451 OA
ATOM      2  C   LIG    1      166.093 177.984 139.225  0.00  0.00    +0.181 A 
ATOM      3  C   LIG    1      166.673 178.777 138.305  0.00  0.00    +0.208 A 
ATOM      4  C   LIG    1      168.137 178.677 138.095  0.00  0.00    +0.238 A 
ATOM      5  C   LIG    1      168.851 177.701 138.933  0.00  0.00    +0.109 A 
ATOM      6  C   LIG    1      170.232 177.529 138.810  0.00  0.00    +0.135 A 
ATOM      7  C   LIG    1      170.884 176.597 139.618  0.00  0.00    +0.091 A 
ATOM      8  C   LIG    1      170.162 175.842 140.543  0.00  0.00    +0.124 A 
ATOM      9  C   LIG    1      168.783 176.017 140.663  0.00  0.00    +0.092 A 
ATOM     14  O   LIG    1      168.721 179.370 137.272  0.00  0.00    -0.283 OA
ATOM     27  C   LIG    1      168.128 176.947 139.855  0.00  0.00    +0.147 A 
ENDROOT
BRANCH   2  17
ATOM     17  C   LIG    1      164.646 178.021 139.502  0.00  0.00    +0.025 A 
ATOM     18  C   LIG    1      163.919 176.832 139.573  0.00  0.00    +0.015 A 
ATOM     19  C   LIG    1      162.550 176.867 139.835  0.00  0.00    +0.050 A 
ATOM     20  C   LIG    1      161.907 178.090 140.027  0.00  0.00    +0.158 A 
ATOM     21  C   LIG    1      162.634 179.279 139.956  0.00  0.00    +0.159 A 
ATOM     26  C   LIG    1      164.004 179.244 139.694  0.00  0.00    +0.060 A 
BRANCH  21  22
ATOM     22  O   LIG    1      162.017 180.479 140.143  0.00  0.00    -0.503 OA
ATOM     23  H   LIG    1      162.501 181.175 139.670  0.00  0.00    +0.292 HD
ENDBRANCH  21  22
BRANCH  20  24
ATOM     24  O   LIG    1      160.568 178.111 140.280  0.00  0.00    -0.503 OA
ATOM     25  H   LIG    1      160.098 177.603 139.601  0.00  0.00    +0.292 HD
ENDBRANCH  20  24
ENDBRANCH   2  17
BRANCH   8  10
ATOM     10  O   LIG    1      170.802 174.934 141.330  0.00  0.00    -0.507 OA
ATOM     11  H   LIG    1      170.138 174.381 141.777  0.00  0.00    +0.292 HD
ENDBRANCH   8  10
BRANCH   6  12
ATOM     12  O   LIG    1      170.985 178.240 137.925  0.00  0.00    -0.506 OA
ATOM     13  H   LIG    1      171.814 177.775 137.734  0.00  0.00    +0.292 HD
ENDBRANCH   6  12
BRANCH   3  15
ATOM     15  O   LIG    1      165.972 179.695 137.553  0.00  0.00    -0.501 OA
ATOM     16  H   LIG    1      165.733 180.458 138.103  0.00  0.00    +0.292 HD
ENDBRANCH   3  15
TORSDOF 6
ENDMDL
MODEL 3
REMARK VINA RESULT:      -8.2      7.609     10.548
REMARK  Name = 5280343
REMARK                            x       y       z     vdW  Elec       q    Type
REMARK                         _______ _______ _______ _____ _____    ______ ____
ROOT
ATOM      1  O   LIG    1      164.265 183.775 140.978  0.00  0.00    -0.451 OA
ATOM      2  C   LIG    1      163.061 183.110 140.807  0.00  0.00    +0.181 A 
ATOM      3  C   LIG    1      161.854 183.705 140.815  0.00  0.00    +0.208 A 
ATOM      4  C   LIG    1      161.781 185.174 141.001  0.00  0.00    +0.238 A 
ATOM      5  C   LIG    1      163.063 185.875 141.169  0.00  0.00    +0.109 A 
ATOM      6  C   LIG    1      163.103 187.260 141.347  0.00  0.00    +0.135 A 
ATOM      7  C   LIG    1      164.333 187.899 141.505  0.00  0.00    +0.091 A 
ATOM      8  C   LIG    1      165.516 187.159 141.485  0.00  0.00    +0.124 A 
ATOM      9  C   LIG    1      165.473 185.776 141.307  0.00  0.00    +0.092 A 
ATOM     14  O   LIG    1      160.712 185.771 141.016  0.00  0.00    -0.283 OA
ATOM     27  C   LIG    1      164.244 185.134 141.147  0.00  0.00    +0.147 A 
ENDROOT
BRANCH   2  17
ATOM     17  C   LIG    1      163.226 181.656 140.635  0.00  0.00    +0.025 A 
ATOM     18  C   LIG    1      163.316 180.827 141.754  0.00  0.00    +0.015 A 
ATOM     19  C   LIG    1      163.472 179.451 141.591  0.00  0.00    +0.050 A 
ATOM     20  C   LIG    1      163.538 178.903 140.311  0.00  0.00    +0.158 A 
ATOM     21  C   LIG    1      163.449 179.731 139.192  0.00  0.00    +0.159 A 
ATOM     26  C   LIG    1      163.292 181.108 139.354  0.00  0.00    +0.060 A 
BRANCH  21  22
ATOM     22  O   LIG    1      163.511 179.206 137.936  0.00  0.00    -0.503 OA
ATOM     23  H   LIG    1      163.686 179.913 137.294  0.00  0.00    +0.292 HD
ENDBRANCH  21  22
BRANCH  20  24
ATOM     24  O   LIG    1      163.693 177.557 140.165  0.00  0.00    -0.503 OA
ATOM     25  H   LIG    1      164.427 177.250 140.720  0.00  0.00    +0.292 HD
ENDBRANCH  20  24
ENDBRANCH   2  17
BRANCH   8  10
ATOM     10  O   LIG    1      166.714 187.787 141.640  0.00  0.00    -0.507 OA
ATOM     11  H   LIG    1      166.848 187.981 142.584  0.00  0.00    +0.292 HD
ENDBRANCH   8  10
BRANCH   6  12
ATOM     12  O   LIG    1      161.979 188.029 141.375  0.00  0.00    -0.506 OA
ATOM     13  H   LIG    1      162.133 188.873 140.924  0.00  0.00    +0.292 HD
ENDBRANCH   6  12
BRANCH   3  15
ATOM     15  O   LIG    1      160.672 183.010 140.675  0.00  0.00    -0.501 OA
ATOM     16  H   LIG    1      160.045 183.529 140.145  0.00  0.00    +0.292 HD
ENDBRANCH   3  15
TORSDOF 6
ENDMDL
MODEL 4
REMARK VINA RESULT:      -7.9     13.872     15.533
REMARK  Name = 5280343
REMARK                            x       y       z     vdW  Elec       q    Type
REMARK                         _______ _______ _______ _____ _____    ______ ____
ROOT
ATOM      1  O   LIG    1      180.643 180.806 128.663  0.00  0.00    -0.451 OA
ATOM      2  C   LIG    1      179.798 179.731 128.437  0.00  0.00    +0.181 A 
ATOM      3  C   LIG    1      178.493 179.704 128.765  0.00  0.00    +0.208 A 
ATOM      4  C   LIG    1      177.890 180.901 129.397  0.00  0.00    +0.238 A 
ATOM      5  C   LIG    1      178.789 182.043 129.622  0.00  0.00    +0.109 A 
ATOM      6  C   LIG    1      178.316 183.220 130.209  0.00  0.00    +0.135 A 
ATOM      7  C   LIG    1      179.191 184.287 130.412  0.00  0.00    +0.091 A 
ATOM      8  C   LIG    1      180.530 184.181 130.031  0.00  0.00    +0.124 A 
ATOM      9  C   LIG    1      180.998 183.004 129.446  0.00  0.00    +0.092 A 
ATOM     14  O   LIG    1      176.708 180.937 129.716  0.00  0.00    -0.283 OA
ATOM     27  C   LIG    1      180.125 181.935 129.241  0.00  0.00    +0.147 A 
ENDROOT
BRANCH   2  17
ATOM     17  C   LIG    1      180.481 178.584 127.811  0.00  0.00    +0.025 A 
ATOM     18  C   LIG    1      180.984 177.554 128.606  0.00  0.00    +0.015 A 
ATOM     19  C   LIG    1      181.630 176.469 128.015  0.00  0.00    +0.050 A 
ATOM     20  C   LIG    1      181.774 176.413 126.629  0.00  0.00    +0.158 A 
ATOM     21  C   LIG    1      181.272 177.444 125.833  0.00  0.00    +0.159 A 
ATOM     26  C   LIG    1      180.625 178.529 126.425  0.00  0.00    +0.060 A 
BRANCH  21  22
ATOM     22  O   LIG    1      181.406 177.400 124.479  0.00  0.00    -0.503 OA
ATOM     23  H   LIG    1      182.276 177.037 124.246  0.00  0.00    +0.292 HD
ENDBRANCH  21  22
BRANCH  20  24
ATOM     24  O   LIG    1      182.410 175.349 126.062  0.00  0.00    -0.503 OA
ATOM     25  H   LIG    1      183.331 175.583 125.869  0.00  0.00    +0.292 HD
ENDBRANCH  20  24
ENDBRANCH   2  17
BRANCH   8  10
ATOM     10  O   LIG    1      181.380 185.225 130.232  0.00  0.00    -0.507 OA
ATOM     11  H   LIG    1      180.898 185.943 130.677  0.00  0.00    +0.292 HD
ENDBRANCH   8  10
BRANCH   6  12
ATOM     12  O   LIG    1      177.020 183.377 130.600  0.00  0.00    -0.506 OA
ATOM     13  H   LIG    1      176.959 184.015 131.326  0.00  0.00    +0.292 HD
ENDBRANCH   6  12
BRANCH   3  15
ATOM     15  O   LIG    1      177.687 178.606 128.556  0.00  0.00    -0.501 OA
ATOM     16  H   LIG    1      177.588 178.445 127.603  0.00  0.00    +0.292 HD
ENDBRANCH   3  15
TORSDOF 6
ENDMDL
MODEL 5
REMARK VINA RESULT:      -7.8     14.028     15.901
REMARK  Name = 5280343
REMARK                            x       y       z     vdW  Elec       q    Type
REMARK                         _______ _______ _______ _____ _____    ______ ____
ROOT
ATOM      1  O   LIG    1      179.134 179.639 128.494  0.00  0.00    -0.451 OA
ATOM      2  C   LIG    1      180.415 179.803 127.991  0.00  0.00    +0.181 A 
ATOM      3  C   LIG    1      181.114 180.951 128.045  0.00  0.00    +0.208 A 
ATOM      4  C   LIG    1      180.501 182.132 128.698  0.00  0.00    +0.238 A 
ATOM      5  C   LIG    1      179.146 181.947 129.242  0.00  0.00    +0.109 A 
ATOM      6  C   LIG    1      178.483 182.998 129.880  0.00  0.00    +0.135 A 
ATOM      7  C   LIG    1      177.198 182.796 130.385  0.00  0.00    +0.091 A 
ATOM      8  C   LIG    1      176.580 181.551 130.254  0.00  0.00    +0.124 A 
ATOM      9  C   LIG    1      177.246 180.504 129.616  0.00  0.00    +0.092 A 
ATOM     14  O   LIG    1      181.088 183.203 128.779  0.00  0.00    -0.283 OA
ATOM     27  C   LIG    1      178.532 180.704 129.111  0.00  0.00    +0.147 A 
ENDROOT
BRANCH   2  17
ATOM     17  C   LIG    1      180.944 178.583 127.355  0.00  0.00    +0.025 A 
ATOM     18  C   LIG    1      181.516 177.581 128.139  0.00  0.00    +0.015 A 
ATOM     19  C   LIG    1      182.018 176.426 127.538  0.00  0.00    +0.050 A 
ATOM     20  C   LIG    1      181.947 176.274 126.154  0.00  0.00    +0.158 A 
ATOM     21  C   LIG    1      181.376 177.277 125.369  0.00  0.00    +0.159 A 
ATOM     26  C   LIG    1      180.874 178.431 125.971  0.00  0.00    +0.060 A 
BRANCH  21  22
ATOM     22  O   LIG    1      181.301 177.138 124.017  0.00  0.00    -0.503 OA
ATOM     23  H   LIG    1      182.191 177.182 123.632  0.00  0.00    +0.292 HD
ENDBRANCH  21  22
BRANCH  20  24
ATOM     24  O   LIG    1      182.443 175.143 125.578  0.00  0.00    -0.503 OA
ATOM     25  H   LIG    1      181.771 174.748 125.000  0.00  0.00    +0.292 HD
ENDBRANCH  20  24
ENDBRANCH   2  17
BRANCH   8  10
ATOM     10  O   LIG    1      175.327 181.358 130.748  0.00  0.00    -0.507 OA
ATOM     11  H   LIG    1      174.682 181.746 130.131  0.00  0.00    +0.292 HD
ENDBRANCH   8  10
BRANCH   6  12
ATOM     12  O   LIG    1      179.039 184.233 130.034  0.00  0.00    -0.506 OA
ATOM     13  H   LIG    1      178.446 184.813 130.535  0.00  0.00    +0.292 HD
ENDBRANCH   6  12
BRANCH   3  15
ATOM     15  O   LIG    1      182.374 181.091 127.505  0.00  0.00    -0.501 OA
ATOM     16  H   LIG    1      182.779 181.915 127.822  0.00  0.00    +0.292 HD
ENDBRANCH   3  15
TORSDOF 6
ENDMDL
MODEL 6
REMARK VINA RESULT:      -7.8      1.740      2.306
REMARK  Name = 5280343
REMARK                            x       y       z     vdW  Elec       q    Type
REMARK                         _______ _______ _______ _____ _____    ______ ____
ROOT
ATOM      1  O   LIG    1      171.096 177.870 138.873  0.00  0.00    -0.451 OA
ATOM      2  C   LIG    1      171.576 176.801 139.613  0.00  0.00    +0.181 A 
ATOM      3  C   LIG    1      170.799 175.906 140.252  0.00  0.00    +0.208 A 
ATOM      4  C   LIG    1      169.325 176.043 140.159  0.00  0.00    +0.238 A 
ATOM      5  C   LIG    1      168.824 177.172 139.361  0.00  0.00    +0.109 A 
ATOM      6  C   LIG    1      167.451 177.386 139.209  0.00  0.00    +0.135 A 
ATOM      7  C   LIG    1      167.003 178.465 138.448  0.00  0.00    +0.091 A 
ATOM      8  C   LIG    1      167.920 179.327 137.843  0.00  0.00    +0.124 A 
ATOM      9  C   LIG    1      169.289 179.111 137.998  0.00  0.00    +0.092 A 
ATOM     14  O   LIG    1      168.568 175.259 140.717  0.00  0.00    -0.283 OA
ATOM     27  C   LIG    1      169.740 178.030 138.757  0.00  0.00    +0.147 A 
ENDROOT
BRANCH   2  17
ATOM     17  C   LIG    1      173.047 176.745 139.657  0.00  0.00    +0.025 A 
ATOM     18  C   LIG    1      173.751 176.094 138.643  0.00  0.00    +0.015 A 
ATOM     19  C   LIG    1      175.144 176.040 138.685  0.00  0.00    +0.050 A 
ATOM     20  C   LIG    1      175.834 176.637 139.739  0.00  0.00    +0.158 A 
ATOM     21  C   LIG    1      175.131 177.287 140.754  0.00  0.00    +0.159 A 
ATOM     26  C   LIG    1      173.737 177.342 140.712  0.00  0.00    +0.060 A 
BRANCH  21  22
ATOM     22  O   LIG    1      175.794 177.875 141.788  0.00  0.00    -0.503 OA
ATOM     23  H   LIG    1      175.577 178.821 141.822  0.00  0.00    +0.292 HD
ENDBRANCH  21  22
BRANCH  20  24
ATOM     24  O   LIG    1      177.195 176.576 139.770  0.00  0.00    -0.503 OA
ATOM     25  H   LIG    1      177.567 177.433 139.508  0.00  0.00    +0.292 HD
ENDBRANCH  20  24
ENDBRANCH   2  17
BRANCH   8  10
ATOM     10  O   LIG    1      167.478 180.380 137.102  0.00  0.00    -0.507 OA
ATOM     11  H   LIG    1      168.186 180.658 136.496  0.00  0.00    +0.292 HD
ENDBRANCH   8  10
BRANCH   6  12
ATOM     12  O   LIG    1      166.514 176.577 139.778  0.00  0.00    -0.506 OA
ATOM     13  H   LIG    1      165.722 177.084 140.009  0.00  0.00    +0.292 HD
ENDBRANCH   6  12
BRANCH   3  15
ATOM     15  O   LIG    1      171.307 174.872 141.008  0.00  0.00    -0.501 OA
ATOM     16  H   LIG    1      171.932 175.219 141.665  0.00  0.00    +0.292 HD
ENDBRANCH   3  15
TORSDOF 6
ENDMDL
MODEL 7
REMARK VINA RESULT:      -7.6      2.141      6.747
REMARK  Name = 5280343
REMARK                            x       y       z     vdW  Elec       q    Type
REMARK                         _______ _______ _______ _____ _____    ______ ____
ROOT
ATOM      1  O   LIG    1      171.213 177.727 138.453  0.00  0.00    -0.451 OA
ATOM      2  C   LIG    1      170.224 176.811 138.130  0.00  0.00    +0.181 A 
ATOM      3  C   LIG    1      170.408 175.479 138.071  0.00  0.00    +0.208 A 
ATOM      4  C   LIG    1      171.747 174.927 138.387  0.00  0.00    +0.238 A 
ATOM      5  C   LIG    1      172.788 175.903 138.742  0.00  0.00    +0.109 A 
ATOM      6  C   LIG    1      174.082 175.483 139.059  0.00  0.00    +0.135 A 
ATOM      7  C   LIG    1      175.051 176.430 139.391  0.00  0.00    +0.091 A 
ATOM      8  C   LIG    1      174.729 177.788 139.406  0.00  0.00    +0.124 A 
ATOM      9  C   LIG    1      173.436 178.204 139.088  0.00  0.00    +0.092 A 
ATOM     14  O   LIG    1      171.974 173.724 138.352  0.00  0.00    -0.283 OA
ATOM     27  C   LIG    1      172.465 177.258 138.757  0.00  0.00    +0.147 A 
ENDROOT
BRANCH   2  17
ATOM     17  C   LIG    1      168.930 177.446 137.826  0.00  0.00    +0.025 A 
ATOM     18  C   LIG    1      167.962 177.567 138.824  0.00  0.00    +0.015 A 
ATOM     19  C   LIG    1      166.736 178.168 138.536  0.00  0.00    +0.050 A 
ATOM     20  C   LIG    1      166.478 178.647 137.252  0.00  0.00    +0.158 A 
ATOM     21  C   LIG    1      167.445 178.524 136.254  0.00  0.00    +0.159 A 
ATOM     26  C   LIG    1      168.671 177.924 136.542  0.00  0.00    +0.060 A 
BRANCH  21  22
ATOM     22  O   LIG    1      167.204 178.990 134.997  0.00  0.00    -0.503 OA
ATOM     23  H   LIG    1      168.018 178.946 134.469  0.00  0.00    +0.292 HD
ENDBRANCH  21  22
BRANCH  20  24
ATOM     24  O   LIG    1      165.276 179.229 136.983  0.00  0.00    -0.503 OA
ATOM     25  H   LIG    1      165.258 180.128 137.348  0.00  0.00    +0.292 HD
ENDBRANCH  20  24
ENDBRANCH   2  17
BRANCH   8  10
ATOM     10  O   LIG    1      175.678 178.709 139.730  0.00  0.00    -0.507 OA
ATOM     11  H   LIG    1      175.992 178.534 140.634  0.00  0.00    +0.292 HD
ENDBRANCH   8  10
BRANCH   6  12
ATOM     12  O   LIG    1      174.450 174.171 139.060  0.00  0.00    -0.506 OA
ATOM     13  H   LIG    1      174.758 173.904 138.180  0.00  0.00    +0.292 HD
ENDBRANCH   6  12
BRANCH   3  15
ATOM     15  O   LIG    1      169.411 174.597 137.714  0.00  0.00    -0.501 OA
ATOM     16  H   LIG    1      168.570 175.072 137.615  0.00  0.00    +0.292 HD
ENDBRANCH   3  15
TORSDOF 6
ENDMDL
MODEL 8
REMARK VINA RESULT:      -7.6     12.455     15.209
REMARK  Name = 5280343
REMARK                            x       y       z     vdW  Elec       q    Type
REMARK                         _______ _______ _______ _____ _____    ______ ____
ROOT
ATOM      1  O   LIG    1      177.362 184.555 130.436  0.00  0.00    -0.451 OA
ATOM      2  C   LIG    1      176.500 183.545 130.036  0.00  0.00    +0.181 A 
ATOM      3  C   LIG    1      176.892 182.320 129.640  0.00  0.00    +0.208 A 
ATOM      4  C   LIG    1      178.339 181.997 129.640  0.00  0.00    +0.238 A 
ATOM      5  C   LIG    1      179.247 183.068 130.078  0.00  0.00    +0.109 A 
ATOM      6  C   LIG    1      180.628 182.862 130.117  0.00  0.00    +0.135 A 
ATOM      7  C   LIG    1      181.466 183.895 130.535  0.00  0.00    +0.091 A 
ATOM      8  C   LIG    1      180.929 185.127 130.913  0.00  0.00    +0.124 A 
ATOM      9  C   LIG    1      179.549 185.329 130.872  0.00  0.00    +0.092 A 
ATOM     14  O   LIG    1      178.755 180.899 129.293  0.00  0.00    -0.283 OA
ATOM     27  C   LIG    1      178.708 184.296 130.455  0.00  0.00    +0.147 A 
ENDROOT
BRANCH   2  17
ATOM     17  C   LIG    1      175.085 183.954 130.061  0.00  0.00    +0.025 A 
ATOM     18  C   LIG    1      174.280 183.612 131.148  0.00  0.00    +0.015 A 
ATOM     19  C   LIG    1      172.940 183.998 131.173  0.00  0.00    +0.050 A 
ATOM     20  C   LIG    1      172.404 184.726 130.110  0.00  0.00    +0.158 A 
ATOM     21  C   LIG    1      173.209 185.068 129.023  0.00  0.00    +0.159 A 
ATOM     26  C   LIG    1      174.550 184.682 128.999  0.00  0.00    +0.060 A 
BRANCH  21  22
ATOM     22  O   LIG    1      172.697 185.780 127.981  0.00  0.00    -0.503 OA
ATOM     23  H   LIG    1      173.023 185.415 127.142  0.00  0.00    +0.292 HD
ENDBRANCH  21  22
BRANCH  20  24
ATOM     24  O   LIG    1      171.093 185.096 130.144  0.00  0.00    -0.503 OA
ATOM     25  H   LIG    1      170.793 185.320 129.249  0.00  0.00    +0.292 HD
ENDBRANCH  20  24
ENDBRANCH   2  17
BRANCH   8  10
ATOM     10  O   LIG    1      181.751 186.133 131.320  0.00  0.00    -0.507 OA
ATOM     11  H   LIG    1      181.956 186.700 130.556  0.00  0.00    +0.292 HD
ENDBRANCH   8  10
BRANCH   6  12
ATOM     12  O   LIG    1      181.206 181.681 129.760  0.00  0.00    -0.506 OA
ATOM     13  H   LIG    1      181.770 181.800 128.981  0.00  0.00    +0.292 HD
ENDBRANCH   6  12
BRANCH   3  15
ATOM     15  O   LIG    1      176.011 181.348 129.217  0.00  0.00    -0.501 OA
ATOM     16  H   LIG    1      175.315 181.749 128.671  0.00  0.00    +0.292 HD
ENDBRANCH   3  15
TORSDOF 6
ENDMDL
MODEL 9
REMARK VINA RESULT:      -7.6     28.358     32.513
REMARK  Name = 5280343
REMARK                            x       y       z     vdW  Elec       q    Type
REMARK                         _______ _______ _______ _____ _____    ______ ____
ROOT
ATOM      1  O   LIG    1      189.565 182.802 164.257  0.00  0.00    -0.451 OA
ATOM      2  C   LIG    1      189.301 183.559 163.126  0.00  0.00    +0.181 A 
ATOM      3  C   LIG    1      190.235 183.973 162.250  0.00  0.00    +0.208 A 
ATOM      4  C   LIG    1      191.650 183.590 162.478  0.00  0.00    +0.238 A 
ATOM      5  C   LIG    1      191.921 182.776 163.673  0.00  0.00    +0.109 A 
ATOM      6  C   LIG    1      193.220 182.361 163.975  0.00  0.00    +0.135 A 
ATOM      7  C   LIG    1      193.449 181.590 165.115  0.00  0.00    +0.091 A 
ATOM      8  C   LIG    1      192.387 181.235 165.948  0.00  0.00    +0.124 A 
ATOM      9  C   LIG    1      191.091 181.652 165.643  0.00  0.00    +0.092 A 
ATOM     14  O   LIG    1      192.543 183.935 161.716  0.00  0.00    -0.283 OA
ATOM     27  C   LIG    1      190.859 182.422 164.503  0.00  0.00    +0.147 A 
ENDROOT
BRANCH   2  17
ATOM     17  C   LIG    1      187.875 183.897 162.980  0.00  0.00    +0.025 A 
ATOM     18  C   LIG    1      187.134 184.289 164.096  0.00  0.00    +0.015 A 
ATOM     19  C   LIG    1      185.783 184.609 163.958  0.00  0.00    +0.050 A 
ATOM     20  C   LIG    1      185.173 184.538 162.706  0.00  0.00    +0.158 A 
ATOM     21  C   LIG    1      185.913 184.145 161.591  0.00  0.00    +0.159 A 
ATOM     26  C   LIG    1      187.265 183.826 161.728  0.00  0.00    +0.060 A 
BRANCH  21  22
ATOM     22  O   LIG    1      185.328 184.073 160.363  0.00  0.00    -0.503 OA
ATOM     23  H   LIG    1      185.722 183.346 159.854  0.00  0.00    +0.292 HD
ENDBRANCH  21  22
BRANCH  20  24
ATOM     24  O   LIG    1      183.852 184.851 162.585  0.00  0.00    -0.503 OA
ATOM     25  H   LIG    1      183.500 185.124 163.447  0.00  0.00    +0.292 HD
ENDBRANCH  20  24
ENDBRANCH   2  17
BRANCH   8  10
ATOM     10  O   LIG    1      192.615 180.484 167.059  0.00  0.00    -0.507 OA
ATOM     11  H   LIG    1      191.946 179.778 167.105  0.00  0.00    +0.292 HD
ENDBRANCH   8  10
BRANCH   6  12
ATOM     12  O   LIG    1      194.293 182.679 163.197  0.00  0.00    -0.506 OA
ATOM     13  H   LIG    1      194.007 183.154 162.402  0.00  0.00    +0.292 HD
ENDBRANCH   6  12
BRANCH   3  15
ATOM     15  O   LIG    1      189.944 184.753 161.152  0.00  0.00    -0.501 OA
ATOM     16  H   LIG    1      189.955 184.209 160.348  0.00  0.00    +0.292 HD
ENDBRANCH   3  15
TORSDOF 6
ENDMDL
