MODEL 1
REMARK VINA RESULT:      -9.0      0.000      0.000
REMARK  16 active torsions:
REMARK  status: ('A' for Active; 'I' for Inactive)
REMARK    1  A    between atoms: O_2  and  C_22 
REMARK    2  A    between atoms: O_2  and  C_26 
REMARK    3  A    between atoms: O_4  and  C_18 
REMARK    4  A    between atoms: O_5  and  C_19 
REMARK    5  A    between atoms: O_6  and  C_25 
REMARK    6  A    between atoms: O_6  and  C_29 
REMARK    7  A    between atoms: O_7  and  C_20 
REMARK    8  A    between atoms: O_8  and  C_21 
REMARK    9  A    between atoms: O_9  and  C_23 
REMARK   10  A    between atoms: O_10  and  C_24 
REMARK   11  A    between atoms: O_13  and  C_35 
REMARK   12  A    between atoms: O_14  and  C_40 
REMARK   13  A    between atoms: O_15  and  C_41 
REMARK   14  A    between atoms: O_16  and  C_43 
REMARK   15  A    between atoms: C_17  and  C_26 
REMARK   16  A    between atoms: C_30  and  C_33 
ROOT
HETATM    1  O   UNK     0     151.161 155.433 148.739  0.00  0.00    -0.348 OA
HETATM    2  C   UNK     0     150.932 156.651 148.028  0.00  0.00     0.180 C 
HETATM    3  C   UNK     0     149.597 157.263 148.458  0.00  0.00     0.180 C 
HETATM    4  C   UNK     0     148.455 156.267 148.261  0.00  0.00     0.183 C 
HETATM    5  C   UNK     0     148.793 154.908 148.873  0.00  0.00     0.205 C 
HETATM    6  C   UNK     0     150.184 154.437 148.446  0.00  0.00     0.298 C 
ENDROOT
BRANCH   2   7
HETATM    7  C   UNK     0     152.104 157.583 148.325  0.00  0.00     0.205 C 
BRANCH   7   8
HETATM    8  O   UNK     0     152.626 157.274 149.609  0.00  0.00    -0.356 OA
BRANCH   8   9
HETATM    9  C   UNK     0     152.601 158.410 150.467  0.00  0.00     0.291 C 
HETATM   10  O   UNK     0     153.783 159.208 150.351  0.00  0.00    -0.351 OA
HETATM   11  C   UNK     0     154.982 158.544 150.765  0.00  0.00     0.152 C 
HETATM   12  C   UNK     0     154.890 158.103 152.232  0.00  0.00     0.178 C 
HETATM   13  C   UNK     0     156.135 159.518 150.532  0.00  0.00     0.042 C 
HETATM   14  C   UNK     0     153.639 157.250 152.447  0.00  0.00     0.183 C 
HETATM   15  C   UNK     0     152.394 157.960 151.913  0.00  0.00     0.204 C 
BRANCH  12  16
HETATM   16  O   UNK     0     156.027 157.319 152.585  0.00  0.00    -0.390 OA
HETATM   17  H   UNK     0     155.863 156.406 152.292  0.00  0.00     0.210 HD
ENDBRANCH  12  16
BRANCH  14  18
HETATM   18  O   UNK     0     153.486 156.983 153.839  0.00  0.00    -0.390 OA
HETATM   19  H   UNK     0     152.556 156.744 153.995  0.00  0.00     0.210 HD
ENDBRANCH  14  18
BRANCH  15  20
HETATM   20  O   UNK     0     152.123 159.124 152.696  0.00  0.00    -0.388 OA
HETATM   21  H   UNK     0     152.906 159.700 152.670  0.00  0.00     0.210 HD
ENDBRANCH  15  20
ENDBRANCH   8   9
ENDBRANCH   7   8
ENDBRANCH   2   7
BRANCH   6  22
HETATM   22  O   UNK     0     150.484 153.242 149.165  0.00  0.00    -0.311 OA
BRANCH  22  23
HETATM   23  C   UNK     0     151.239 152.371 148.411  0.00  0.00     0.157 A 
HETATM   24  C   UNK     0     152.535 152.114 148.664  0.00  0.00     0.124 A 
HETATM   25  O   UNK     0     153.332 151.270 147.906  0.00  0.00    -0.306 OA
HETATM   26  C   UNK     0     152.770 150.630 146.831  0.00  0.00     0.096 A 
HETATM   27  C   UNK     0     151.437 150.801 146.464  0.00  0.00     0.084 A 
HETATM   28  C   UNK     0     153.594 149.779 146.094  0.00  0.00     0.075 A 
HETATM   29  C   UNK     0     150.590 151.705 147.256  0.00  0.00     0.223 A 
HETATM   30  C   UNK     0     150.918 150.123 145.357  0.00  0.00     0.085 A 
HETATM   31  O   UNK     0     149.414 151.899 146.977  0.00  0.00    -0.284 OA
HETATM   32  C   UNK     0     151.745 149.273 144.621  0.00  0.00     0.074 A 
HETATM   33  C   UNK     0     153.080 149.101 144.989  0.00  0.00     0.071 A 
BRANCH  24  34
HETATM   34  C   UNK     0     153.262 152.735 149.785  0.00  0.00     0.004 A 
HETATM   35  C   UNK     0     154.228 153.710 149.536  0.00  0.00     0.053 A 
HETATM   36  C   UNK     0     154.915 154.300 150.597  0.00  0.00     0.099 A 
HETATM   37  C   UNK     0     154.637 153.914 151.908  0.00  0.00     0.098 A 
HETATM   38  C   UNK     0     153.671 152.939 152.158  0.00  0.00     0.040 A 
HETATM   39  C   UNK     0     152.984 152.350 151.097  0.00  0.00     0.017 A 
BRANCH  36  40
HETATM   40  O   UNK     0     155.857 155.250 150.340  0.00  0.00    -0.358 OA
HETATM   41  H   UNK     0     156.536 154.886 149.749  0.00  0.00     0.217 HD
ENDBRANCH  36  40
BRANCH  37  42
HETATM   42  O   UNK     0     155.301 154.483 152.952  0.00  0.00    -0.358 OA
HETATM   43  H   UNK     0     155.824 155.237 152.636  0.00  0.00     0.217 HD
ENDBRANCH  37  42
ENDBRANCH  24  34
BRANCH  30  44
HETATM   44  O   UNK     0     149.624 150.255 144.955  0.00  0.00    -0.360 OA
HETATM   45  H   UNK     0     149.030 149.996 145.680  0.00  0.00     0.217 HD
ENDBRANCH  30  44
BRANCH  33  46
HETATM   46  O   UNK     0     153.882 148.271 144.268  0.00  0.00    -0.361 OA
HETATM   47  H   UNK     0     154.305 147.637 144.872  0.00  0.00     0.217 HD
ENDBRANCH  33  46
ENDBRANCH  22  23
ENDBRANCH   6  22
BRANCH   3  48
HETATM   48  O   UNK     0     149.343 158.431 147.682  0.00  0.00    -0.390 OA
HETATM   49  H   UNK     0     148.458 158.760 147.913  0.00  0.00     0.210 HD
ENDBRANCH   3  48
BRANCH   5  50
HETATM   50  O   UNK     0     147.839 153.940 148.436  0.00  0.00    -0.388 OA
HETATM   51  H   UNK     0     147.092 153.952 149.057  0.00  0.00     0.210 HD
ENDBRANCH   5  50
BRANCH   4  52
HETATM   52  O   UNK     0     147.291 156.798 148.897  0.00  0.00    -0.390 OA
HETATM   53  H   UNK     0     147.512 157.693 149.208  0.00  0.00     0.210 HD
ENDBRANCH   4  52
TORSDOF 16
ENDMDL
MODEL 2
REMARK VINA RESULT:      -8.9      2.213      8.724
REMARK  16 active torsions:
REMARK  status: ('A' for Active; 'I' for Inactive)
REMARK    1  A    between atoms: O_2  and  C_22 
REMARK    2  A    between atoms: O_2  and  C_26 
REMARK    3  A    between atoms: O_4  and  C_18 
REMARK    4  A    between atoms: O_5  and  C_19 
REMARK    5  A    between atoms: O_6  and  C_25 
REMARK    6  A    between atoms: O_6  and  C_29 
REMARK    7  A    between atoms: O_7  and  C_20 
REMARK    8  A    between atoms: O_8  and  C_21 
REMARK    9  A    between atoms: O_9  and  C_23 
REMARK   10  A    between atoms: O_10  and  C_24 
REMARK   11  A    between atoms: O_13  and  C_35 
REMARK   12  A    between atoms: O_14  and  C_40 
REMARK   13  A    between atoms: O_15  and  C_41 
REMARK   14  A    between atoms: O_16  and  C_43 
REMARK   15  A    between atoms: C_17  and  C_26 
REMARK   16  A    between atoms: C_30  and  C_33 
ROOT
HETATM    1  O   UNK     0     152.001 155.544 151.325  0.00  0.00    -0.348 OA
HETATM    2  C   UNK     0     152.633 154.265 151.252  0.00  0.00     0.180 C 
HETATM    3  C   UNK     0     153.087 153.827 152.647  0.00  0.00     0.180 C 
HETATM    4  C   UNK     0     154.003 154.878 153.274  0.00  0.00     0.183 C 
HETATM    5  C   UNK     0     153.389 156.275 153.180  0.00  0.00     0.205 C 
HETATM    6  C   UNK     0     152.890 156.568 151.765  0.00  0.00     0.298 C 
ENDROOT
BRANCH   2   7
HETATM    7  C   UNK     0     151.625 153.288 150.654  0.00  0.00     0.205 C 
BRANCH   7   8
HETATM    8  O   UNK     0     152.269 152.516 149.651  0.00  0.00    -0.356 OA
BRANCH   8   9
HETATM    9  C   UNK     0     152.083 153.082 148.358  0.00  0.00     0.291 C 
HETATM   10  O   UNK     0     151.018 152.457 147.636  0.00  0.00    -0.351 OA
HETATM   11  C   UNK     0     151.248 151.078 147.330  0.00  0.00     0.152 C 
HETATM   12  C   UNK     0     152.517 150.904 146.484  0.00  0.00     0.178 C 
HETATM   13  C   UNK     0     150.004 150.568 146.606  0.00  0.00     0.042 C 
HETATM   14  C   UNK     0     153.708 151.560 147.182  0.00  0.00     0.183 C 
HETATM   15  C   UNK     0     153.389 153.005 147.569  0.00  0.00     0.204 C 
BRANCH  12  16
HETATM   16  O   UNK     0     152.811 149.520 146.311  0.00  0.00    -0.390 OA
HETATM   17  H   UNK     0     153.595 149.312 146.847  0.00  0.00     0.210 HD
ENDBRANCH  12  16
BRANCH  14  18
HETATM   18  O   UNK     0     154.838 151.528 146.314  0.00  0.00    -0.390 OA
HETATM   19  H   UNK     0     155.273 150.664 146.424  0.00  0.00     0.210 HD
ENDBRANCH  14  18
BRANCH  15  20
HETATM   20  O   UNK     0     153.234 153.801 146.393  0.00  0.00    -0.388 OA
HETATM   21  H   UNK     0     152.826 153.251 145.702  0.00  0.00     0.210 HD
ENDBRANCH  15  20
ENDBRANCH   8   9
ENDBRANCH   7   8
ENDBRANCH   2   7
BRANCH   6  22
HETATM   22  O   UNK     0     152.206 157.821 151.791  0.00  0.00    -0.311 OA
BRANCH  22  23
HETATM   23  C   UNK     0     152.496 158.580 150.679  0.00  0.00     0.157 A 
HETATM   24  C   UNK     0     151.614 158.794 149.685  0.00  0.00     0.124 A 
HETATM   25  O   UNK     0     151.884 159.524 148.538  0.00  0.00    -0.306 OA
HETATM   26  C   UNK     0     153.124 160.091 148.400  0.00  0.00     0.096 A 
HETATM   27  C   UNK     0     154.127 159.955 149.358  0.00  0.00     0.084 A 
HETATM   28  C   UNK     0     153.362 160.829 147.240  0.00  0.00     0.075 A 
HETATM   29  C   UNK     0     153.852 159.170 150.571  0.00  0.00     0.223 A 
HETATM   30  C   UNK     0     155.375 160.555 149.163  0.00  0.00     0.085 A 
HETATM   31  O   UNK     0     154.695 159.012 151.443  0.00  0.00    -0.284 OA
HETATM   32  C   UNK     0     155.610 161.292 148.002  0.00  0.00     0.074 A 
HETATM   33  C   UNK     0     154.606 161.429 147.043  0.00  0.00     0.071 A 
BRANCH  24  34
HETATM   34  C   UNK     0     150.248 158.241 149.706  0.00  0.00     0.004 A 
HETATM   35  C   UNK     0     149.227 158.929 150.361  0.00  0.00     0.053 A 
HETATM   36  C   UNK     0     147.934 158.407 150.379  0.00  0.00     0.099 A 
HETATM   37  C   UNK     0     147.661 157.196 149.743  0.00  0.00     0.098 A 
HETATM   38  C   UNK     0     148.683 156.507 149.088  0.00  0.00     0.040 A 
HETATM   39  C   UNK     0     149.975 157.030 149.069  0.00  0.00     0.017 A 
BRANCH  36  40
HETATM   40  O   UNK     0     146.944 159.087 151.024  0.00  0.00    -0.358 OA
HETATM   41  H   UNK     0     146.283 159.390 150.381  0.00  0.00     0.217 HD
ENDBRANCH  36  40
BRANCH  37  42
HETATM   42  O   UNK     0     146.402 156.676 149.753  0.00  0.00    -0.358 OA
HETATM   43  H   UNK     0     145.896 157.060 150.486  0.00  0.00     0.217 HD
ENDBRANCH  37  42
ENDBRANCH  24  34
BRANCH  30  44
HETATM   44  O   UNK     0     156.388 160.452 150.066  0.00  0.00    -0.360 OA
HETATM   45  H   UNK     0     156.018 160.387 150.964  0.00  0.00     0.217 HD
ENDBRANCH  30  44
BRANCH  33  46
HETATM   46  O   UNK     0     154.840 162.149 145.911  0.00  0.00    -0.361 OA
HETATM   47  H   UNK     0     155.551 162.789 146.086  0.00  0.00     0.217 HD
ENDBRANCH  33  46
ENDBRANCH  22  23
ENDBRANCH   6  22
BRANCH   3  48
HETATM   48  O   UNK     0     153.788 152.590 152.547  0.00  0.00    -0.390 OA
HETATM   49  H   UNK     0     154.198 152.406 153.409  0.00  0.00     0.210 HD
ENDBRANCH   3  48
BRANCH   5  50
HETATM   50  O   UNK     0     154.374 157.250 153.519  0.00  0.00    -0.388 OA
HETATM   51  H   UNK     0     154.231 157.515 154.443  0.00  0.00     0.210 HD
ENDBRANCH   5  50
BRANCH   4  52
HETATM   52  O   UNK     0     154.194 154.534 154.648  0.00  0.00    -0.390 OA
HETATM   53  H   UNK     0     153.337 154.232 154.994  0.00  0.00     0.210 HD
ENDBRANCH   4  52
TORSDOF 16
ENDMDL
MODEL 3
REMARK VINA RESULT:      -8.9      2.126      8.473
REMARK  16 active torsions:
REMARK  status: ('A' for Active; 'I' for Inactive)
REMARK    1  A    between atoms: O_2  and  C_22 
REMARK    2  A    between atoms: O_2  and  C_26 
REMARK    3  A    between atoms: O_4  and  C_18 
REMARK    4  A    between atoms: O_5  and  C_19 
REMARK    5  A    between atoms: O_6  and  C_25 
REMARK    6  A    between atoms: O_6  and  C_29 
REMARK    7  A    between atoms: O_7  and  C_20 
REMARK    8  A    between atoms: O_8  and  C_21 
REMARK    9  A    between atoms: O_9  and  C_23 
REMARK   10  A    between atoms: O_10  and  C_24 
REMARK   11  A    between atoms: O_13  and  C_35 
REMARK   12  A    between atoms: O_14  and  C_40 
REMARK   13  A    between atoms: O_15  and  C_41 
REMARK   14  A    between atoms: O_16  and  C_43 
REMARK   15  A    between atoms: C_17  and  C_26 
REMARK   16  A    between atoms: C_30  and  C_33 
ROOT
HETATM    1  O   UNK     0     151.855 155.249 151.409  0.00  0.00    -0.348 OA
HETATM    2  C   UNK     0     152.588 154.024 151.356  0.00  0.00     0.180 C 
HETATM    3  C   UNK     0     153.140 153.686 152.743  0.00  0.00     0.180 C 
HETATM    4  C   UNK     0     153.993 154.834 153.282  0.00  0.00     0.183 C 
HETATM    5  C   UNK     0     153.260 156.171 153.163  0.00  0.00     0.205 C 
HETATM    6  C   UNK     0     152.675 156.361 151.764  0.00  0.00     0.298 C 
ENDROOT
BRANCH   2   7
HETATM    7  C   UNK     0     151.640 152.943 150.846  0.00  0.00     0.205 C 
BRANCH   7   8
HETATM    8  O   UNK     0     152.257 152.257 149.768  0.00  0.00    -0.356 OA
BRANCH   8   9
HETATM    9  C   UNK     0     152.102 152.965 148.543  0.00  0.00     0.291 C 
HETATM   10  O   UNK     0     151.006 152.475 147.764  0.00  0.00    -0.351 OA
HETATM   11  C   UNK     0     151.164 151.126 147.313  0.00  0.00     0.152 C 
HETATM   12  C   UNK     0     152.422 150.978 146.447  0.00  0.00     0.178 C 
HETATM   13  C   UNK     0     149.896 150.760 146.546  0.00  0.00     0.042 C 
HETATM   14  C   UNK     0     153.646 151.493 147.205  0.00  0.00     0.183 C 
HETATM   15  C   UNK     0     153.402 152.904 147.743  0.00  0.00     0.204 C 
BRANCH  12  16
HETATM   16  O   UNK     0     152.644 149.606 146.128  0.00  0.00    -0.390 OA
HETATM   17  H   UNK     0     153.423 149.306 146.625  0.00  0.00     0.210 HD
ENDBRANCH  12  16
BRANCH  14  18
HETATM   18  O   UNK     0     154.773 151.495 146.332  0.00  0.00    -0.390 OA
HETATM   19  H   UNK     0     154.705 150.712 145.758  0.00  0.00     0.210 HD
ENDBRANCH  14  18
BRANCH  15  20
HETATM   20  O   UNK     0     153.289 153.827 146.658  0.00  0.00    -0.388 OA
HETATM   21  H   UNK     0     154.162 153.916 146.239  0.00  0.00     0.210 HD
ENDBRANCH  15  20
ENDBRANCH   8   9
ENDBRANCH   7   8
ENDBRANCH   2   7
BRANCH   6  22
HETATM   22  O   UNK     0     151.891 157.553 151.773  0.00  0.00    -0.311 OA
BRANCH  22  23
HETATM   23  C   UNK     0     152.025 158.258 150.597  0.00  0.00     0.157 A 
HETATM   24  C   UNK     0     151.121 158.205 149.602  0.00  0.00     0.124 A 
HETATM   25  O   UNK     0     151.242 158.875 148.394  0.00  0.00    -0.306 OA
HETATM   26  C   UNK     0     152.344 159.666 148.192  0.00  0.00     0.096 A 
HETATM   27  C   UNK     0     153.350 159.816 149.143  0.00  0.00     0.084 A 
HETATM   28  C   UNK     0     152.432 160.335 146.971  0.00  0.00     0.075 A 
HETATM   29  C   UNK     0     153.235 159.097 150.421  0.00  0.00     0.223 A 
HETATM   30  C   UNK     0     154.452 160.635 148.882  0.00  0.00     0.085 A 
HETATM   31  O   UNK     0     154.090 159.186 151.292  0.00  0.00    -0.284 OA
HETATM   32  C   UNK     0     154.538 161.303 147.659  0.00  0.00     0.074 A 
HETATM   33  C   UNK     0     153.530 161.154 146.706  0.00  0.00     0.071 A 
BRANCH  24  34
HETATM   34  C   UNK     0     149.895 157.393 149.688  0.00  0.00     0.004 A 
HETATM   35  C   UNK     0     149.874 156.102 149.160  0.00  0.00     0.053 A 
HETATM   36  C   UNK     0     148.714 155.332 149.242  0.00  0.00     0.099 A 
HETATM   37  C   UNK     0     147.573 155.854 149.851  0.00  0.00     0.098 A 
HETATM   38  C   UNK     0     147.593 157.145 150.378  0.00  0.00     0.040 A 
HETATM   39  C   UNK     0     148.753 157.914 150.297  0.00  0.00     0.017 A 
BRANCH  36  40
HETATM   40  O   UNK     0     148.706 154.073 148.721  0.00  0.00    -0.358 OA
HETATM   41  H   UNK     0     147.796 153.817 148.501  0.00  0.00     0.217 HD
ENDBRANCH  36  40
BRANCH  37  42
HETATM   42  O   UNK     0     146.434 155.111 149.938  0.00  0.00    -0.358 OA
HETATM   43  H   UNK     0     146.560 154.265 149.482  0.00  0.00     0.217 HD
ENDBRANCH  37  42
ENDBRANCH  24  34
BRANCH  30  44
HETATM   44  O   UNK     0     155.463 160.815 149.776  0.00  0.00    -0.360 OA
HETATM   45  H   UNK     0     155.656 161.764 149.861  0.00  0.00     0.217 HD
ENDBRANCH  30  44
BRANCH  33  46
HETATM   46  O   UNK     0     153.618 161.808 145.516  0.00  0.00    -0.361 OA
HETATM   47  H   UNK     0     154.086 161.242 144.878  0.00  0.00     0.217 HD
ENDBRANCH  33  46
ENDBRANCH  22  23
ENDBRANCH   6  22
BRANCH   3  48
HETATM   48  O   UNK     0     153.937 152.507 152.658  0.00  0.00    -0.390 OA
HETATM   49  H   UNK     0     154.759 152.664 153.154  0.00  0.00     0.210 HD
ENDBRANCH   3  48
BRANCH   5  50
HETATM   50  O   UNK     0     154.175 157.237 153.415  0.00  0.00    -0.388 OA
HETATM   51  H   UNK     0     154.643 157.434 152.586  0.00  0.00     0.210 HD
ENDBRANCH   5  50
BRANCH   4  52
HETATM   52  O   UNK     0     154.274 154.567 154.658  0.00  0.00    -0.390 OA
HETATM   53  H   UNK     0     153.474 154.174 155.047  0.00  0.00     0.210 HD
ENDBRANCH   4  52
TORSDOF 16
ENDMDL
MODEL 4
REMARK VINA RESULT:      -8.8      2.134      8.321
REMARK  16 active torsions:
REMARK  status: ('A' for Active; 'I' for Inactive)
REMARK    1  A    between atoms: O_2  and  C_22 
REMARK    2  A    between atoms: O_2  and  C_26 
REMARK    3  A    between atoms: O_4  and  C_18 
REMARK    4  A    between atoms: O_5  and  C_19 
REMARK    5  A    between atoms: O_6  and  C_25 
REMARK    6  A    between atoms: O_6  and  C_29 
REMARK    7  A    between atoms: O_7  and  C_20 
REMARK    8  A    between atoms: O_8  and  C_21 
REMARK    9  A    between atoms: O_9  and  C_23 
REMARK   10  A    between atoms: O_10  and  C_24 
REMARK   11  A    between atoms: O_13  and  C_35 
REMARK   12  A    between atoms: O_14  and  C_40 
REMARK   13  A    between atoms: O_15  and  C_41 
REMARK   14  A    between atoms: O_16  and  C_43 
REMARK   15  A    between atoms: C_17  and  C_26 
REMARK   16  A    between atoms: C_30  and  C_33 
ROOT
HETATM    1  O   UNK     0     150.648 153.157 149.193  0.00  0.00    -0.348 OA
HETATM    2  C   UNK     0     151.668 152.772 148.269  0.00  0.00     0.180 C 
HETATM    3  C   UNK     0     152.503 151.633 148.859  0.00  0.00     0.180 C 
HETATM    4  C   UNK     0     153.087 152.035 150.214  0.00  0.00     0.183 C 
HETATM    5  C   UNK     0     152.011 152.616 151.130  0.00  0.00     0.205 C 
HETATM    6  C   UNK     0     151.181 153.679 150.408  0.00  0.00     0.298 C 
ENDROOT
BRANCH   2   7
HETATM    7  C   UNK     0     150.979 152.354 146.973  0.00  0.00     0.205 C 
BRANCH   7   8
HETATM    8  O   UNK     0     151.967 151.987 146.021  0.00  0.00    -0.356 OA
BRANCH   8   9
HETATM    9  C   UNK     0     151.407 151.223 144.958  0.00  0.00     0.291 C 
HETATM   10  O   UNK     0     151.456 149.816 145.214  0.00  0.00    -0.351 OA
HETATM   11  C   UNK     0     152.781 149.282 145.304  0.00  0.00     0.152 C 
HETATM   12  C   UNK     0     153.561 149.522 144.004  0.00  0.00     0.178 C 
HETATM   13  C   UNK     0     152.642 147.795 145.620  0.00  0.00     0.042 C 
HETATM   14  C   UNK     0     153.548 151.009 143.650  0.00  0.00     0.183 C 
HETATM   15  C   UNK     0     152.120 151.559 143.650  0.00  0.00     0.204 C 
BRANCH  12  16
HETATM   16  O   UNK     0     154.919 149.115 144.161  0.00  0.00    -0.390 OA
HETATM   17  H   UNK     0     155.431 149.495 143.426  0.00  0.00     0.210 HD
ENDBRANCH  12  16
BRANCH  14  18
HETATM   18  O   UNK     0     154.139 151.192 142.365  0.00  0.00    -0.390 OA
HETATM   19  H   UNK     0     155.086 150.981 142.441  0.00  0.00     0.210 HD
ENDBRANCH  14  18
BRANCH  15  20
HETATM   20  O   UNK     0     151.372 150.973 142.584  0.00  0.00    -0.388 OA
HETATM   21  H   UNK     0     150.560 151.492 142.457  0.00  0.00     0.210 HD
ENDBRANCH  15  20
ENDBRANCH   8   9
ENDBRANCH   7   8
ENDBRANCH   2   7
BRANCH   6  22
HETATM   22  O   UNK     0     150.115 154.067 151.274  0.00  0.00    -0.311 OA
BRANCH  22  23
HETATM   23  C   UNK     0     149.600 155.296 150.924  0.00  0.00     0.157 A 
HETATM   24  C   UNK     0     150.316 156.434 150.974  0.00  0.00     0.124 A 
HETATM   25  O   UNK     0     149.820 157.690 150.660  0.00  0.00    -0.306 OA
HETATM   26  C   UNK     0     148.516 157.794 150.249  0.00  0.00     0.096 A 
HETATM   27  C   UNK     0     147.667 156.694 150.145  0.00  0.00     0.084 A 
HETATM   28  C   UNK     0     148.048 159.070 149.931  0.00  0.00     0.075 A 
HETATM   29  C   UNK     0     148.184 155.361 150.489  0.00  0.00     0.223 A 
HETATM   30  C   UNK     0     146.345 156.860 149.722  0.00  0.00     0.085 A 
HETATM   31  O   UNK     0     147.484 154.360 150.422  0.00  0.00    -0.284 OA
HETATM   32  C   UNK     0     145.880 158.138 149.404  0.00  0.00     0.074 A 
HETATM   33  C   UNK     0     146.730 159.239 149.508  0.00  0.00     0.071 A 
BRANCH  24  34
HETATM   34  C   UNK     0     151.727 156.465 151.399  0.00  0.00     0.004 A 
HETATM   35  C   UNK     0     152.050 156.357 152.752  0.00  0.00     0.053 A 
HETATM   36  C   UNK     0     153.384 156.384 153.156  0.00  0.00     0.099 A 
HETATM   37  C   UNK     0     154.397 156.520 152.206  0.00  0.00     0.098 A 
HETATM   38  C   UNK     0     154.075 156.628 150.854  0.00  0.00     0.040 A 
HETATM   39  C   UNK     0     152.740 156.599 150.450  0.00  0.00     0.017 A 
BRANCH  36  40
HETATM   40  O   UNK     0     153.687 156.281 154.480  0.00  0.00    -0.358 OA
HETATM   41  H   UNK     0     153.318 157.039 154.960  0.00  0.00     0.217 HD
ENDBRANCH  36  40
BRANCH  37  42
HETATM   42  O   UNK     0     155.704 156.547 152.588  0.00  0.00    -0.358 OA
HETATM   43  H   UNK     0     155.943 157.442 152.876  0.00  0.00     0.217 HD
ENDBRANCH  37  42
ENDBRANCH  24  34
BRANCH  30  44
HETATM   44  O   UNK     0     145.476 155.820 149.603  0.00  0.00    -0.360 OA
HETATM   45  H   UNK     0     144.635 156.139 149.231  0.00  0.00     0.217 HD
ENDBRANCH  30  44
BRANCH  33  46
HETATM   46  O   UNK     0     146.271 160.483 149.197  0.00  0.00    -0.361 OA
HETATM   47  H   UNK     0     145.669 160.416 148.437  0.00  0.00     0.217 HD
ENDBRANCH  33  46
ENDBRANCH  22  23
ENDBRANCH   6  22
BRANCH   3  48
HETATM   48  O   UNK     0     153.566 151.316 147.964  0.00  0.00    -0.390 OA
HETATM   49  H   UNK     0     153.754 152.105 147.428  0.00  0.00     0.210 HD
ENDBRANCH   3  48
BRANCH   5  50
HETATM   50  O   UNK     0     152.630 153.225 152.262  0.00  0.00    -0.388 OA
HETATM   51  H   UNK     0     151.929 153.547 152.853  0.00  0.00     0.210 HD
ENDBRANCH   5  50
BRANCH   4  52
HETATM   52  O   UNK     0     153.645 150.866 150.818  0.00  0.00    -0.390 OA
HETATM   53  H   UNK     0     154.551 151.084 151.093  0.00  0.00     0.210 HD
ENDBRANCH   4  52
TORSDOF 16
ENDMDL
MODEL 5
REMARK VINA RESULT:      -8.7      3.556     10.105
REMARK  16 active torsions:
REMARK  status: ('A' for Active; 'I' for Inactive)
REMARK    1  A    between atoms: O_2  and  C_22 
REMARK    2  A    between atoms: O_2  and  C_26 
REMARK    3  A    between atoms: O_4  and  C_18 
REMARK    4  A    between atoms: O_5  and  C_19 
REMARK    5  A    between atoms: O_6  and  C_25 
REMARK    6  A    between atoms: O_6  and  C_29 
REMARK    7  A    between atoms: O_7  and  C_20 
REMARK    8  A    between atoms: O_8  and  C_21 
REMARK    9  A    between atoms: O_9  and  C_23 
REMARK   10  A    between atoms: O_10  and  C_24 
REMARK   11  A    between atoms: O_13  and  C_35 
REMARK   12  A    between atoms: O_14  and  C_40 
REMARK   13  A    between atoms: O_15  and  C_41 
REMARK   14  A    between atoms: O_16  and  C_43 
REMARK   15  A    between atoms: C_17  and  C_26 
REMARK   16  A    between atoms: C_30  and  C_33 
ROOT
HETATM    1  O   UNK     0     150.051 149.583 145.534  0.00  0.00    -0.348 OA
HETATM    2  C   UNK     0     149.114 148.509 145.631  0.00  0.00     0.180 C 
HETATM    3  C   UNK     0     147.974 148.720 144.632  0.00  0.00     0.180 C 
HETATM    4  C   UNK     0     147.306 150.078 144.851  0.00  0.00     0.183 C 
HETATM    5  C   UNK     0     148.342 151.199 144.927  0.00  0.00     0.205 C 
HETATM    6  C   UNK     0     149.478 150.841 145.885  0.00  0.00     0.298 C 
ENDROOT
BRANCH   2   7
HETATM    7  C   UNK     0     149.872 147.213 145.357  0.00  0.00     0.205 C 
BRANCH   7   8
HETATM    8  O   UNK     0     149.742 146.882 143.983  0.00  0.00    -0.356 OA
BRANCH   8   9
HETATM    9  C   UNK     0     150.991 146.970 143.305  0.00  0.00     0.291 C 
HETATM   10  O   UNK     0     150.835 147.124 141.891  0.00  0.00    -0.351 OA
HETATM   11  C   UNK     0     150.220 146.006 141.244  0.00  0.00     0.152 C 
HETATM   12  C   UNK     0     151.038 144.725 141.461  0.00  0.00     0.178 C 
HETATM   13  C   UNK     0     150.095 146.359 139.764  0.00  0.00     0.042 C 
HETATM   14  C   UNK     0     151.262 144.491 142.956  0.00  0.00     0.183 C 
HETATM   15  C   UNK     0     151.839 145.740 143.624  0.00  0.00     0.204 C 
BRANCH  12  16
HETATM   16  O   UNK     0     150.340 143.598 140.936  0.00  0.00    -0.390 OA
HETATM   17  H   UNK     0     150.477 142.852 141.544  0.00  0.00     0.210 HD
ENDBRANCH  12  16
BRANCH  14  18
HETATM   18  O   UNK     0     152.152 143.391 143.131  0.00  0.00    -0.390 OA
HETATM   19  H   UNK     0     152.628 143.259 142.293  0.00  0.00     0.210 HD
ENDBRANCH  14  18
BRANCH  15  20
HETATM   20  O   UNK     0     153.160 145.986 143.140  0.00  0.00    -0.388 OA
HETATM   21  H   UNK     0     153.170 146.853 142.700  0.00  0.00     0.210 HD
ENDBRANCH  15  20
ENDBRANCH   8   9
ENDBRANCH   7   8
ENDBRANCH   2   7
BRANCH   6  22
HETATM   22  O   UNK     0     150.470 151.864 145.794  0.00  0.00    -0.311 OA
BRANCH  22  23
HETATM   23  C   UNK     0     151.232 151.935 146.939  0.00  0.00     0.157 A 
HETATM   24  C   UNK     0     152.449 151.374 147.048  0.00  0.00     0.124 A 
HETATM   25  O   UNK     0     153.227 151.399 148.195  0.00  0.00    -0.306 OA
HETATM   26  C   UNK     0     152.745 152.056 149.298  0.00  0.00     0.096 A 
HETATM   27  C   UNK     0     151.504 152.688 149.318  0.00  0.00     0.084 A 
HETATM   28  C   UNK     0     153.555 152.073 150.434  0.00  0.00     0.075 A 
HETATM   29  C   UNK     0     150.668 152.653 148.108  0.00  0.00     0.223 A 
HETATM   30  C   UNK     0     151.063 153.342 150.472  0.00  0.00     0.085 A 
HETATM   31  O   UNK     0     149.567 153.185 148.068  0.00  0.00    -0.284 OA
HETATM   32  C   UNK     0     151.875 153.357 151.606  0.00  0.00     0.074 A 
HETATM   33  C   UNK     0     153.119 152.725 151.587  0.00  0.00     0.071 A 
BRANCH  24  34
HETATM   34  C   UNK     0     153.083 150.637 145.941  0.00  0.00     0.004 A 
HETATM   35  C   UNK     0     153.342 151.282 144.731  0.00  0.00     0.053 A 
HETATM   36  C   UNK     0     153.944 150.585 143.683  0.00  0.00     0.099 A 
HETATM   37  C   UNK     0     154.286 149.243 143.844  0.00  0.00     0.098 A 
HETATM   38  C   UNK     0     154.027 148.597 145.053  0.00  0.00     0.040 A 
HETATM   39  C   UNK     0     153.426 149.294 146.101  0.00  0.00     0.017 A 
BRANCH  36  40
HETATM   40  O   UNK     0     154.191 151.226 142.506  0.00  0.00    -0.358 OA
HETATM   41  H   UNK     0     153.975 152.168 142.596  0.00  0.00     0.217 HD
ENDBRANCH  36  40
BRANCH  37  42
HETATM   42  O   UNK     0     154.875 148.552 142.828  0.00  0.00    -0.358 OA
HETATM   43  H   UNK     0     154.196 148.107 142.298  0.00  0.00     0.217 HD
ENDBRANCH  37  42
ENDBRANCH  24  34
BRANCH  30  44
HETATM   44  O   UNK     0     149.859 153.973 150.544  0.00  0.00    -0.360 OA
HETATM   45  H   UNK     0     149.969 154.911 150.306  0.00  0.00     0.217 HD
ENDBRANCH  30  44
BRANCH  33  46
HETATM   46  O   UNK     0     153.908 152.743 152.697  0.00  0.00    -0.361 OA
HETATM   47  H   UNK     0     154.332 153.615 152.768  0.00  0.00     0.217 HD
ENDBRANCH  33  46
ENDBRANCH  22  23
ENDBRANCH   6  22
BRANCH   3  48
HETATM   48  O   UNK     0     147.006 147.687 144.797  0.00  0.00    -0.390 OA
HETATM   49  H   UNK     0     146.179 147.980 144.379  0.00  0.00     0.210 HD
ENDBRANCH   3  48
BRANCH   5  50
HETATM   50  O   UNK     0     147.717 152.391 145.400  0.00  0.00    -0.388 OA
HETATM   51  H   UNK     0     148.220 152.712 146.167  0.00  0.00     0.210 HD
ENDBRANCH   5  50
BRANCH   4  52
HETATM   52  O   UNK     0     146.425 150.319 143.752  0.00  0.00    -0.390 OA
HETATM   53  H   UNK     0     146.675 151.173 143.360  0.00  0.00     0.210 HD
ENDBRANCH   4  52
TORSDOF 16
ENDMDL
MODEL 6
REMARK VINA RESULT:      -8.6      2.187      8.472
REMARK  16 active torsions:
REMARK  status: ('A' for Active; 'I' for Inactive)
REMARK    1  A    between atoms: O_2  and  C_22 
REMARK    2  A    between atoms: O_2  and  C_26 
REMARK    3  A    between atoms: O_4  and  C_18 
REMARK    4  A    between atoms: O_5  and  C_19 
REMARK    5  A    between atoms: O_6  and  C_25 
REMARK    6  A    between atoms: O_6  and  C_29 
REMARK    7  A    between atoms: O_7  and  C_20 
REMARK    8  A    between atoms: O_8  and  C_21 
REMARK    9  A    between atoms: O_9  and  C_23 
REMARK   10  A    between atoms: O_10  and  C_24 
REMARK   11  A    between atoms: O_13  and  C_35 
REMARK   12  A    between atoms: O_14  and  C_40 
REMARK   13  A    between atoms: O_15  and  C_41 
REMARK   14  A    between atoms: O_16  and  C_43 
REMARK   15  A    between atoms: C_17  and  C_26 
REMARK   16  A    between atoms: C_30  and  C_33 
ROOT
HETATM    1  O   UNK     0     151.953 155.459 151.424  0.00  0.00    -0.348 OA
HETATM    2  C   UNK     0     152.574 154.174 151.350  0.00  0.00     0.180 C 
HETATM    3  C   UNK     0     153.100 153.768 152.729  0.00  0.00     0.180 C 
HETATM    4  C   UNK     0     154.053 154.828 153.280  0.00  0.00     0.183 C 
HETATM    5  C   UNK     0     153.442 156.226 153.184  0.00  0.00     0.205 C 
HETATM    6  C   UNK     0     152.870 156.488 151.791  0.00  0.00     0.298 C 
ENDROOT
BRANCH   2   7
HETATM    7  C   UNK     0     151.531 153.190 150.831  0.00  0.00     0.205 C 
BRANCH   7   8
HETATM    8  O   UNK     0     152.102 152.420 149.783  0.00  0.00    -0.356 OA
BRANCH   8   9
HETATM    9  C   UNK     0     151.317 152.491 148.597  0.00  0.00     0.291 C 
HETATM   10  O   UNK     0     151.431 151.311 147.796  0.00  0.00    -0.351 OA
HETATM   11  C   UNK     0     152.744 151.081 147.275  0.00  0.00     0.152 C 
HETATM   12  C   UNK     0     153.203 152.255 146.399  0.00  0.00     0.178 C 
HETATM   13  C   UNK     0     152.690 149.771 146.492  0.00  0.00     0.042 C 
HETATM   14  C   UNK     0     153.100 153.565 147.180  0.00  0.00     0.183 C 
HETATM   15  C   UNK     0     151.708 153.729 147.793  0.00  0.00     0.204 C 
BRANCH  12  16
HETATM   16  O   UNK     0     154.562 152.077 146.008  0.00  0.00    -0.390 OA
HETATM   17  H   UNK     0     155.107 152.684 146.538  0.00  0.00     0.210 HD
ENDBRANCH  12  16
BRANCH  14  18
HETATM   18  O   UNK     0     153.378 154.656 146.306  0.00  0.00    -0.390 OA
HETATM   19  H   UNK     0     154.074 154.372 145.688  0.00  0.00     0.210 HD
ENDBRANCH  14  18
BRANCH  15  20
HETATM   20  O   UNK     0     150.737 153.900 146.758  0.00  0.00    -0.388 OA
HETATM   21  H   UNK     0     149.929 153.425 147.015  0.00  0.00     0.210 HD
ENDBRANCH  15  20
ENDBRANCH   8   9
ENDBRANCH   7   8
ENDBRANCH   2   7
BRANCH   6  22
HETATM   22  O   UNK     0     152.195 157.745 151.821  0.00  0.00    -0.311 OA
BRANCH  22  23
HETATM   23  C   UNK     0     152.454 158.487 150.690  0.00  0.00     0.157 A 
HETATM   24  C   UNK     0     151.566 158.636 149.690  0.00  0.00     0.124 A 
HETATM   25  O   UNK     0     151.806 159.348 148.525  0.00  0.00    -0.306 OA
HETATM   26  C   UNK     0     153.021 159.966 148.374  0.00  0.00     0.096 A 
HETATM   27  C   UNK     0     154.026 159.899 149.336  0.00  0.00     0.084 A 
HETATM   28  C   UNK     0     153.229 160.683 147.196  0.00  0.00     0.075 A 
HETATM   29  C   UNK     0     153.782 159.134 150.569  0.00  0.00     0.223 A 
HETATM   30  C   UNK     0     155.246 160.548 149.128  0.00  0.00     0.085 A 
HETATM   31  O   UNK     0     154.630 159.036 151.446  0.00  0.00    -0.284 OA
HETATM   32  C   UNK     0     155.452 161.265 147.948  0.00  0.00     0.074 A 
HETATM   33  C   UNK     0     154.445 161.333 146.985  0.00  0.00     0.071 A 
BRANCH  24  34
HETATM   34  C   UNK     0     150.226 158.024 149.723  0.00  0.00     0.004 A 
HETATM   35  C   UNK     0     150.001 156.803 149.087  0.00  0.00     0.053 A 
HETATM   36  C   UNK     0     148.734 156.222 149.119  0.00  0.00     0.099 A 
HETATM   37  C   UNK     0     147.690 156.863 149.786  0.00  0.00     0.098 A 
HETATM   38  C   UNK     0     147.914 158.085 150.421  0.00  0.00     0.040 A 
HETATM   39  C   UNK     0     149.181 158.664 150.390  0.00  0.00     0.017 A 
BRANCH  36  40
HETATM   40  O   UNK     0     148.526 155.029 148.493  0.00  0.00    -0.358 OA
HETATM   41  H   UNK     0     147.955 154.467 149.042  0.00  0.00     0.217 HD
ENDBRANCH  36  40
BRANCH  37  42
HETATM   42  O   UNK     0     146.447 156.305 149.824  0.00  0.00    -0.358 OA
HETATM   43  H   UNK     0     146.241 155.906 148.965  0.00  0.00     0.217 HD
ENDBRANCH  37  42
ENDBRANCH  24  34
BRANCH  30  44
HETATM   44  O   UNK     0     156.261 160.514 150.035  0.00  0.00    -0.360 OA
HETATM   45  H   UNK     0     155.908 160.688 150.925  0.00  0.00     0.217 HD
ENDBRANCH  30  44
BRANCH  33  46
HETATM   46  O   UNK     0     154.650 162.033 145.835  0.00  0.00    -0.361 OA
HETATM   47  H   UNK     0     154.646 161.415 145.084  0.00  0.00     0.217 HD
ENDBRANCH  33  46
ENDBRANCH  22  23
ENDBRANCH   6  22
BRANCH   3  48
HETATM   48  O   UNK     0     153.788 152.525 152.623  0.00  0.00    -0.390 OA
HETATM   49  H   UNK     0     153.735 152.229 151.699  0.00  0.00     0.210 HD
ENDBRANCH   3  48
BRANCH   5  50
HETATM   50  O   UNK     0     154.449 157.203 153.445  0.00  0.00    -0.388 OA
HETATM   51  H   UNK     0     155.003 157.285 152.651  0.00  0.00     0.210 HD
ENDBRANCH   5  50
BRANCH   4  52
HETATM   52  O   UNK     0     154.315 154.517 154.650  0.00  0.00    -0.390 OA
HETATM   53  H   UNK     0     154.480 153.561 154.705  0.00  0.00     0.210 HD
ENDBRANCH   4  52
TORSDOF 16
ENDMDL
MODEL 7
REMARK VINA RESULT:      -8.6      1.726      2.398
REMARK  16 active torsions:
REMARK  status: ('A' for Active; 'I' for Inactive)
REMARK    1  A    between atoms: O_2  and  C_22 
REMARK    2  A    between atoms: O_2  and  C_26 
REMARK    3  A    between atoms: O_4  and  C_18 
REMARK    4  A    between atoms: O_5  and  C_19 
REMARK    5  A    between atoms: O_6  and  C_25 
REMARK    6  A    between atoms: O_6  and  C_29 
REMARK    7  A    between atoms: O_7  and  C_20 
REMARK    8  A    between atoms: O_8  and  C_21 
REMARK    9  A    between atoms: O_9  and  C_23 
REMARK   10  A    between atoms: O_10  and  C_24 
REMARK   11  A    between atoms: O_13  and  C_35 
REMARK   12  A    between atoms: O_14  and  C_40 
REMARK   13  A    between atoms: O_15  and  C_41 
REMARK   14  A    between atoms: O_16  and  C_43 
REMARK   15  A    between atoms: C_17  and  C_26 
REMARK   16  A    between atoms: C_30  and  C_33 
ROOT
HETATM    1  O   UNK     0     150.873 155.408 149.996  0.00  0.00    -0.348 OA
HETATM    2  C   UNK     0     150.489 156.783 149.925  0.00  0.00     0.180 C 
HETATM    3  C   UNK     0     149.044 156.946 150.404  0.00  0.00     0.180 C 
HETATM    4  C   UNK     0     148.101 156.050 149.600  0.00  0.00     0.183 C 
HETATM    5  C   UNK     0     148.624 154.615 149.533  0.00  0.00     0.205 C 
HETATM    6  C   UNK     0     150.099 154.579 149.133  0.00  0.00     0.298 C 
ENDROOT
BRANCH   2   7
HETATM    7  C   UNK     0     151.464 157.577 150.788  0.00  0.00     0.205 C 
BRANCH   7   8
HETATM    8  O   UNK     0     152.744 157.559 150.176  0.00  0.00    -0.356 OA
BRANCH   8   9
HETATM    9  C   UNK     0     153.024 158.790 149.516  0.00  0.00     0.291 C 
HETATM   10  O   UNK     0     153.380 158.604 148.143  0.00  0.00    -0.351 OA
HETATM   11  C   UNK     0     154.595 157.875 147.946  0.00  0.00     0.152 C 
HETATM   12  C   UNK     0     155.779 158.585 148.617  0.00  0.00     0.178 C 
HETATM   13  C   UNK     0     154.793 157.736 146.438  0.00  0.00     0.042 C 
HETATM   14  C   UNK     0     155.474 158.833 150.094  0.00  0.00     0.183 C 
HETATM   15  C   UNK     0     154.127 159.537 150.264  0.00  0.00     0.204 C 
BRANCH  12  16
HETATM   16  O   UNK     0     156.951 157.775 148.536  0.00  0.00    -0.390 OA
HETATM   17  H   UNK     0     157.689 158.281 148.915  0.00  0.00     0.210 HD
ENDBRANCH  12  16
BRANCH  14  18
HETATM   18  O   UNK     0     156.513 159.629 150.661  0.00  0.00    -0.390 OA
HETATM   19  H   UNK     0     156.419 159.594 151.629  0.00  0.00     0.210 HD
ENDBRANCH  14  18
BRANCH  15  20
HETATM   20  O   UNK     0     154.197 160.859 149.727  0.00  0.00    -0.388 OA
HETATM   21  H   UNK     0     154.710 161.413 150.341  0.00  0.00     0.210 HD
ENDBRANCH  15  20
ENDBRANCH   8   9
ENDBRANCH   7   8
ENDBRANCH   2   7
BRANCH   6  22
HETATM   22  O   UNK     0     150.549 153.228 149.232  0.00  0.00    -0.311 OA
BRANCH  22  23
HETATM   23  C   UNK     0     151.332 152.874 148.155  0.00  0.00     0.157 A 
HETATM   24  C   UNK     0     152.675 152.945 148.169  0.00  0.00     0.124 A 
HETATM   25  O   UNK     0     153.491 152.628 147.094  0.00  0.00    -0.306 OA
HETATM   26  C   UNK     0     152.904 152.191 145.934  0.00  0.00     0.096 A 
HETATM   27  C   UNK     0     151.524 152.064 145.788  0.00  0.00     0.084 A 
HETATM   28  C   UNK     0     153.751 151.870 144.873  0.00  0.00     0.075 A 
HETATM   29  C   UNK     0     150.653 152.411 146.921  0.00  0.00     0.223 A 
HETATM   30  C   UNK     0     150.981 151.615 144.581  0.00  0.00     0.085 A 
HETATM   31  O   UNK     0     149.434 152.325 146.849  0.00  0.00    -0.284 OA
HETATM   32  C   UNK     0     151.831 151.294 143.521  0.00  0.00     0.074 A 
HETATM   33  C   UNK     0     153.213 151.421 143.667  0.00  0.00     0.071 A 
BRANCH  24  34
HETATM   34  C   UNK     0     153.432 153.400 149.349  0.00  0.00     0.004 A 
HETATM   35  C   UNK     0     153.283 152.742 150.570  0.00  0.00     0.053 A 
HETATM   36  C   UNK     0     154.000 153.170 151.687  0.00  0.00     0.099 A 
HETATM   37  C   UNK     0     154.867 154.258 151.583  0.00  0.00     0.098 A 
HETATM   38  C   UNK     0     155.016 154.917 150.362  0.00  0.00     0.040 A 
HETATM   39  C   UNK     0     154.299 154.487 149.246  0.00  0.00     0.017 A 
BRANCH  36  40
HETATM   40  O   UNK     0     153.844 152.521 152.874  0.00  0.00    -0.358 OA
HETATM   41  H   UNK     0     152.913 152.554 153.145  0.00  0.00     0.217 HD
ENDBRANCH  36  40
BRANCH  37  42
HETATM   42  O   UNK     0     155.573 154.686 152.666  0.00  0.00    -0.358 OA
HETATM   43  H   UNK     0     155.870 155.599 152.524  0.00  0.00     0.217 HD
ENDBRANCH  37  42
ENDBRANCH  24  34
BRANCH  30  44
HETATM   44  O   UNK     0     149.641 151.473 144.386  0.00  0.00    -0.360 OA
HETATM   45  H   UNK     0     149.306 150.751 144.945  0.00  0.00     0.217 HD
ENDBRANCH  30  44
BRANCH  33  46
HETATM   46  O   UNK     0     154.038 151.108 142.631  0.00  0.00    -0.361 OA
HETATM   47  H   UNK     0     154.957 151.108 142.947  0.00  0.00     0.217 HD
ENDBRANCH  33  46
ENDBRANCH  22  23
ENDBRANCH   6  22
BRANCH   3  48
HETATM   48  O   UNK     0     148.647 158.306 150.249  0.00  0.00    -0.390 OA
HETATM   49  H   UNK     0     148.021 158.520 150.961  0.00  0.00     0.210 HD
ENDBRANCH   3  48
BRANCH   5  50
HETATM   50  O   UNK     0     147.878 153.883 148.562  0.00  0.00    -0.388 OA
HETATM   51  H   UNK     0     148.423 153.801 147.762  0.00  0.00     0.210 HD
ENDBRANCH   5  50
BRANCH   4  52
HETATM   52  O   UNK     0     146.826 156.062 150.244  0.00  0.00    -0.390 OA
HETATM   53  H   UNK     0     146.619 155.146 150.497  0.00  0.00     0.210 HD
ENDBRANCH   4  52
TORSDOF 16
ENDMDL
MODEL 8
REMARK VINA RESULT:      -8.6      3.586      6.564
REMARK  16 active torsions:
REMARK  status: ('A' for Active; 'I' for Inactive)
REMARK    1  A    between atoms: O_2  and  C_22 
REMARK    2  A    between atoms: O_2  and  C_26 
REMARK    3  A    between atoms: O_4  and  C_18 
REMARK    4  A    between atoms: O_5  and  C_19 
REMARK    5  A    between atoms: O_6  and  C_25 
REMARK    6  A    between atoms: O_6  and  C_29 
REMARK    7  A    between atoms: O_7  and  C_20 
REMARK    8  A    between atoms: O_8  and  C_21 
REMARK    9  A    between atoms: O_9  and  C_23 
REMARK   10  A    between atoms: O_10  and  C_24 
REMARK   11  A    between atoms: O_13  and  C_35 
REMARK   12  A    between atoms: O_14  and  C_40 
REMARK   13  A    between atoms: O_15  and  C_41 
REMARK   14  A    between atoms: O_16  and  C_43 
REMARK   15  A    between atoms: C_17  and  C_26 
REMARK   16  A    between atoms: C_30  and  C_33 
ROOT
HETATM    1  O   UNK     0     152.719 156.858 150.817  0.00  0.00    -0.348 OA
HETATM    2  C   UNK     0     153.130 157.004 152.177  0.00  0.00     0.180 C 
HETATM    3  C   UNK     0     153.555 155.646 152.743  0.00  0.00     0.180 C 
HETATM    4  C   UNK     0     152.430 154.621 152.596  0.00  0.00     0.183 C 
HETATM    5  C   UNK     0     151.876 154.607 151.171  0.00  0.00     0.205 C 
HETATM    6  C   UNK     0     151.572 156.022 150.679  0.00  0.00     0.298 C 
ENDROOT
BRANCH   2   7
HETATM    7  C   UNK     0     154.275 158.011 152.205  0.00  0.00     0.205 C 
BRANCH   7   8
HETATM    8  O   UNK     0     154.299 158.717 150.974  0.00  0.00    -0.356 OA
BRANCH   8   9
HETATM    9  C   UNK     0     155.591 158.678 150.377  0.00  0.00     0.291 C 
HETATM   10  O   UNK     0     156.107 159.985 150.106  0.00  0.00    -0.351 OA
HETATM   11  C   UNK     0     155.352 160.725 149.141  0.00  0.00     0.152 C 
HETATM   12  C   UNK     0     155.298 159.985 147.797  0.00  0.00     0.178 C 
HETATM   13  C   UNK     0     156.014 162.095 149.012  0.00  0.00     0.042 C 
HETATM   14  C   UNK     0     154.765 158.566 148.000  0.00  0.00     0.183 C 
HETATM   15  C   UNK     0     155.544 157.841 149.100  0.00  0.00     0.204 C 
BRANCH  12  16
HETATM   16  O   UNK     0     154.425 160.661 146.895  0.00  0.00    -0.390 OA
HETATM   17  H   UNK     0     154.560 161.617 147.009  0.00  0.00     0.210 HD
ENDBRANCH  12  16
BRANCH  14  18
HETATM   18  O   UNK     0     154.870 157.845 146.775  0.00  0.00    -0.390 OA
HETATM   19  H   UNK     0     154.281 157.073 146.833  0.00  0.00     0.210 HD
ENDBRANCH  14  18
BRANCH  15  20
HETATM   20  O   UNK     0     156.890 157.617 148.676  0.00  0.00    -0.388 OA
HETATM   21  H   UNK     0     157.093 156.672 148.785  0.00  0.00     0.210 HD
ENDBRANCH  15  20
ENDBRANCH   8   9
ENDBRANCH   7   8
ENDBRANCH   2   7
BRANCH   6  22
HETATM   22  O   UNK     0     151.198 155.939 149.304  0.00  0.00    -0.311 OA
BRANCH  22  23
HETATM   23  C   UNK     0     149.866 156.236 149.121  0.00  0.00     0.157 A 
HETATM   24  C   UNK     0     149.352 157.462 149.329  0.00  0.00     0.124 A 
HETATM   25  O   UNK     0     148.012 157.787 149.185  0.00  0.00    -0.306 OA
HETATM   26  C   UNK     0     147.140 156.807 148.786  0.00  0.00     0.096 A 
HETATM   27  C   UNK     0     147.542 155.498 148.529  0.00  0.00     0.084 A 
HETATM   28  C   UNK     0     145.800 157.168 148.641  0.00  0.00     0.075 A 
HETATM   29  C   UNK     0     148.960 155.144 148.692  0.00  0.00     0.223 A 
HETATM   30  C   UNK     0     146.608 154.540 148.125  0.00  0.00     0.085 A 
HETATM   31  O   UNK     0     149.370 154.009 148.486  0.00  0.00    -0.284 OA
HETATM   32  C   UNK     0     145.268 154.903 147.981  0.00  0.00     0.074 A 
HETATM   33  C   UNK     0     144.865 156.214 148.237  0.00  0.00     0.071 A 
BRANCH  24  34
HETATM   34  C   UNK     0     150.176 158.604 149.762  0.00  0.00     0.004 A 
HETATM   35  C   UNK     0     150.159 159.010 151.097  0.00  0.00     0.053 A 
HETATM   36  C   UNK     0     150.940 160.090 151.508  0.00  0.00     0.099 A 
HETATM   37  C   UNK     0     151.739 160.765 150.584  0.00  0.00     0.098 A 
HETATM   38  C   UNK     0     151.756 160.359 149.250  0.00  0.00     0.040 A 
HETATM   39  C   UNK     0     150.975 159.279 148.839  0.00  0.00     0.017 A 
BRANCH  36  40
HETATM   40  O   UNK     0     150.914 160.479 152.814  0.00  0.00    -0.358 OA
HETATM   41  H   UNK     0     150.443 161.324 152.893  0.00  0.00     0.217 HD
ENDBRANCH  36  40
BRANCH  37  42
HETATM   42  O   UNK     0     152.506 161.820 150.974  0.00  0.00    -0.358 OA
HETATM   43  H   UNK     0     152.106 162.648 150.664  0.00  0.00     0.217 HD
ENDBRANCH  37  42
ENDBRANCH  24  34
BRANCH  30  44
HETATM   44  O   UNK     0     146.948 153.248 147.862  0.00  0.00    -0.360 OA
HETATM   45  H   UNK     0     146.802 152.706 148.657  0.00  0.00     0.217 HD
ENDBRANCH  30  44
BRANCH  33  46
HETATM   46  O   UNK     0     143.557 156.563 148.096  0.00  0.00    -0.361 OA
HETATM   47  H   UNK     0     143.001 155.785 148.272  0.00  0.00     0.217 HD
ENDBRANCH  33  46
ENDBRANCH  22  23
ENDBRANCH   6  22
BRANCH   3  48
HETATM   48  O   UNK     0     153.882 155.792 154.122  0.00  0.00    -0.390 OA
HETATM   49  H   UNK     0     154.804 155.510 154.244  0.00  0.00     0.210 HD
ENDBRANCH   3  48
BRANCH   5  50
HETATM   50  O   UNK     0     150.665 153.852 151.141  0.00  0.00    -0.388 OA
HETATM   51  H   UNK     0     150.439 153.683 150.211  0.00  0.00     0.210 HD
ENDBRANCH   5  50
BRANCH   4  52
HETATM   52  O   UNK     0     152.962 153.333 152.912  0.00  0.00    -0.390 OA
HETATM   53  H   UNK     0     152.333 152.669 152.583  0.00  0.00     0.210 HD
ENDBRANCH   4  52
TORSDOF 16
ENDMDL
MODEL 9
REMARK VINA RESULT:      -8.6      1.495      2.083
REMARK  16 active torsions:
REMARK  status: ('A' for Active; 'I' for Inactive)
REMARK    1  A    between atoms: O_2  and  C_22 
REMARK    2  A    between atoms: O_2  and  C_26 
REMARK    3  A    between atoms: O_4  and  C_18 
REMARK    4  A    between atoms: O_5  and  C_19 
REMARK    5  A    between atoms: O_6  and  C_25 
REMARK    6  A    between atoms: O_6  and  C_29 
REMARK    7  A    between atoms: O_7  and  C_20 
REMARK    8  A    between atoms: O_8  and  C_21 
REMARK    9  A    between atoms: O_9  and  C_23 
REMARK   10  A    between atoms: O_10  and  C_24 
REMARK   11  A    between atoms: O_13  and  C_35 
REMARK   12  A    between atoms: O_14  and  C_40 
REMARK   13  A    between atoms: O_15  and  C_41 
REMARK   14  A    between atoms: O_16  and  C_43 
REMARK   15  A    between atoms: C_17  and  C_26 
REMARK   16  A    between atoms: C_30  and  C_33 
ROOT
HETATM    1  O   UNK     0     150.862 155.638 150.319  0.00  0.00    -0.348 OA
HETATM    2  C   UNK     0     150.599 157.011 150.025  0.00  0.00     0.180 C 
HETATM    3  C   UNK     0     149.117 157.319 150.254  0.00  0.00     0.180 C 
HETATM    4  C   UNK     0     148.234 156.383 149.429  0.00  0.00     0.183 C 
HETATM    5  C   UNK     0     148.649 154.923 149.617  0.00  0.00     0.205 C 
HETATM    6  C   UNK     0     150.159 154.749 149.453  0.00  0.00     0.298 C 
ENDROOT
BRANCH   2   7
HETATM    7  C   UNK     0     151.497 157.853 150.926  0.00  0.00     0.205 C 
BRANCH   7   8
HETATM    8  O   UNK     0     152.378 158.618 150.115  0.00  0.00    -0.356 OA
BRANCH   8   9
HETATM    9  C   UNK     0     153.529 159.031 150.844  0.00  0.00     0.291 C 
HETATM   10  O   UNK     0     153.989 160.327 150.448  0.00  0.00    -0.351 OA
HETATM   11  C   UNK     0     154.449 160.397 149.094  0.00  0.00     0.152 C 
HETATM   12  C   UNK     0     155.611 159.424 148.855  0.00  0.00     0.178 C 
HETATM   13  C   UNK     0     154.855 161.846 148.836  0.00  0.00     0.042 C 
HETATM   14  C   UNK     0     155.205 158.009 149.267  0.00  0.00     0.183 C 
HETATM   15  C   UNK     0     154.639 157.993 150.689  0.00  0.00     0.204 C 
BRANCH  12  16
HETATM   16  O   UNK     0     155.960 159.401 147.473  0.00  0.00    -0.390 OA
HETATM   17  H   UNK     0     155.142 159.283 146.961  0.00  0.00     0.210 HD
ENDBRANCH  12  16
BRANCH  14  18
HETATM   18  O   UNK     0     156.341 157.151 149.188  0.00  0.00    -0.390 OA
HETATM   19  H   UNK     0     156.084 156.364 148.677  0.00  0.00     0.210 HD
ENDBRANCH  14  18
BRANCH  15  20
HETATM   20  O   UNK     0     155.668 158.313 151.626  0.00  0.00    -0.388 OA
HETATM   21  H   UNK     0     156.526 158.077 151.233  0.00  0.00     0.210 HD
ENDBRANCH  15  20
ENDBRANCH   8   9
ENDBRANCH   7   8
ENDBRANCH   2   7
BRANCH   6  22
HETATM   22  O   UNK     0     150.484 153.399 149.782  0.00  0.00    -0.311 OA
BRANCH  22  23
HETATM   23  C   UNK     0     151.387 152.863 148.890  0.00  0.00     0.157 A 
HETATM   24  C   UNK     0     152.711 152.820 149.122  0.00  0.00     0.124 A 
HETATM   25  O   UNK     0     153.650 152.318 148.233  0.00  0.00    -0.306 OA
HETATM   26  C   UNK     0     153.211 151.809 147.038  0.00  0.00     0.096 A 
HETATM   27  C   UNK     0     151.866 151.784 146.675  0.00  0.00     0.084 A 
HETATM   28  C   UNK     0     154.178 151.302 146.168  0.00  0.00     0.075 A 
HETATM   29  C   UNK     0     150.867 152.328 147.609  0.00  0.00     0.223 A 
HETATM   30  C   UNK     0     151.477 151.254 145.442  0.00  0.00     0.085 A 
HETATM   31  O   UNK     0     149.673 152.338 147.342  0.00  0.00    -0.284 OA
HETATM   32  C   UNK     0     152.446 150.747 144.575  0.00  0.00     0.074 A 
HETATM   33  C   UNK     0     153.793 150.771 144.937  0.00  0.00     0.071 A 
BRANCH  24  34
HETATM   34  C   UNK     0     153.315 153.335 150.363  0.00  0.00     0.004 A 
HETATM   35  C   UNK     0     154.507 154.059 150.312  0.00  0.00     0.053 A 
HETATM   36  C   UNK     0     155.078 154.549 151.486  0.00  0.00     0.099 A 
HETATM   37  C   UNK     0     154.459 154.313 152.713  0.00  0.00     0.098 A 
HETATM   38  C   UNK     0     153.268 153.588 152.766  0.00  0.00     0.040 A 
HETATM   39  C   UNK     0     152.697 153.100 151.591  0.00  0.00     0.017 A 
BRANCH  36  40
HETATM   40  O   UNK     0     156.243 155.253 151.423  0.00  0.00    -0.358 OA
HETATM   41  H   UNK     0     156.059 156.199 151.538  0.00  0.00     0.217 HD
ENDBRANCH  36  40
BRANCH  37  42
HETATM   42  O   UNK     0     155.007 154.785 153.867  0.00  0.00    -0.358 OA
HETATM   43  H   UNK     0     155.072 155.753 153.826  0.00  0.00     0.217 HD
ENDBRANCH  37  42
ENDBRANCH  24  34
BRANCH  30  44
HETATM   44  O   UNK     0     150.177 151.207 145.040  0.00  0.00    -0.360 OA
HETATM   45  H   UNK     0     149.594 151.353 145.805  0.00  0.00     0.217 HD
ENDBRANCH  30  44
BRANCH  33  46
HETATM   46  O   UNK     0     154.734 150.276 144.087  0.00  0.00    -0.361 OA
HETATM   47  H   UNK     0     155.586 150.707 144.274  0.00  0.00     0.217 HD
ENDBRANCH  33  46
ENDBRANCH  22  23
ENDBRANCH   6  22
BRANCH   3  48
HETATM   48  O   UNK     0     148.853 158.668 149.878  0.00  0.00    -0.390 OA
HETATM   49  H   UNK     0     148.883 159.216 150.680  0.00  0.00     0.210 HD
ENDBRANCH   3  48
BRANCH   5  50
HETATM   50  O   UNK     0     147.997 154.116 148.637  0.00  0.00    -0.388 OA
HETATM   51  H   UNK     0     147.129 153.856 148.990  0.00  0.00     0.210 HD
ENDBRANCH   5  50
BRANCH   4  52
HETATM   52  O   UNK     0     146.884 156.553 149.864  0.00  0.00    -0.390 OA
HETATM   53  H   UNK     0     146.767 156.019 150.668  0.00  0.00     0.210 HD
ENDBRANCH   4  52
TORSDOF 16
ENDMDL
MODEL 10
REMARK VINA RESULT:      -8.5      3.737      6.462
REMARK  16 active torsions:
REMARK  status: ('A' for Active; 'I' for Inactive)
REMARK    1  A    between atoms: O_2  and  C_22 
REMARK    2  A    between atoms: O_2  and  C_26 
REMARK    3  A    between atoms: O_4  and  C_18 
REMARK    4  A    between atoms: O_5  and  C_19 
REMARK    5  A    between atoms: O_6  and  C_25 
REMARK    6  A    between atoms: O_6  and  C_29 
REMARK    7  A    between atoms: O_7  and  C_20 
REMARK    8  A    between atoms: O_8  and  C_21 
REMARK    9  A    between atoms: O_9  and  C_23 
REMARK   10  A    between atoms: O_10  and  C_24 
REMARK   11  A    between atoms: O_13  and  C_35 
REMARK   12  A    between atoms: O_14  and  C_40 
REMARK   13  A    between atoms: O_15  and  C_41 
REMARK   14  A    between atoms: O_16  and  C_43 
REMARK   15  A    between atoms: C_17  and  C_26 
REMARK   16  A    between atoms: C_30  and  C_33 
ROOT
HETATM    1  O   UNK     0     151.000 159.744 149.251  0.00  0.00    -0.348 OA
HETATM    2  C   UNK     0     150.921 160.168 147.889  0.00  0.00     0.180 C 
HETATM    3  C   UNK     0     149.665 161.018 147.678  0.00  0.00     0.180 C 
HETATM    4  C   UNK     0     148.413 160.252 148.108  0.00  0.00     0.183 C 
HETATM    5  C   UNK     0     148.585 159.648 149.502  0.00  0.00     0.205 C 
HETATM    6  C   UNK     0     149.913 158.900 149.624  0.00  0.00     0.298 C 
ENDROOT
BRANCH   2   7
HETATM    7  C   UNK     0     152.192 160.952 147.578  0.00  0.00     0.205 C 
BRANCH   7   8
HETATM    8  O   UNK     0     153.179 160.636 148.548  0.00  0.00    -0.356 OA
BRANCH   8   9
HETATM    9  C   UNK     0     154.489 160.930 148.074  0.00  0.00     0.291 C 
HETATM   10  O   UNK     0     154.944 159.981 147.104  0.00  0.00    -0.351 OA
HETATM   11  C   UNK     0     155.099 158.652 147.613  0.00  0.00     0.152 C 
HETATM   12  C   UNK     0     156.107 158.619 148.770  0.00  0.00     0.178 C 
HETATM   13  C   UNK     0     155.543 157.776 146.444  0.00  0.00     0.042 C 
HETATM   14  C   UNK     0     155.699 159.620 149.851  0.00  0.00     0.183 C 
HETATM   15  C   UNK     0     155.459 161.007 149.251  0.00  0.00     0.204 C 
BRANCH  12  16
HETATM   16  O   UNK     0     156.142 157.321 149.358  0.00  0.00    -0.390 OA
HETATM   17  H   UNK     0     155.402 156.807 148.991  0.00  0.00     0.210 HD
ENDBRANCH  12  16
BRANCH  14  18
HETATM   18  O   UNK     0     156.725 159.689 150.839  0.00  0.00    -0.390 OA
HETATM   19  H   UNK     0     157.533 160.015 150.405  0.00  0.00     0.210 HD
ENDBRANCH  14  18
BRANCH  15  20
HETATM   20  O   UNK     0     156.689 161.547 148.766  0.00  0.00    -0.388 OA
HETATM   21  H   UNK     0     157.423 161.070 149.191  0.00  0.00     0.210 HD
ENDBRANCH  15  20
ENDBRANCH   8   9
ENDBRANCH   7   8
ENDBRANCH   2   7
BRANCH   6  22
HETATM   22  O   UNK     0     150.064 158.492 150.983  0.00  0.00    -0.311 OA
BRANCH  22  23
HETATM   23  C   UNK     0     150.986 157.476 151.108  0.00  0.00     0.157 A 
HETATM   24  C   UNK     0     150.740 156.209 150.727  0.00  0.00     0.124 A 
HETATM   25  O   UNK     0     151.632 155.157 150.868  0.00  0.00    -0.306 OA
HETATM   26  C   UNK     0     152.863 155.413 151.414  0.00  0.00     0.096 A 
HETATM   27  C   UNK     0     153.251 156.681 151.842  0.00  0.00     0.084 A 
HETATM   28  C   UNK     0     153.743 154.337 151.534  0.00  0.00     0.075 A 
HETATM   29  C   UNK     0     152.303 157.799 151.707  0.00  0.00     0.223 A 
HETATM   30  C   UNK     0     154.519 156.883 152.393  0.00  0.00     0.085 A 
HETATM   31  O   UNK     0     152.586 158.932 152.071  0.00  0.00    -0.284 OA
HETATM   32  C   UNK     0     155.397 155.805 152.511  0.00  0.00     0.074 A 
HETATM   33  C   UNK     0     155.010 154.535 152.082  0.00  0.00     0.071 A 
BRANCH  24  34
HETATM   34  C   UNK     0     149.457 155.797 150.129  0.00  0.00     0.004 A 
HETATM   35  C   UNK     0     149.347 155.650 148.746  0.00  0.00     0.053 A 
HETATM   36  C   UNK     0     148.135 155.258 148.180  0.00  0.00     0.099 A 
HETATM   37  C   UNK     0     147.030 155.015 148.996  0.00  0.00     0.098 A 
HETATM   38  C   UNK     0     147.139 155.164 150.379  0.00  0.00     0.040 A 
HETATM   39  C   UNK     0     148.352 155.554 150.945  0.00  0.00     0.017 A 
BRANCH  36  40
HETATM   40  O   UNK     0     148.040 155.119 146.827  0.00  0.00    -0.358 OA
HETATM   41  H   UNK     0     147.981 154.177 146.599  0.00  0.00     0.217 HD
ENDBRANCH  36  40
BRANCH  37  42
HETATM   42  O   UNK     0     145.840 154.632 148.454  0.00  0.00    -0.358 OA
HETATM   43  H   UNK     0     145.162 154.597 149.147  0.00  0.00     0.217 HD
ENDBRANCH  37  42
ENDBRANCH  24  34
BRANCH  30  44
HETATM   44  O   UNK     0     154.947 158.101 152.826  0.00  0.00    -0.360 OA
HETATM   45  H   UNK     0     154.333 158.439 153.502  0.00  0.00     0.217 HD
ENDBRANCH  30  44
BRANCH  33  46
HETATM   46  O   UNK     0     155.870 153.486 152.200  0.00  0.00    -0.361 OA
HETATM   47  H   UNK     0     156.710 153.806 152.572  0.00  0.00     0.217 HD
ENDBRANCH  33  46
ENDBRANCH  22  23
ENDBRANCH   6  22
BRANCH   3  48
HETATM   48  O   UNK     0     149.555 161.363 146.300  0.00  0.00    -0.390 OA
HETATM   49  H   UNK     0     150.313 160.974 145.831  0.00  0.00     0.210 HD
ENDBRANCH   3  48
BRANCH   5  50
HETATM   50  O   UNK     0     147.526 158.725 149.753  0.00  0.00    -0.388 OA
HETATM   51  H   UNK     0     147.105 158.511 148.903  0.00  0.00     0.210 HD
ENDBRANCH   5  50
BRANCH   4  52
HETATM   52  O   UNK     0     147.317 161.168 148.118  0.00  0.00    -0.390 OA
HETATM   53  H   UNK     0     147.552 161.896 148.719  0.00  0.00     0.210 HD
ENDBRANCH   4  52
TORSDOF 16
ENDMDL
