REMARK  Name = 5316673
REMARK  10 active torsions:
REMARK  status: ('A' for Active; 'I' for Inactive)
REMARK    1  A    between atoms: O_2  and  C_15
REMARK    2  A    between atoms: O_2  and  C_17
REMARK    3  A    between atoms: O_3  and  C_11
REMARK    4  A    between atoms: O_4  and  C_12
REMARK    5  A    between atoms: O_5  and  C_13
REMARK    6  A    between atoms: O_8  and  C_23
REMARK    7  A    between atoms: O_9  and  C_28
REMARK    8  A    between atoms: O_10  and  C_31
REMARK    9  A    between atoms: C_14  and  C_16
REMARK   10  A    between atoms: C_18  and  C_22
REMARK                            x       y       z     vdW  Elec       q    Type
REMARK                         _______ _______ _______ _____ _____    ______ ____
ROOT
ATOM      1  O   UNL     1      -2.105  -1.540   0.043  0.00  0.00    +0.000 OA
ATOM      2  O   UNL     1      -1.058   2.347  -0.594  0.00  0.00    +0.000 OA
ATOM      3  C   UNL     1      -0.370   0.091  -0.378  0.00  0.00    +0.000 A 
ATOM      4  C   UNL     1      -0.784  -1.170  -0.156  0.00  0.00    +0.000 A 
ATOM      5  C   UNL     1      -1.375   1.181  -0.398  0.00  0.00    +0.000 A 
ATOM      6  C   UNL     1      -2.773   0.784  -0.173  0.00  0.00    +0.000 A 
ATOM      7  C   UNL     1      -3.066  -0.562   0.036  0.00  0.00    +0.000 A 
ATOM      8  C   UNL     1      -3.795   1.737  -0.170  0.00  0.00    +0.000 A 
ATOM      9  C   UNL     1      -4.384  -0.964   0.250  0.00  0.00    +0.000 A 
ATOM     10  C   UNL     1      -5.113   1.332   0.044  0.00  0.00    +0.000 A 
ATOM     11  C   UNL     1      -5.407  -0.016   0.254  0.00  0.00    +0.000 A 
ENDROOT
BRANCH   4  12
ATOM     12  C   UNL     1       0.144  -2.314  -0.127  0.00  0.00    +0.000 A 
ATOM     13  C   UNL     1       0.740  -2.699   1.075  0.00  0.00    +0.000 A 
ATOM     14  C   UNL     1       0.427  -3.013  -1.300  0.00  0.00    +0.000 A 
ATOM     15  C   UNL     1       1.619  -3.783   1.102  0.00  0.00    +0.000 A 
ATOM     16  C   UNL     1       1.305  -4.097  -1.273  0.00  0.00    +0.000 A 
ATOM     17  C   UNL     1       1.901  -4.482  -0.072  0.00  0.00    +0.000 A 
BRANCH  17  18
ATOM     18  O   UNL     1       2.757  -5.539  -0.045  0.00  0.00    +0.000 OA
ATOM     19  H   UNL     1       3.075  -5.663   0.866  0.00  0.00    +0.000 HD
ENDBRANCH  17  18
ENDBRANCH   4  12
BRANCH   8  20
ATOM     20  O   UNL     1      -3.562   3.064  -0.370  0.00  0.00    +0.000 OA
ATOM     21  H   UNL     1      -4.403   3.551  -0.329  0.00  0.00    +0.000 HD
ENDBRANCH   8  20
BRANCH  11  22
ATOM     22  O   UNL     1      -6.695  -0.406   0.463  0.00  0.00    +0.000 OA
ATOM     23  H   UNL     1      -7.271   0.377   0.433  0.00  0.00    +0.000 HD
ENDBRANCH  11  22
BRANCH   3  24
ATOM     24  O   UNL     1       0.949   0.421  -0.605  0.00  0.00    +0.000 OA
BRANCH  24  30
ATOM     25  O   UNL     1       1.499   2.088   0.991  0.00  0.00    +0.000 OA
ATOM     26  C   UNL     1       3.831   1.292  -0.482  0.00  0.00    +0.000 C 
ATOM     27  C   UNL     1       3.596   2.748  -0.082  0.00  0.00    +0.000 C 
ATOM     28  C   UNL     1       3.108   0.338   0.471  0.00  0.00    +0.000 C 
ATOM     29  C   UNL     1       2.092   3.015   0.076  0.00  0.00    +0.000 C 
ATOM     30  C   UNL     1       1.635   0.716   0.607  0.00  0.00    +0.000 C 
ATOM     31  C   UNL     1       1.814   4.415   0.617  0.00  0.00    +0.000 C 
BRANCH  26  32
ATOM     32  O   UNL     1       5.231   1.022  -0.470  0.00  0.00    +0.000 OA
ATOM     33  H   UNL     1       5.543   1.117   0.446  0.00  0.00    +0.000 HD
ENDBRANCH  26  32
BRANCH  27  34
ATOM     34  O   UNL     1       4.141   3.582  -1.102  0.00  0.00    +0.000 OA
ATOM     35  H   UNL     1       3.651   3.412  -1.924  0.00  0.00    +0.000 HD
ENDBRANCH  27  34
BRANCH  28  36
ATOM     36  O   UNL     1       3.698   0.409   1.770  0.00  0.00    +0.000 OA
ATOM     37  H   UNL     1       3.259  -0.255   2.328  0.00  0.00    +0.000 HD
ENDBRANCH  28  36
ENDBRANCH  24  30
ENDBRANCH   3  24
TORSDOF 9
