REMARK  Name = 341
REMARK  10 active torsions:
REMARK  status: ('A' for Active; 'I' for Inactive)
REMARK    1  A    between atoms: O_1  and  C_10
REMARK    2  A    between atoms: O_1  and  C_19
REMARK    3  A    between atoms: O_2  and  C_12
REMARK    4  A    between atoms: O_3  and  C_15
REMARK    5  A    between atoms: O_4  and  C_20
REMARK    6  A    between atoms: O_5  and  C_21
REMARK    7  A    between atoms: O_6  and  C_22
REMARK    8  A    between atoms: O_8  and  C_23
REMARK    9  A    between atoms: C_11  and  C_19
REMARK   10  A    between atoms: C_13  and  C_23
REMARK                            x       y       z     vdW  Elec       q    Type
REMARK                         _______ _______ _______ _____ _____    ______ ____
ROOT
ATOM      1  O   UNL     1      -0.138  -0.334   0.491  0.00  0.00    +0.000 OA
ENDROOT
BRANCH   1   2
ATOM      2  C   UNL     1      -1.516  -0.400   0.269  0.00  0.00    +0.000 A 
ATOM      3  C   UNL     1      -2.074  -1.584  -0.162  0.00  0.00    +0.000 A 
ATOM      4  C   UNL     1      -3.644   0.679   0.280  0.00  0.00    +0.000 A 
ATOM      5  C   UNL     1      -2.267   0.733   0.496  0.00  0.00    +0.000 A 
ATOM      6  C   UNL     1      -3.451  -1.637  -0.378  0.00  0.00    +0.000 A 
ATOM      7  C   UNL     1      -4.236  -0.506  -0.157  0.00  0.00    +0.000 A 
BRANCH   3   8
ATOM      8  O   UNL     1      -1.306  -2.690  -0.378  0.00  0.00    +0.000 OA
ATOM      9  H   UNL     1      -1.886  -3.412  -0.676  0.00  0.00    +0.000 HD
ENDBRANCH   3   8
BRANCH   6  10
ATOM     10  O   UNL     1      -4.041  -2.790  -0.802  0.00  0.00    +0.000 OA
ATOM     11  H   UNL     1      -4.997  -2.640  -0.896  0.00  0.00    +0.000 HD
ENDBRANCH   6  10
BRANCH   4  13
ATOM     12  O   UNL     1      -5.687   1.922   0.357  0.00  0.00    +0.000 OA
ATOM     13  C   UNL     1      -4.463   1.858   0.513  0.00  0.00    +0.000 C 
BRANCH  13  14
ATOM     14  O   UNL     1      -3.732   2.925   0.936  0.00  0.00    +0.000 OA
ATOM     15  H   UNL     1      -4.293   3.715   1.090  0.00  0.00    +0.000 HD
ENDBRANCH  13  14
ENDBRANCH   4  13
ENDBRANCH   1   2
BRANCH   1  17
ATOM     16  O   UNL     1       0.114   0.327  -1.730  0.00  0.00    +0.000 OA
ATOM     17  C   UNL     1       0.601   0.052  -0.625  0.00  0.00    +0.000 C 
BRANCH  17  18
ATOM     18  C   UNL     1       2.022   0.099  -0.319  0.00  0.00    +0.000 A 
ATOM     19  C   UNL     1       2.849   1.003  -0.985  0.00  0.00    +0.000 A 
ATOM     20  C   UNL     1       2.559  -0.763   0.638  0.00  0.00    +0.000 A 
ATOM     21  C   UNL     1       3.922  -0.720   0.929  0.00  0.00    +0.000 A 
ATOM     22  C   UNL     1       4.213   1.047  -0.694  0.00  0.00    +0.000 A 
ATOM     23  C   UNL     1       4.749   0.185   0.263  0.00  0.00    +0.000 A 
BRANCH  21  24
ATOM     24  O   UNL     1       4.434  -1.568   1.864  0.00  0.00    +0.000 OA
ATOM     25  H   UNL     1       5.390  -1.401   1.937  0.00  0.00    +0.000 HD
ENDBRANCH  21  24
BRANCH  22  26
ATOM     26  O   UNL     1       5.010   1.933  -1.353  0.00  0.00    +0.000 OA
ATOM     27  H   UNL     1       4.467   2.446  -1.977  0.00  0.00    +0.000 HD
ENDBRANCH  22  26
BRANCH  23  28
ATOM     28  O   UNL     1       6.082   0.228   0.547  0.00  0.00    +0.000 OA
ATOM     29  H   UNL     1       6.493   0.912  -0.009  0.00  0.00    +0.000 HD
ENDBRANCH  23  28
ENDBRANCH  17  18
ENDBRANCH   1  17
TORSDOF 10
