REMARK WARNING: 32 MAX_TORS EXCEEDED!!!
REMARK  43 active torsions:
REMARK  status: ('A' for Active; 'I' for Inactive)
REMARK    1  A    between atoms: O_2  and  C_27 
REMARK    2  A    between atoms: O_2  and  C_33 
REMARK    3  A    between atoms: O_3  and  C_28 
REMARK    4  A    between atoms: O_3  and  C_34 
REMARK    5  A    between atoms: O_4  and  C_29 
REMARK    6  A    between atoms: O_4  and  C_35 
REMARK    7  A    between atoms: O_5  and  C_31 
REMARK    8  A    between atoms: O_5  and  C_36 
REMARK    9  A    between atoms: O_6  and  C_32 
REMARK   10  A    between atoms: O_6  and  C_39 
REMARK   11  A    between atoms: O_12  and  C_51 
REMARK   12  A    between atoms: O_13  and  C_52 
REMARK   13  A    between atoms: O_13  and  C_99 
REMARK   14  A    between atoms: O_14  and  C_53 
REMARK   15  A    between atoms: O_15  and  C_54 
REMARK   16  A    between atoms: O_16  and  C_55 
REMARK   17  A    between atoms: O_17  and  C_56 
REMARK   18  A    between atoms: O_18  and  C_59 
REMARK   19  A    between atoms: O_19  and  C_60 
REMARK   20  A    between atoms: O_20  and  C_61 
REMARK   21  A    between atoms: O_21  and  C_62 
REMARK   22  A    between atoms: O_22  and  C_63 
REMARK   23  A    between atoms: O_23  and  C_64 
REMARK   24  A    between atoms: O_24  and  C_65 
REMARK   25  A    between atoms: O_24  and  C_85 
REMARK   26  A    between atoms: O_25  and  C_66 
REMARK   27  A    between atoms: O_26  and  C_67 
REMARK   28  A    between atoms: C_28  and  C_30 
REMARK   29  A    between atoms: C_29  and  C_31 
REMARK   30  A    between atoms: C_30  and  C_32 
REMARK   31  A    between atoms: C_33  and  C_37 
REMARK   32  A    between atoms: C_34  and  C_38 
REMARK   33  A    between atoms: C_35  and  C_40 
REMARK   34  A    between atoms: C_36  and  C_41 
REMARK   35  A    between atoms: C_39  and  C_42 
REMARK   36  A    between atoms: O_82  and  C_89 
REMARK   37  A    between atoms: O_83  and  C_90 
REMARK   38  A    between atoms: O_84  and  C_91 
REMARK   39  A    between atoms: C_85  and  C_86 
REMARK   40  A    between atoms: O_96  and  C_103 
REMARK   41  A    between atoms: O_97  and  C_104 
REMARK   42  A    between atoms: O_98  and  C_105 
REMARK   43  A    between atoms: C_99  and  C_100 
ROOT
HETATM    1  O   UNL     1       0.828   2.544  -0.684  1.00  0.00    -0.348 OA
HETATM    2  C   UNL     1       0.105   1.856   0.246  1.00  0.00     0.201 A 
HETATM    3  C   UNL     1       1.534   1.856   0.246  1.00  0.00     0.282 A 
ENDROOT
BRANCH   2   4
HETATM    4  C   UNL     1       0.105   1.031   0.246  1.00  0.00     0.199 A 
HETATM    5  C   UNL     1       0.972   0.507  -1.011  1.00  0.00     0.198 A 
HETATM    6  C   UNL     1       1.534   1.031   0.246  1.00  0.00     0.215 A 
BRANCH   4   7
HETATM    7  O   UNL     1      -1.210   0.902  -0.880  1.00  0.00    -0.306 OA
BRANCH   7   8
HETATM    8  C   UNL     1      -2.520   0.878  -1.071  1.00  0.00     0.294 C 
HETATM    9  O   UNL     1      -3.040   1.180  -2.139  1.00  0.00    -0.259 OA
BRANCH   8  10
HETATM   10  C   UNL     1      -3.367   0.354  -0.014  1.00  0.00     0.045 A 
HETATM   11  C   UNL     1      -4.467   1.132   0.369  1.00  0.00     0.057 A 
HETATM   12  C   UNL     1      -5.536   0.513   0.991  1.00  0.00     0.102 A 
HETATM   13  C   UNL     1      -5.481  -0.850   1.257  1.00  0.00     0.132 A 
HETATM   14  C   UNL     1      -4.328  -1.581   0.986  1.00  0.00     0.102 A 
HETATM   15  C   UNL     1      -3.265  -0.994   0.323  1.00  0.00     0.057 A 
BRANCH  12  16
HETATM   16  O   UNL     1      -6.675   1.196   1.308  1.00  0.00    -0.358 OA
HETATM   17  H   UNL     1      -6.468   2.148   1.249  1.00  0.00     0.217 HD
ENDBRANCH  12  16
BRANCH  13  18
HETATM   18  O   UNL     1      -6.581  -1.511   1.731  1.00  0.00    -0.356 OA
HETATM   19  H   UNL     1      -7.310  -0.869   1.602  1.00  0.00     0.218 HD
ENDBRANCH  13  18
BRANCH  14  20
HETATM   20  O   UNL     1      -4.272  -2.901   1.327  1.00  0.00    -0.358 OA
HETATM   21  H   UNL     1      -5.121  -3.060   1.785  1.00  0.00     0.217 HD
ENDBRANCH  14  20
ENDBRANCH   8  10
ENDBRANCH   7   8
ENDBRANCH   4   7
BRANCH   5  22
HETATM   22  O   UNL     1       1.028  -0.938  -1.120  1.00  0.00    -0.306 OA
BRANCH  22  23
HETATM   23  C   UNL     1       0.733  -1.632  -0.002  1.00  0.00     0.294 C 
HETATM   24  O   UNL     1       0.270  -1.303   1.083  1.00  0.00    -0.259 OA
BRANCH  23  25
HETATM   25  C   UNL     1       1.073  -2.981  -0.206  1.00  0.00     0.045 C 
HETATM   26  C   UNL     1      -0.050  -3.676  -0.575  1.00  0.00     0.058 C 
HETATM   27  C   UNL     1      -0.243  -4.821   0.130  1.00  0.00     0.116 C 
HETATM   28  C   UNL     1       0.846  -5.459   0.752  1.00  0.00     0.133 C 
HETATM   29  C   UNL     1       2.051  -4.778   0.916  1.00  0.00     0.102 C 
HETATM   30  C   UNL     1       2.116  -3.464   0.567  1.00  0.00     0.057 C 
BRANCH  27  31
HETATM   31  O   UNL     1      -1.558  -5.237   0.388  1.00  0.00    -0.272 OA
BRANCH  31  32
HETATM   32  C   UNL     1      -2.598  -4.938  -0.518  1.00  0.00     0.298 C 
HETATM   33  O   UNL     1      -2.876  -3.947  -1.133  1.00  0.00    -0.259 OA
BRANCH  32  34
HETATM   34  C   UNL     1      -3.071  -6.296  -0.789  1.00  0.00     0.045 C 
HETATM   35  C   UNL     1      -4.156  -6.774  -0.055  1.00  0.00     0.057 C 
HETATM   36  C   UNL     1      -4.091  -8.097   0.341  1.00  0.00     0.102 C 
HETATM   37  C   UNL     1      -2.925  -8.835   0.138  1.00  0.00     0.132 C 
HETATM   38  C   UNL     1      -1.892  -8.329  -0.633  1.00  0.00     0.102 C 
HETATM   39  C   UNL     1      -2.029  -7.114  -1.252  1.00  0.00     0.057 C 
BRANCH  36  40
HETATM   40  O   UNL     1      -5.102  -8.681   1.043  1.00  0.00    -0.358 OA
HETATM   41  H   UNL     1      -5.907  -8.555   0.506  1.00  0.00     0.217 HD
ENDBRANCH  36  40
BRANCH  37  42
HETATM   42  O   UNL     1      -2.748 -10.035   0.762  1.00  0.00    -0.356 OA
HETATM   43  H   UNL     1      -3.569 -10.160   1.281  1.00  0.00     0.218 HD
ENDBRANCH  37  42
BRANCH  38  44
HETATM   44  O   UNL     1      -0.656  -8.902  -0.621  1.00  0.00    -0.358 OA
HETATM   45  H   UNL     1      -0.723  -9.640   0.017  1.00  0.00     0.217 HD
ENDBRANCH  38  44
ENDBRANCH  32  34
ENDBRANCH  31  32
ENDBRANCH  27  31
BRANCH  28  46
HETATM   46  O   UNL     1       0.771  -6.735   1.225  1.00  0.00    -0.356 OA
HETATM   47  H   UNL     1      -0.017  -7.139   0.819  1.00  0.00     0.218 HD
ENDBRANCH  28  46
BRANCH  29  48
HETATM   48  O   UNL     1       3.156  -5.330   1.477  1.00  0.00    -0.358 OA
HETATM   49  H   UNL     1       3.119  -6.270   1.233  1.00  0.00     0.217 HD
ENDBRANCH  29  48
ENDBRANCH  23  25
ENDBRANCH  22  23
ENDBRANCH   5  22
BRANCH   6  50
HETATM   50  O   UNL     1       3.131   0.601   0.267  1.00  0.00    -0.304 OA
BRANCH  50  51
HETATM   51  C   UNL     1       4.111   0.912  -0.628  1.00  0.00     0.294 C 
HETATM   52  O   UNL     1       4.103   1.694  -1.557  1.00  0.00    -0.259 OA
BRANCH  51  53
HETATM   53  C   UNL     1       5.245   0.071  -0.251  1.00  0.00     0.045 A 
HETATM   54  C   UNL     1       5.020  -1.306  -0.278  1.00  0.00     0.057 A 
HETATM   55  C   UNL     1       6.032  -2.161   0.097  1.00  0.00     0.102 A 
HETATM   56  C   UNL     1       7.270  -1.653   0.454  1.00  0.00     0.132 A 
HETATM   57  C   UNL     1       7.504  -0.279   0.437  1.00  0.00     0.102 A 
HETATM   58  C   UNL     1       6.488   0.608   0.100  1.00  0.00     0.057 A 
BRANCH  55  59
HETATM   59  O   UNL     1       5.800  -3.500   0.070  1.00  0.00    -0.358 OA
HETATM   60  H   UNL     1       6.639  -3.905   0.365  1.00  0.00     0.217 HD
ENDBRANCH  55  59
BRANCH  56  61
HETATM   61  O   UNL     1       8.278  -2.523   0.764  1.00  0.00    -0.356 OA
HETATM   62  H   UNL     1       9.050  -1.943   0.924  1.00  0.00     0.218 HD
ENDBRANCH  56  61
BRANCH  57  63
HETATM   63  O   UNL     1       8.774   0.145   0.710  1.00  0.00    -0.358 OA
HETATM   64  H   UNL     1       8.903   0.993   0.245  1.00  0.00     0.217 HD
ENDBRANCH  57  63
ENDBRANCH  51  53
ENDBRANCH  50  51
ENDBRANCH   6  50
ENDBRANCH   2   4
BRANCH   2  65
HETATM   65  C   UNL     1      -0.994   2.300   1.393  1.00  0.00     0.216 C 
BRANCH  65  66
HETATM   66  O   UNL     1      -1.682   3.421   0.843  1.00  0.00    -0.315 OA
BRANCH  66  67
HETATM   67  C   UNL     1      -2.220   4.210   1.779  1.00  0.00     0.293 C 
HETATM   68  O   UNL     1      -2.902   3.850   2.719  1.00  0.00    -0.259 OA
BRANCH  67  69
HETATM   69  C   UNL     1      -1.905   5.598   1.409  1.00  0.00     0.045 C 
HETATM   70  C   UNL     1      -0.754   5.949   0.678  1.00  0.00     0.057 C 
HETATM   71  C   UNL     1      -0.570   7.264   0.287  1.00  0.00     0.102 C 
HETATM   72  C   UNL     1      -1.589   8.184   0.468  1.00  0.00     0.133 C 
HETATM   73  C   UNL     1      -2.776   7.773   1.080  1.00  0.00     0.116 C 
HETATM   74  C   UNL     1      -2.881   6.537   1.700  1.00  0.00     0.058 C 
BRANCH  71  75
HETATM   75  O   UNL     1       0.568   7.630  -0.373  1.00  0.00    -0.358 OA
HETATM   76  H   UNL     1       0.415   8.566  -0.618  1.00  0.00     0.217 HD
ENDBRANCH  71  75
BRANCH  72  77
HETATM   77  O   UNL     1      -1.417   9.428  -0.068  1.00  0.00    -0.356 OA
HETATM   78  H   UNL     1      -2.283   9.881  -0.050  1.00  0.00     0.218 HD
ENDBRANCH  72  77
BRANCH  73  79
HETATM   79  O   UNL     1      -3.973   8.451   0.864  1.00  0.00    -0.272 OA
BRANCH  79  80
HETATM   80  C   UNL     1      -4.337   8.132  -0.436  1.00  0.00     0.298 C 
HETATM   81  O   UNL     1      -4.210   8.911  -1.369  1.00  0.00    -0.259 OA
BRANCH  80  82
HETATM   82  C   UNL     1      -4.912   6.766  -0.609  1.00  0.00     0.045 A 
HETATM   83  C   UNL     1      -4.220   5.838  -1.401  1.00  0.00     0.057 A 
HETATM   84  C   UNL     1      -4.762   4.574  -1.611  1.00  0.00     0.102 A 
HETATM   85  C   UNL     1      -5.990   4.238  -1.060  1.00  0.00     0.132 A 
HETATM   86  C   UNL     1      -6.677   5.164  -0.280  1.00  0.00     0.102 A 
HETATM   87  C   UNL     1      -6.140   6.427  -0.026  1.00  0.00     0.057 A 
BRANCH  84  88
HETATM   88  O   UNL     1      -4.056   3.708  -2.384  1.00  0.00    -0.358 OA
HETATM   89  H   UNL     1      -4.485   2.826  -2.371  1.00  0.00     0.217 HD
ENDBRANCH  84  88
BRANCH  85  90
HETATM   90  O   UNL     1      -6.529   3.004  -1.296  1.00  0.00    -0.356 OA
HETATM   91  H   UNL     1      -7.422   3.020  -0.897  1.00  0.00     0.218 HD
ENDBRANCH  85  90
BRANCH  86  92
HETATM   92  O   UNL     1      -7.904   4.793   0.197  1.00  0.00    -0.358 OA
HETATM   93  H   UNL     1      -8.450   5.597   0.270  1.00  0.00     0.217 HD
ENDBRANCH  86  92
ENDBRANCH  80  82
ENDBRANCH  79  80
ENDBRANCH  73  79
ENDBRANCH  67  69
ENDBRANCH  66  67
ENDBRANCH  65  66
ENDBRANCH   2  65
BRANCH   3  94
HETATM   94  O   UNL     1       2.725   2.804   0.265  1.00  0.00    -0.285 OA
BRANCH  94  95
HETATM   95  C   UNL     1       2.618   3.941   1.005  1.00  0.00     0.295 C 
HETATM   96  O   UNL     1       1.690   4.281   1.719  1.00  0.00    -0.259 OA
BRANCH  95  97
HETATM   97  C   UNL     1       3.824   4.732   0.803  1.00  0.00     0.045 A 
HETATM   98  C   UNL     1       5.073   4.131   0.976  1.00  0.00     0.057 A 
HETATM   99  C   UNL     1       6.203   4.863   0.673  1.00  0.00     0.102 A 
HETATM  100  C   UNL     1       6.088   6.188   0.267  1.00  0.00     0.132 A 
HETATM  101  C   UNL     1       4.839   6.794   0.154  1.00  0.00     0.102 A 
HETATM  102  C   UNL     1       3.689   6.068   0.416  1.00  0.00     0.057 A 
BRANCH  99 103
HETATM  103  O   UNL     1       7.425   4.262   0.745  1.00  0.00    -0.358 OA
HETATM  104  H   UNL     1       8.043   4.949   0.419  1.00  0.00     0.217 HD
ENDBRANCH  99 103
BRANCH 100 105
HETATM  105  O   UNL     1       7.226   6.888  -0.026  1.00  0.00    -0.356 OA
HETATM  106  H   UNL     1       6.897   7.777  -0.274  1.00  0.00     0.218 HD
ENDBRANCH 100 105
BRANCH 101 107
HETATM  107  O   UNL     1       4.786   8.101  -0.237  1.00  0.00    -0.358 OA
HETATM  108  H   UNL     1       3.848   8.364  -0.271  1.00  0.00     0.217 HD
ENDBRANCH 101 107
ENDBRANCH  95  97
ENDBRANCH  94  95
ENDBRANCH   3  94
TORSDOF 43
