MODEL 1
REMARK VINA RESULT:      -8.5      0.000      0.000
REMARK  12 active torsions:
REMARK  status: ('A' for Active; 'I' for Inactive)
REMARK    1  A    between atoms: O_1  and  C_10 
REMARK    2  A    between atoms: O_2  and  C_17 
REMARK    3  A    between atoms: O_3  and  C_20 
REMARK    4  A    between atoms: O_4  and  C_27 
REMARK    5  A    between atoms: O_6  and  C_29 
REMARK    6  A    between atoms: O_7  and  C_28 
REMARK    7  A    between atoms: O_8  and  C_33 
REMARK    8  A    between atoms: C_11  and  C_20 
REMARK    9  A    between atoms: C_20  and  C_28 
REMARK   10  A    between atoms: C_28  and  C_31 
REMARK   11  A    between atoms: C_31  and  C_32 
REMARK   12  A    between atoms: C_32  and  C_33 
ROOT
HETATM    1  O   UNK     0     167.393 171.839 168.244  0.00  0.00    -0.384 OA
HETATM    2  H   UNK     0     166.560 171.387 168.442  0.00  0.00     0.211 HD
ENDROOT
BRANCH   1   3
HETATM    3  C   UNK     0     167.256 173.271 168.385  0.00  0.00     0.090 C 
HETATM    4  C   UNK     0     166.777 173.610 169.820  0.00  0.00    -0.000 C 
HETATM    5  C   UNK     0     165.376 172.944 169.821  0.00  0.00     0.034 C 
HETATM    6  C   UNK     0     167.762 172.995 170.823  0.00  0.00     0.045 C 
HETATM    7  C   UNK     0     166.660 175.138 170.077  0.00  0.00     0.019 C 
HETATM    8  C   UNK     0     164.822 173.249 168.410  0.00  0.00     0.012 C 
HETATM    9  C   UNK     0     166.033 173.650 167.538  0.00  0.00     0.044 C 
HETATM   10  C   UNK     0     169.196 173.516 170.597  0.00  0.00     0.128 C 
HETATM   11  C   UNK     0     169.716 173.379 169.118  0.00  0.00     0.055 C 
HETATM   12  C   UNK     0     171.144 174.040 168.872  0.00  0.00    -0.021 C 
HETATM   13  C   UNK     0     168.634 173.845 168.121  0.00  0.00    -0.034 C 
HETATM   14  C   UNK     0     171.384 174.256 167.350  0.00  0.00     0.071 C 
HETATM   15  C   UNK     0     172.299 173.154 169.470  0.00  0.00     0.045 C 
HETATM   16  C   UNK     0     171.228 175.432 169.560  0.00  0.00     0.017 C 
HETATM   17  C   UNK     0     171.607 172.971 166.532  0.00  0.00     0.047 C 
HETATM   18  C   UNK     0     170.249 175.039 166.724  0.00  0.00     0.154 C 
HETATM   19  C   UNK     0     172.262 171.844 167.323  0.00  0.00     0.147 C 
HETATM   20  C   UNK     0     173.136 172.375 168.451  0.00  0.00     0.147 C 
HETATM   21  O   UNK     0     170.445 175.919 165.889  0.00  0.00    -0.293 OA
HETATM   22  C   UNK     0     168.869 174.648 167.074  0.00  0.00     0.057 C 
BRANCH   5  23
HETATM   23  C   UNK     0     164.424 173.362 170.933  0.00  0.00     0.084 C 
HETATM   24  C   UNK     0     163.882 172.116 171.652  0.00  0.00     0.049 C 
BRANCH  23  25
HETATM   25  O   UNK     0     165.161 174.126 171.896  0.00  0.00    -0.387 OA
HETATM   26  H   UNK     0     164.544 174.475 172.561  0.00  0.00     0.210 HD
ENDBRANCH  23  25
BRANCH  23  27
HETATM   27  C   UNK     0     163.257 174.242 170.407  0.00  0.00     0.152 C 
BRANCH  27  28
HETATM   28  O   UNK     0     163.307 175.529 171.032  0.00  0.00    -0.393 OA
HETATM   29  H   UNK     0     163.356 176.194 170.324  0.00  0.00     0.210 HD
ENDBRANCH  27  28
BRANCH  27  30
HETATM   30  C   UNK     0     161.857 173.643 170.644  0.00  0.00     0.037 C 
BRANCH  30  31
HETATM   31  C   UNK     0     160.780 174.338 169.791  0.00  0.00     0.040 C 
BRANCH  31  32
HETATM   32  C   UNK     0     160.473 173.637 168.451  0.00  0.00     0.051 C 
HETATM   33  C   UNK     0     160.677 174.624 167.296  0.00  0.00     0.045 C 
HETATM   34  C   UNK     0     161.335 172.391 168.230  0.00  0.00     0.045 C 
BRANCH  32  35
HETATM   35  O   UNK     0     159.100 173.242 168.454  0.00  0.00    -0.391 OA
HETATM   36  H   UNK     0     158.557 174.009 168.701  0.00  0.00     0.210 HD
ENDBRANCH  32  35
ENDBRANCH  31  32
ENDBRANCH  30  31
ENDBRANCH  27  30
ENDBRANCH  23  27
ENDBRANCH   5  23
BRANCH  10  37
HETATM   37  O   UNK     0     170.047 172.807 171.494  0.00  0.00    -0.395 OA
HETATM   38  H   UNK     0     169.513 172.119 171.927  0.00  0.00     0.210 HD
ENDBRANCH  10  37
BRANCH  19  39
HETATM   39  O   UNK     0     173.032 171.045 166.431  0.00  0.00    -0.393 OA
HETATM   40  H   UNK     0     173.839 170.763 166.893  0.00  0.00     0.210 HD
ENDBRANCH  19  39
BRANCH  20  41
HETATM   41  O   UNK     0     174.152 173.234 167.929  0.00  0.00    -0.393 OA
HETATM   42  H   UNK     0     174.095 174.080 168.405  0.00  0.00     0.210 HD
ENDBRANCH  20  41
ENDBRANCH   1   3
TORSDOF 12
ENDMDL
MODEL 2
REMARK VINA RESULT:      -8.0      1.674      2.405
REMARK  12 active torsions:
REMARK  status: ('A' for Active; 'I' for Inactive)
REMARK    1  A    between atoms: O_1  and  C_10 
REMARK    2  A    between atoms: O_2  and  C_17 
REMARK    3  A    between atoms: O_3  and  C_20 
REMARK    4  A    between atoms: O_4  and  C_27 
REMARK    5  A    between atoms: O_6  and  C_29 
REMARK    6  A    between atoms: O_7  and  C_28 
REMARK    7  A    between atoms: O_8  and  C_33 
REMARK    8  A    between atoms: C_11  and  C_20 
REMARK    9  A    between atoms: C_20  and  C_28 
REMARK   10  A    between atoms: C_28  and  C_31 
REMARK   11  A    between atoms: C_31  and  C_32 
REMARK   12  A    between atoms: C_32  and  C_33 
ROOT
HETATM    1  O   UNK     0     167.332 171.805 168.091  0.00  0.00    -0.384 OA
HETATM    2  H   UNK     0     167.466 171.403 168.962  0.00  0.00     0.211 HD
ENDROOT
BRANCH   1   3
HETATM    3  C   UNK     0     167.111 173.230 168.202  0.00  0.00     0.090 C 
HETATM    4  C   UNK     0     166.449 173.549 169.567  0.00  0.00    -0.000 C 
HETATM    5  C   UNK     0     165.092 172.815 169.409  0.00  0.00     0.034 C 
HETATM    6  C   UNK     0     167.338 172.986 170.685  0.00  0.00     0.045 C 
HETATM    7  C   UNK     0     166.229 175.070 169.795  0.00  0.00     0.019 C 
HETATM    8  C   UNK     0     164.695 173.088 167.940  0.00  0.00     0.012 C 
HETATM    9  C   UNK     0     165.979 173.545 167.214  0.00  0.00     0.044 C 
HETATM   10  C   UNK     0     168.762 173.576 170.625  0.00  0.00     0.128 C 
HETATM   11  C   UNK     0     169.458 173.460 169.218  0.00  0.00     0.055 C 
HETATM   12  C   UNK     0     170.872 174.190 169.137  0.00  0.00    -0.021 C 
HETATM   13  C   UNK     0     168.481 173.869 168.097  0.00  0.00    -0.034 C 
HETATM   14  C   UNK     0     171.279 174.412 167.652  0.00  0.00     0.071 C 
HETATM   15  C   UNK     0     171.989 173.364 169.875  0.00  0.00     0.045 C 
HETATM   16  C   UNK     0     170.807 175.586 169.818  0.00  0.00     0.017 C 
HETATM   17  C   UNK     0     171.659 173.137 166.878  0.00  0.00     0.047 C 
HETATM   18  C   UNK     0     170.189 175.137 166.890  0.00  0.00     0.154 C 
HETATM   19  C   UNK     0     172.270 172.047 167.751  0.00  0.00     0.147 C 
HETATM   20  C   UNK     0     172.978 172.624 168.969  0.00  0.00     0.147 C 
HETATM   21  O   UNK     0     170.441 176.023 166.076  0.00  0.00    -0.293 OA
HETATM   22  C   UNK     0     168.798 174.680 167.078  0.00  0.00     0.057 C 
BRANCH   5  23
HETATM   23  C   UNK     0     163.996 173.189 170.398  0.00  0.00     0.084 C 
HETATM   24  C   UNK     0     164.605 173.413 171.791  0.00  0.00     0.049 C 
BRANCH  23  25
HETATM   25  O   UNK     0     163.414 174.431 169.979  0.00  0.00    -0.387 OA
HETATM   26  H   UNK     0     162.954 174.295 169.135  0.00  0.00     0.210 HD
ENDBRANCH  23  25
BRANCH  23  27
HETATM   27  C   UNK     0     162.869 172.122 170.457  0.00  0.00     0.152 C 
BRANCH  27  28
HETATM   28  O   UNK     0     162.074 172.329 171.629  0.00  0.00    -0.393 OA
HETATM   29  H   UNK     0     162.683 172.503 172.367  0.00  0.00     0.210 HD
ENDBRANCH  27  28
BRANCH  27  30
HETATM   30  C   UNK     0     163.375 170.667 170.465  0.00  0.00     0.037 C 
BRANCH  30  31
HETATM   31  C   UNK     0     162.526 169.755 169.561  0.00  0.00     0.040 C 
BRANCH  31  32
HETATM   32  C   UNK     0     163.261 169.229 168.310  0.00  0.00     0.051 C 
HETATM   33  C   UNK     0     163.077 167.712 168.206  0.00  0.00     0.045 C 
HETATM   34  C   UNK     0     162.780 169.902 167.022  0.00  0.00     0.045 C 
BRANCH  32  35
HETATM   35  O   UNK     0     164.657 169.493 168.464  0.00  0.00    -0.391 OA
HETATM   36  H   UNK     0     165.122 168.648 168.581  0.00  0.00     0.210 HD
ENDBRANCH  32  35
ENDBRANCH  31  32
ENDBRANCH  30  31
ENDBRANCH  27  30
ENDBRANCH  23  27
ENDBRANCH   5  23
BRANCH  10  37
HETATM   37  O   UNK     0     169.534 172.913 171.623  0.00  0.00    -0.395 OA
HETATM   38  H   UNK     0     170.458 172.903 171.323  0.00  0.00     0.210 HD
ENDBRANCH  10  37
BRANCH  19  39
HETATM   39  O   UNK     0     173.178 171.284 166.962  0.00  0.00    -0.393 OA
HETATM   40  H   UNK     0     173.341 170.439 167.415  0.00  0.00     0.210 HD
ENDBRANCH  19  39
BRANCH  20  41
HETATM   41  O   UNK     0     174.006 173.530 168.563  0.00  0.00    -0.393 OA
HETATM   42  H   UNK     0     173.696 174.431 168.756  0.00  0.00     0.210 HD
ENDBRANCH  20  41
ENDBRANCH   1   3
TORSDOF 12
ENDMDL
MODEL 3
REMARK VINA RESULT:      -7.7      2.535      4.943
REMARK  12 active torsions:
REMARK  status: ('A' for Active; 'I' for Inactive)
REMARK    1  A    between atoms: O_1  and  C_10 
REMARK    2  A    between atoms: O_2  and  C_17 
REMARK    3  A    between atoms: O_3  and  C_20 
REMARK    4  A    between atoms: O_4  and  C_27 
REMARK    5  A    between atoms: O_6  and  C_29 
REMARK    6  A    between atoms: O_7  and  C_28 
REMARK    7  A    between atoms: O_8  and  C_33 
REMARK    8  A    between atoms: C_11  and  C_20 
REMARK    9  A    between atoms: C_20  and  C_28 
REMARK   10  A    between atoms: C_28  and  C_31 
REMARK   11  A    between atoms: C_31  and  C_32 
REMARK   12  A    between atoms: C_32  and  C_33 
ROOT
HETATM    1  O   UNK     0     165.204 175.617 170.538  0.00  0.00    -0.384 OA
HETATM    2  H   UNK     0     164.305 175.900 170.758  0.00  0.00     0.211 HD
ENDROOT
BRANCH   1   3
HETATM    3  C   UNK     0     165.293 174.177 170.449  0.00  0.00     0.090 C 
HETATM    4  C   UNK     0     165.010 173.727 168.992  0.00  0.00    -0.000 C 
HETATM    5  C   UNK     0     163.534 174.176 168.833  0.00  0.00     0.034 C 
HETATM    6  C   UNK     0     165.988 174.453 168.058  0.00  0.00     0.045 C 
HETATM    7  C   UNK     0     165.144 172.192 168.793  0.00  0.00     0.019 C 
HETATM    8  C   UNK     0     162.896 173.834 170.199  0.00  0.00     0.012 C 
HETATM    9  C   UNK     0     164.061 173.645 171.195  0.00  0.00     0.044 C 
HETATM   10  C   UNK     0     167.454 174.159 168.437  0.00  0.00     0.128 C 
HETATM   11  C   UNK     0     167.801 174.416 169.950  0.00  0.00     0.055 C 
HETATM   12  C   UNK     0     169.280 173.984 170.354  0.00  0.00    -0.021 C 
HETATM   13  C   UNK     0     166.707 173.824 170.863  0.00  0.00    -0.034 C 
HETATM   14  C   UNK     0     169.400 173.852 171.901  0.00  0.00     0.071 C 
HETATM   15  C   UNK     0     170.346 175.014 169.827  0.00  0.00     0.045 C 
HETATM   16  C   UNK     0     169.633 172.601 169.739  0.00  0.00     0.017 C 
HETATM   17  C   UNK     0     169.352 175.180 172.678  0.00  0.00     0.047 C 
HETATM   18  C   UNK     0     168.335 172.927 172.453  0.00  0.00     0.154 C 
HETATM   19  C   UNK     0     169.909 176.368 171.901  0.00  0.00     0.147 C 
HETATM   20  C   UNK     0     170.957 175.940 170.883  0.00  0.00     0.147 C 
HETATM   21  O   UNK     0     168.576 172.112 173.341  0.00  0.00    -0.293 OA
HETATM   22  C   UNK     0     166.954 173.096 171.962  0.00  0.00     0.057 C 
BRANCH   5  23
HETATM   23  C   UNK     0     162.766 173.587 167.657  0.00  0.00     0.084 C 
HETATM   24  C   UNK     0     161.270 173.503 168.001  0.00  0.00     0.049 C 
BRANCH  23  25
HETATM   25  O   UNK     0     162.899 174.474 166.539  0.00  0.00    -0.387 OA
HETATM   26  H   UNK     0     163.831 174.735 166.453  0.00  0.00     0.210 HD
ENDBRANCH  23  25
BRANCH  23  27
HETATM   27  C   UNK     0     163.311 172.195 167.238  0.00  0.00     0.152 C 
BRANCH  27  28
HETATM   28  O   UNK     0     163.754 172.243 165.878  0.00  0.00    -0.393 OA
HETATM   29  H   UNK     0     163.070 171.817 165.334  0.00  0.00     0.210 HD
ENDBRANCH  27  28
BRANCH  27  30
HETATM   30  C   UNK     0     162.291 171.048 167.376  0.00  0.00     0.037 C 
BRANCH  30  31
HETATM   31  C   UNK     0     162.978 169.677 167.512  0.00  0.00     0.040 C 
BRANCH  31  32
HETATM   32  C   UNK     0     162.583 168.886 168.776  0.00  0.00     0.051 C 
HETATM   33  C   UNK     0     162.932 167.406 168.585  0.00  0.00     0.045 C 
HETATM   34  C   UNK     0     163.261 169.422 170.040  0.00  0.00     0.045 C 
BRANCH  32  35
HETATM   35  O   UNK     0     161.168 168.985 168.946  0.00  0.00    -0.391 OA
HETATM   36  H   UNK     0     160.748 168.232 168.498  0.00  0.00     0.210 HD
ENDBRANCH  32  35
ENDBRANCH  31  32
ENDBRANCH  30  31
ENDBRANCH  27  30
ENDBRANCH  23  27
ENDBRANCH   5  23
BRANCH  10  37
HETATM   37  O   UNK     0     168.275 174.959 167.591  0.00  0.00    -0.395 OA
HETATM   38  H   UNK     0     168.587 174.396 166.862  0.00  0.00     0.210 HD
ENDBRANCH  10  37
BRANCH  19  39
HETATM   39  O   UNK     0     170.464 177.300 172.825  0.00  0.00    -0.393 OA
HETATM   40  H   UNK     0     169.898 178.090 172.839  0.00  0.00     0.210 HD
ENDBRANCH  19  39
BRANCH  20  41
HETATM   41  O   UNK     0     172.032 175.259 171.533  0.00  0.00    -0.393 OA
HETATM   42  H   UNK     0     172.863 175.651 171.217  0.00  0.00     0.210 HD
ENDBRANCH  20  41
ENDBRANCH   1   3
TORSDOF 12
ENDMDL
MODEL 4
REMARK VINA RESULT:      -7.5      8.756     10.486
REMARK  12 active torsions:
REMARK  status: ('A' for Active; 'I' for Inactive)
REMARK    1  A    between atoms: O_1  and  C_10 
REMARK    2  A    between atoms: O_2  and  C_17 
REMARK    3  A    between atoms: O_3  and  C_20 
REMARK    4  A    between atoms: O_4  and  C_27 
REMARK    5  A    between atoms: O_6  and  C_29 
REMARK    6  A    between atoms: O_7  and  C_28 
REMARK    7  A    between atoms: O_8  and  C_33 
REMARK    8  A    between atoms: C_11  and  C_20 
REMARK    9  A    between atoms: C_20  and  C_28 
REMARK   10  A    between atoms: C_28  and  C_31 
REMARK   11  A    between atoms: C_31  and  C_32 
REMARK   12  A    between atoms: C_32  and  C_33 
ROOT
HETATM    1  O   UNK     0     168.242 179.240 178.227  0.00  0.00    -0.384 OA
HETATM    2  H   UNK     0     169.048 179.747 178.054  0.00  0.00     0.211 HD
ENDROOT
BRANCH   1   3
HETATM    3  C   UNK     0     167.565 178.900 176.996  0.00  0.00     0.090 C 
HETATM    4  C   UNK     0     166.186 179.608 176.949  0.00  0.00    -0.000 C 
HETATM    5  C   UNK     0     165.473 178.931 178.149  0.00  0.00     0.034 C 
HETATM    6  C   UNK     0     166.405 181.117 177.123  0.00  0.00     0.045 C 
HETATM    7  C   UNK     0     165.411 179.344 175.628  0.00  0.00     0.019 C 
HETATM    8  C   UNK     0     165.918 177.453 178.056  0.00  0.00     0.012 C 
HETATM    9  C   UNK     0     167.165 177.425 177.144  0.00  0.00     0.044 C 
HETATM   10  C   UNK     0     167.337 181.681 176.032  0.00  0.00     0.128 C 
HETATM   11  C   UNK     0     168.702 180.913 175.878  0.00  0.00     0.055 C 
HETATM   12  C   UNK     0     169.595 181.424 174.662  0.00  0.00    -0.021 C 
HETATM   13  C   UNK     0     168.466 179.388 175.880  0.00  0.00    -0.034 C 
HETATM   14  C   UNK     0     170.679 180.365 174.306  0.00  0.00     0.071 C 
HETATM   15  C   UNK     0     170.287 182.798 174.992  0.00  0.00     0.045 C 
HETATM   16  C   UNK     0     168.721 181.642 173.394  0.00  0.00     0.017 C 
HETATM   17  C   UNK     0     171.807 180.208 175.341  0.00  0.00     0.047 C 
HETATM   18  C   UNK     0     170.054 179.007 174.059  0.00  0.00     0.154 C 
HETATM   19  C   UNK     0     172.119 181.487 176.110  0.00  0.00     0.147 C 
HETATM   20  C   UNK     0     171.786 182.732 175.300  0.00  0.00     0.147 C 
HETATM   21  O   UNK     0     170.430 178.272 173.148  0.00  0.00    -0.293 OA
HETATM   22  C   UNK     0     169.032 178.536 175.014  0.00  0.00     0.057 C 
BRANCH   5  23
HETATM   23  C   UNK     0     163.960 179.089 178.220  0.00  0.00     0.084 C 
HETATM   24  C   UNK     0     163.279 177.916 177.496  0.00  0.00     0.049 C 
BRANCH  23  25
HETATM   25  O   UNK     0     163.562 179.032 179.596  0.00  0.00    -0.387 OA
HETATM   26  H   UNK     0     163.900 179.819 180.054  0.00  0.00     0.210 HD
ENDBRANCH  23  25
BRANCH  23  27
HETATM   27  C   UNK     0     163.483 180.446 177.634  0.00  0.00     0.152 C 
BRANCH  27  28
HETATM   28  O   UNK     0     163.391 181.415 178.683  0.00  0.00    -0.393 OA
HETATM   29  H   UNK     0     163.676 180.982 179.505  0.00  0.00     0.210 HD
ENDBRANCH  27  28
BRANCH  27  30
HETATM   30  C   UNK     0     162.123 180.381 176.913  0.00  0.00     0.037 C 
BRANCH  30  31
HETATM   31  C   UNK     0     161.100 181.358 177.521  0.00  0.00     0.040 C 
BRANCH  31  32
HETATM   32  C   UNK     0     159.768 180.707 177.948  0.00  0.00     0.051 C 
HETATM   33  C   UNK     0     158.782 180.739 176.775  0.00  0.00     0.045 C 
HETATM   34  C   UNK     0     159.949 179.267 178.436  0.00  0.00     0.045 C 
BRANCH  32  35
HETATM   35  O   UNK     0     159.210 181.479 179.013  0.00  0.00    -0.391 OA
HETATM   36  H   UNK     0     159.108 182.397 178.710  0.00  0.00     0.210 HD
ENDBRANCH  32  35
ENDBRANCH  31  32
ENDBRANCH  30  31
ENDBRANCH  27  30
ENDBRANCH  23  27
ENDBRANCH   5  23
BRANCH  10  37
HETATM   37  O   UNK     0     167.567 183.053 176.343  0.00  0.00    -0.395 OA
HETATM   38  H   UNK     0     167.625 183.131 177.311  0.00  0.00     0.210 HD
ENDBRANCH  10  37
BRANCH  19  39
HETATM   39  O   UNK     0     173.497 181.481 176.469  0.00  0.00    -0.393 OA
HETATM   40  H   UNK     0     174.024 181.569 175.658  0.00  0.00     0.210 HD
ENDBRANCH  19  39
BRANCH  20  41
HETATM   41  O   UNK     0     172.514 182.735 174.071  0.00  0.00    -0.393 OA
HETATM   42  H   UNK     0     171.955 183.160 173.399  0.00  0.00     0.210 HD
ENDBRANCH  20  41
ENDBRANCH   1   3
TORSDOF 12
ENDMDL
MODEL 5
REMARK VINA RESULT:      -7.4      1.706      2.741
REMARK  12 active torsions:
REMARK  status: ('A' for Active; 'I' for Inactive)
REMARK    1  A    between atoms: O_1  and  C_10 
REMARK    2  A    between atoms: O_2  and  C_17 
REMARK    3  A    between atoms: O_3  and  C_20 
REMARK    4  A    between atoms: O_4  and  C_27 
REMARK    5  A    between atoms: O_6  and  C_29 
REMARK    6  A    between atoms: O_7  and  C_28 
REMARK    7  A    between atoms: O_8  and  C_33 
REMARK    8  A    between atoms: C_11  and  C_20 
REMARK    9  A    between atoms: C_20  and  C_28 
REMARK   10  A    between atoms: C_28  and  C_31 
REMARK   11  A    between atoms: C_31  and  C_32 
REMARK   12  A    between atoms: C_32  and  C_33 
ROOT
HETATM    1  O   UNK     0     167.269 171.869 168.109  0.00  0.00    -0.384 OA
HETATM    2  H   UNK     0     166.546 171.399 168.548  0.00  0.00     0.211 HD
ENDROOT
BRANCH   1   3
HETATM    3  C   UNK     0     167.118 173.301 168.242  0.00  0.00     0.090 C 
HETATM    4  C   UNK     0     166.555 173.636 169.648  0.00  0.00    -0.000 C 
HETATM    5  C   UNK     0     165.160 172.963 169.568  0.00  0.00     0.034 C 
HETATM    6  C   UNK     0     167.485 173.024 170.705  0.00  0.00     0.045 C 
HETATM    7  C   UNK     0     166.417 175.163 169.900  0.00  0.00     0.019 C 
HETATM    8  C   UNK     0     164.686 173.267 168.128  0.00  0.00     0.012 C 
HETATM    9  C   UNK     0     165.943 173.675 167.327  0.00  0.00     0.044 C 
HETATM   10  C   UNK     0     168.927 173.552 170.562  0.00  0.00     0.128 C 
HETATM   11  C   UNK     0     169.531 173.419 169.115  0.00  0.00     0.055 C 
HETATM   12  C   UNK     0     170.967 174.087 168.953  0.00  0.00    -0.021 C 
HETATM   13  C   UNK     0     168.506 173.881 168.058  0.00  0.00    -0.034 C 
HETATM   14  C   UNK     0     171.293 174.306 167.446  0.00  0.00     0.071 C 
HETATM   15  C   UNK     0     172.090 173.206 169.614  0.00  0.00     0.045 C 
HETATM   16  C   UNK     0     171.006 175.478 169.646  0.00  0.00     0.017 C 
HETATM   17  C   UNK     0     171.569 173.023 166.642  0.00  0.00     0.047 C 
HETATM   18  C   UNK     0     170.192 175.084 166.758  0.00  0.00     0.154 C 
HETATM   19  C   UNK     0     172.183 171.898 167.468  0.00  0.00     0.147 C 
HETATM   20  C   UNK     0     172.989 172.432 168.644  0.00  0.00     0.147 C 
HETATM   21  O   UNK     0     170.432 175.966 165.936  0.00  0.00    -0.293 OA
HETATM   22  C   UNK     0     168.796 174.687 167.027  0.00  0.00     0.057 C 
BRANCH   5  23
HETATM   23  C   UNK     0     164.144 173.375 170.624  0.00  0.00     0.084 C 
HETATM   24  C   UNK     0     164.872 173.904 171.871  0.00  0.00     0.049 C 
BRANCH  23  25
HETATM   25  O   UNK     0     163.357 174.453 170.099  0.00  0.00    -0.387 OA
HETATM   26  H   UNK     0     163.382 175.195 170.725  0.00  0.00     0.210 HD
ENDBRANCH  23  25
BRANCH  23  27
HETATM   27  C   UNK     0     163.184 172.214 171.001  0.00  0.00     0.152 C 
BRANCH  27  28
HETATM   28  O   UNK     0     161.841 172.705 171.073  0.00  0.00    -0.393 OA
HETATM   29  H   UNK     0     161.342 172.295 170.347  0.00  0.00     0.210 HD
ENDBRANCH  27  28
BRANCH  27  30
HETATM   30  C   UNK     0     163.520 171.524 172.338  0.00  0.00     0.037 C 
BRANCH  30  31
HETATM   31  C   UNK     0     162.501 170.426 172.692  0.00  0.00     0.040 C 
BRANCH  31  32
HETATM   32  C   UNK     0     161.659 170.717 173.952  0.00  0.00     0.051 C 
HETATM   33  C   UNK     0     161.068 169.408 174.488  0.00  0.00     0.045 C 
HETATM   34  C   UNK     0     162.468 171.411 175.051  0.00  0.00     0.045 C 
BRANCH  32  35
HETATM   35  O   UNK     0     160.574 171.569 173.582  0.00  0.00    -0.391 OA
HETATM   36  H   UNK     0     160.920 172.465 173.434  0.00  0.00     0.210 HD
ENDBRANCH  32  35
ENDBRANCH  31  32
ENDBRANCH  30  31
ENDBRANCH  27  30
ENDBRANCH  23  27
ENDBRANCH   5  23
BRANCH  10  37
HETATM   37  O   UNK     0     169.728 172.846 171.506  0.00  0.00    -0.395 OA
HETATM   38  H   UNK     0     170.074 172.052 171.065  0.00  0.00     0.210 HD
ENDBRANCH  10  37
BRANCH  19  39
HETATM   39  O   UNK     0     173.007 171.104 166.620  0.00  0.00    -0.393 OA
HETATM   40  H   UNK     0     173.077 170.215 167.008  0.00  0.00     0.210 HD
ENDBRANCH  19  39
BRANCH  20  41
HETATM   41  O   UNK     0     174.028 173.296 168.183  0.00  0.00    -0.393 OA
HETATM   42  H   UNK     0     174.435 172.878 167.406  0.00  0.00     0.210 HD
ENDBRANCH  20  41
ENDBRANCH   1   3
TORSDOF 12
ENDMDL
MODEL 6
REMARK VINA RESULT:      -7.3      1.731      3.642
REMARK  12 active torsions:
REMARK  status: ('A' for Active; 'I' for Inactive)
REMARK    1  A    between atoms: O_1  and  C_10 
REMARK    2  A    between atoms: O_2  and  C_17 
REMARK    3  A    between atoms: O_3  and  C_20 
REMARK    4  A    between atoms: O_4  and  C_27 
REMARK    5  A    between atoms: O_6  and  C_29 
REMARK    6  A    between atoms: O_7  and  C_28 
REMARK    7  A    between atoms: O_8  and  C_33 
REMARK    8  A    between atoms: C_11  and  C_20 
REMARK    9  A    between atoms: C_20  and  C_28 
REMARK   10  A    between atoms: C_28  and  C_31 
REMARK   11  A    between atoms: C_31  and  C_32 
REMARK   12  A    between atoms: C_32  and  C_33 
ROOT
HETATM    1  O   UNK     0     167.346 171.848 168.118  0.00  0.00    -0.384 OA
HETATM    2  H   UNK     0     168.089 171.533 168.652  0.00  0.00     0.211 HD
ENDROOT
BRANCH   1   3
HETATM    3  C   UNK     0     167.183 173.279 168.240  0.00  0.00     0.090 C 
HETATM    4  C   UNK     0     166.628 173.621 169.647  0.00  0.00    -0.000 C 
HETATM    5  C   UNK     0     165.238 172.934 169.584  0.00  0.00     0.034 C 
HETATM    6  C   UNK     0     167.571 173.027 170.702  0.00  0.00     0.045 C 
HETATM    7  C   UNK     0     166.477 175.149 169.886  0.00  0.00     0.019 C 
HETATM    8  C   UNK     0     164.751 173.221 168.145  0.00  0.00     0.012 C 
HETATM    9  C   UNK     0     165.997 173.633 167.331  0.00  0.00     0.044 C 
HETATM   10  C   UNK     0     169.007 173.567 170.543  0.00  0.00     0.128 C 
HETATM   11  C   UNK     0     169.601 173.427 169.092  0.00  0.00     0.055 C 
HETATM   12  C   UNK     0     171.030 174.108 168.913  0.00  0.00    -0.021 C 
HETATM   13  C   UNK     0     168.563 173.870 168.039  0.00  0.00    -0.034 C 
HETATM   14  C   UNK     0     171.342 174.316 167.402  0.00  0.00     0.071 C 
HETATM   15  C   UNK     0     172.166 173.243 169.573  0.00  0.00     0.045 C 
HETATM   16  C   UNK     0     171.061 175.505 169.593  0.00  0.00     0.017 C 
HETATM   17  C   UNK     0     171.623 173.028 166.606  0.00  0.00     0.047 C 
HETATM   18  C   UNK     0     170.228 175.078 166.715  0.00  0.00     0.154 C 
HETATM   19  C   UNK     0     172.254 171.917 167.438  0.00  0.00     0.147 C 
HETATM   20  C   UNK     0     173.064 172.469 168.603  0.00  0.00     0.147 C 
HETATM   21  O   UNK     0     170.454 175.954 165.883  0.00  0.00    -0.293 OA
HETATM   22  C   UNK     0     168.838 174.670 166.999  0.00  0.00     0.057 C 
BRANCH   5  23
HETATM   23  C   UNK     0     164.227 173.347 170.644  0.00  0.00     0.084 C 
HETATM   24  C   UNK     0     163.830 174.818 170.443  0.00  0.00     0.049 C 
BRANCH  23  25
HETATM   25  O   UNK     0     163.043 172.557 170.472  0.00  0.00    -0.387 OA
HETATM   26  H   UNK     0     163.103 172.077 169.629  0.00  0.00     0.210 HD
ENDBRANCH  23  25
BRANCH  23  27
HETATM   27  C   UNK     0     164.758 173.114 172.085  0.00  0.00     0.152 C 
BRANCH  27  28
HETATM   28  O   UNK     0     163.916 172.175 172.761  0.00  0.00    -0.393 OA
HETATM   29  H   UNK     0     164.495 171.552 173.232  0.00  0.00     0.210 HD
ENDBRANCH  27  28
BRANCH  27  30
HETATM   30  C   UNK     0     164.844 174.392 172.941  0.00  0.00     0.037 C 
BRANCH  30  31
HETATM   31  C   UNK     0     165.654 174.169 174.232  0.00  0.00     0.040 C 
BRANCH  31  32
HETATM   32  C   UNK     0     166.984 174.950 174.297  0.00  0.00     0.051 C 
HETATM   33  C   UNK     0     166.978 175.873 175.520  0.00  0.00     0.045 C 
HETATM   34  C   UNK     0     168.204 174.027 174.347  0.00  0.00     0.045 C 
BRANCH  32  35
HETATM   35  O   UNK     0     167.083 175.768 173.130  0.00  0.00    -0.391 OA
HETATM   36  H   UNK     0     166.305 175.607 172.570  0.00  0.00     0.210 HD
ENDBRANCH  32  35
ENDBRANCH  31  32
ENDBRANCH  30  31
ENDBRANCH  27  30
ENDBRANCH  23  27
ENDBRANCH   5  23
BRANCH  10  37
HETATM   37  O   UNK     0     169.822 172.878 171.487  0.00  0.00    -0.395 OA
HETATM   38  H   UNK     0     169.246 172.286 172.000  0.00  0.00     0.210 HD
ENDBRANCH  10  37
BRANCH  19  39
HETATM   39  O   UNK     0     173.079 171.123 166.591  0.00  0.00    -0.393 OA
HETATM   40  H   UNK     0     172.598 170.307 166.373  0.00  0.00     0.210 HD
ENDBRANCH  19  39
BRANCH  20  41
HETATM   41  O   UNK     0     174.092 173.339 168.126  0.00  0.00    -0.393 OA
HETATM   42  H   UNK     0     174.058 174.153 168.655  0.00  0.00     0.210 HD
ENDBRANCH  20  41
ENDBRANCH   1   3
TORSDOF 12
ENDMDL
MODEL 7
REMARK VINA RESULT:      -7.3      9.289     11.242
REMARK  12 active torsions:
REMARK  status: ('A' for Active; 'I' for Inactive)
REMARK    1  A    between atoms: O_1  and  C_10 
REMARK    2  A    between atoms: O_2  and  C_17 
REMARK    3  A    between atoms: O_3  and  C_20 
REMARK    4  A    between atoms: O_4  and  C_27 
REMARK    5  A    between atoms: O_6  and  C_29 
REMARK    6  A    between atoms: O_7  and  C_28 
REMARK    7  A    between atoms: O_8  and  C_33 
REMARK    8  A    between atoms: C_11  and  C_20 
REMARK    9  A    between atoms: C_20  and  C_28 
REMARK   10  A    between atoms: C_28  and  C_31 
REMARK   11  A    between atoms: C_31  and  C_32 
REMARK   12  A    between atoms: C_32  and  C_33 
ROOT
HETATM    1  O   UNK     0     167.352 182.418 177.513  0.00  0.00    -0.384 OA
HETATM    2  H   UNK     0     168.192 182.802 177.801  0.00  0.00     0.211 HD
ENDROOT
BRANCH   1   3
HETATM    3  C   UNK     0     167.487 181.004 177.242  0.00  0.00     0.090 C 
HETATM    4  C   UNK     0     166.649 180.632 175.992  0.00  0.00    -0.000 C 
HETATM    5  C   UNK     0     165.217 180.937 176.503  0.00  0.00     0.034 C 
HETATM    6  C   UNK     0     167.097 181.519 174.822  0.00  0.00     0.045 C 
HETATM    7  C   UNK     0     166.785 179.136 175.592  0.00  0.00     0.019 C 
HETATM    8  C   UNK     0     165.234 180.435 177.965  0.00  0.00     0.012 C 
HETATM    9  C   UNK     0     166.719 180.297 178.368  0.00  0.00     0.044 C 
HETATM   10  C   UNK     0     168.602 181.351 174.531  0.00  0.00     0.128 C 
HETATM   11  C   UNK     0     169.535 181.536 175.785  0.00  0.00     0.055 C 
HETATM   12  C   UNK     0     171.071 181.231 175.497  0.00  0.00    -0.021 C 
HETATM   13  C   UNK     0     168.964 180.771 176.998  0.00  0.00    -0.034 C 
HETATM   14  C   UNK     0     171.836 181.003 176.833  0.00  0.00     0.071 C 
HETATM   15  C   UNK     0     171.749 182.400 174.691  0.00  0.00     0.045 C 
HETATM   16  C   UNK     0     171.222 179.938 174.646  0.00  0.00     0.017 C 
HETATM   17  C   UNK     0     172.033 182.261 177.698  0.00  0.00     0.047 C 
HETATM   18  C   UNK     0     171.163 179.937 177.672  0.00  0.00     0.154 C 
HETATM   19  C   UNK     0     172.136 183.552 176.893  0.00  0.00     0.147 C 
HETATM   20  C   UNK     0     172.686 183.307 175.495  0.00  0.00     0.147 C 
HETATM   21  O   UNK     0     171.806 179.091 178.289  0.00  0.00    -0.293 OA
HETATM   22  C   UNK     0     169.695 179.997 177.813  0.00  0.00     0.057 C 
BRANCH   5  23
HETATM   23  C   UNK     0     164.067 180.356 175.692  0.00  0.00     0.084 C 
HETATM   24  C   UNK     0     163.783 181.251 174.474  0.00  0.00     0.049 C 
BRANCH  23  25
HETATM   25  O   UNK     0     164.466 179.071 175.196  0.00  0.00    -0.387 OA
HETATM   26  H   UNK     0     165.185 179.191 174.554  0.00  0.00     0.210 HD
ENDBRANCH  23  25
BRANCH  23  27
HETATM   27  C   UNK     0     162.783 180.168 176.545  0.00  0.00     0.152 C 
BRANCH  27  28
HETATM   28  O   UNK     0     162.141 178.941 176.181  0.00  0.00    -0.393 OA
HETATM   29  H   UNK     0     162.834 178.264 176.098  0.00  0.00     0.210 HD
ENDBRANCH  27  28
BRANCH  27  30
HETATM   30  C   UNK     0     161.758 181.310 176.406  0.00  0.00     0.037 C 
BRANCH  30  31
HETATM   31  C   UNK     0     161.040 181.605 177.736  0.00  0.00     0.040 C 
BRANCH  31  32
HETATM   32  C   UNK     0     159.780 180.749 177.987  0.00  0.00     0.051 C 
HETATM   33  C   UNK     0     158.868 181.462 178.991  0.00  0.00     0.045 C 
HETATM   34  C   UNK     0     159.007 180.452 176.700  0.00  0.00     0.045 C 
BRANCH  32  35
HETATM   35  O   UNK     0     160.187 179.509 178.567  0.00  0.00    -0.391 OA
HETATM   36  H   UNK     0     161.034 179.244 178.170  0.00  0.00     0.210 HD
ENDBRANCH  32  35
ENDBRANCH  31  32
ENDBRANCH  30  31
ENDBRANCH  27  30
ENDBRANCH  23  27
ENDBRANCH   5  23
BRANCH  10  37
HETATM   37  O   UNK     0     168.940 182.290 173.513  0.00  0.00    -0.395 OA
HETATM   38  H   UNK     0     169.909 182.302 173.431  0.00  0.00     0.210 HD
ENDBRANCH  10  37
BRANCH  19  39
HETATM   39  O   UNK     0     172.966 184.468 177.601  0.00  0.00    -0.393 OA
HETATM   40  H   UNK     0     173.002 185.299 177.097  0.00  0.00     0.210 HD
ENDBRANCH  19  39
BRANCH  20  41
HETATM   41  O   UNK     0     173.975 182.696 175.568  0.00  0.00    -0.393 OA
HETATM   42  H   UNK     0     174.245 182.690 176.502  0.00  0.00     0.210 HD
ENDBRANCH  20  41
ENDBRANCH   1   3
TORSDOF 12
ENDMDL
MODEL 8
REMARK VINA RESULT:      -6.9      1.616      8.553
REMARK  12 active torsions:
REMARK  status: ('A' for Active; 'I' for Inactive)
REMARK    1  A    between atoms: O_1  and  C_10 
REMARK    2  A    between atoms: O_2  and  C_17 
REMARK    3  A    between atoms: O_3  and  C_20 
REMARK    4  A    between atoms: O_4  and  C_27 
REMARK    5  A    between atoms: O_6  and  C_29 
REMARK    6  A    between atoms: O_7  and  C_28 
REMARK    7  A    between atoms: O_8  and  C_33 
REMARK    8  A    between atoms: C_11  and  C_20 
REMARK    9  A    between atoms: C_20  and  C_28 
REMARK   10  A    between atoms: C_28  and  C_31 
REMARK   11  A    between atoms: C_31  and  C_32 
REMARK   12  A    between atoms: C_32  and  C_33 
ROOT
HETATM    1  O   UNK     0     166.096 175.471 167.867  0.00  0.00    -0.384 OA
HETATM    2  H   UNK     0     165.268 175.538 167.370  0.00  0.00     0.211 HD
ENDROOT
BRANCH   1   3
HETATM    3  C   UNK     0     166.451 174.091 168.110  0.00  0.00     0.090 C 
HETATM    4  C   UNK     0     167.313 173.994 169.395  0.00  0.00    -0.000 C 
HETATM    5  C   UNK     0     168.570 174.793 168.960  0.00  0.00     0.034 C 
HETATM    6  C   UNK     0     166.537 174.633 170.554  0.00  0.00     0.045 C 
HETATM    7  C   UNK     0     167.691 172.533 169.765  0.00  0.00     0.019 C 
HETATM    8  C   UNK     0     168.790 174.363 167.491  0.00  0.00     0.012 C 
HETATM    9  C   UNK     0     167.464 173.731 167.014  0.00  0.00     0.044 C 
HETATM   10  C   UNK     0     165.173 173.944 170.767  0.00  0.00     0.128 C 
HETATM   11  C   UNK     0     164.288 173.832 169.471  0.00  0.00     0.055 C 
HETATM   12  C   UNK     0     162.944 173.003 169.678  0.00  0.00    -0.021 C 
HETATM   13  C   UNK     0     165.139 173.351 168.276  0.00  0.00    -0.034 C 
HETATM   14  C   UNK     0     162.362 172.566 168.302  0.00  0.00     0.071 C 
HETATM   15  C   UNK     0     161.868 173.838 170.466  0.00  0.00     0.045 C 
HETATM   16  C   UNK     0     163.218 171.713 170.500  0.00  0.00     0.017 C 
HETATM   17  C   UNK     0     161.775 173.704 167.446  0.00  0.00     0.047 C 
HETATM   18  C   UNK     0     163.399 171.827 167.482  0.00  0.00     0.154 C 
HETATM   19  C   UNK     0     161.196 174.852 168.264  0.00  0.00     0.147 C 
HETATM   20  C   UNK     0     160.708 174.388 169.630  0.00  0.00     0.147 C 
HETATM   21  O   UNK     0     163.118 170.830 166.820  0.00  0.00    -0.293 OA
HETATM   22  C   UNK     0     164.758 172.398 167.414  0.00  0.00     0.057 C 
BRANCH   5  23
HETATM   23  C   UNK     0     169.815 174.623 169.819  0.00  0.00     0.084 C 
HETATM   24  C   UNK     0     170.856 175.692 169.446  0.00  0.00     0.049 C 
BRANCH  23  25
HETATM   25  O   UNK     0     169.453 174.837 171.190  0.00  0.00    -0.387 OA
HETATM   26  H   UNK     0     169.116 175.743 171.289  0.00  0.00     0.210 HD
ENDBRANCH  23  25
BRANCH  23  27
HETATM   27  C   UNK     0     170.424 173.200 169.695  0.00  0.00     0.152 C 
BRANCH  27  28
HETATM   28  O   UNK     0     170.834 172.740 170.987  0.00  0.00    -0.393 OA
HETATM   29  H   UNK     0     170.029 172.568 171.504  0.00  0.00     0.210 HD
ENDBRANCH  27  28
BRANCH  27  30
HETATM   30  C   UNK     0     171.631 173.108 168.742  0.00  0.00     0.037 C 
BRANCH  30  31
HETATM   31  C   UNK     0     171.374 172.135 167.577  0.00  0.00     0.040 C 
BRANCH  31  32
HETATM   32  C   UNK     0     172.620 171.814 166.724  0.00  0.00     0.051 C 
HETATM   33  C   UNK     0     172.826 172.917 165.681  0.00  0.00     0.045 C 
HETATM   34  C   UNK     0     173.886 171.656 167.572  0.00  0.00     0.045 C 
BRANCH  32  35
HETATM   35  O   UNK     0     172.386 170.589 166.028  0.00  0.00    -0.391 OA
HETATM   36  H   UNK     0     173.126 170.432 165.419  0.00  0.00     0.210 HD
ENDBRANCH  32  35
ENDBRANCH  31  32
ENDBRANCH  30  31
ENDBRANCH  27  30
ENDBRANCH  23  27
ENDBRANCH   5  23
BRANCH  10  37
HETATM   37  O   UNK     0     164.487 174.674 171.781  0.00  0.00    -0.395 OA
HETATM   38  H   UNK     0     164.050 174.031 172.364  0.00  0.00     0.210 HD
ENDBRANCH  10  37
BRANCH  19  39
HETATM   39  O   UNK     0     160.129 175.445 167.530  0.00  0.00    -0.393 OA
HETATM   40  H   UNK     0     160.132 176.401 167.705  0.00  0.00     0.210 HD
ENDBRANCH  19  39
BRANCH  20  41
HETATM   41  O   UNK     0     159.716 173.369 169.483  0.00  0.00    -0.393 OA
HETATM   42  H   UNK     0     158.879 173.805 169.252  0.00  0.00     0.210 HD
ENDBRANCH  20  41
ENDBRANCH   1   3
TORSDOF 12
ENDMDL
MODEL 9
REMARK VINA RESULT:      -6.8      6.750     11.533
REMARK  12 active torsions:
REMARK  status: ('A' for Active; 'I' for Inactive)
REMARK    1  A    between atoms: O_1  and  C_10 
REMARK    2  A    between atoms: O_2  and  C_17 
REMARK    3  A    between atoms: O_3  and  C_20 
REMARK    4  A    between atoms: O_4  and  C_27 
REMARK    5  A    between atoms: O_6  and  C_29 
REMARK    6  A    between atoms: O_7  and  C_28 
REMARK    7  A    between atoms: O_8  and  C_33 
REMARK    8  A    between atoms: C_11  and  C_20 
REMARK    9  A    between atoms: C_20  and  C_28 
REMARK   10  A    between atoms: C_28  and  C_31 
REMARK   11  A    between atoms: C_31  and  C_32 
REMARK   12  A    between atoms: C_32  and  C_33 
ROOT
HETATM    1  O   UNK     0     164.002 176.686 174.702  0.00  0.00    -0.384 OA
HETATM    2  H   UNK     0     164.626 177.130 174.110  0.00  0.00     0.211 HD
ENDROOT
BRANCH   1   3
HETATM    3  C   UNK     0     164.621 176.369 175.970  0.00  0.00     0.090 C 
HETATM    4  C   UNK     0     166.150 176.609 175.877  0.00  0.00    -0.000 C 
HETATM    5  C   UNK     0     166.546 175.548 174.817  0.00  0.00     0.034 C 
HETATM    6  C   UNK     0     166.391 178.058 175.432  0.00  0.00     0.045 C 
HETATM    7  C   UNK     0     166.889 176.349 177.219  0.00  0.00     0.019 C 
HETATM    8  C   UNK     0     165.678 174.322 175.182  0.00  0.00     0.012 C 
HETATM    9  C   UNK     0     164.542 174.840 176.092  0.00  0.00     0.044 C 
HETATM   10  C   UNK     0     165.745 179.063 176.408  0.00  0.00     0.128 C 
HETATM   11  C   UNK     0     164.224 178.796 176.709  0.00  0.00     0.055 C 
HETATM   12  C   UNK     0     163.608 179.760 177.817  0.00  0.00    -0.021 C 
HETATM   13  C   UNK     0     163.983 177.297 176.984  0.00  0.00    -0.034 C 
HETATM   14  C   UNK     0     162.278 179.168 178.368  0.00  0.00     0.071 C 
HETATM   15  C   UNK     0     163.348 181.203 177.246  0.00  0.00     0.045 C 
HETATM   16  C   UNK     0     164.585 179.909 179.017  0.00  0.00     0.017 C 
HETATM   17  C   UNK     0     161.092 179.195 177.386  0.00  0.00     0.047 C 
HETATM   18  C   UNK     0     162.473 177.748 178.855  0.00  0.00     0.154 C 
HETATM   19  C   UNK     0     161.137 180.356 176.399  0.00  0.00     0.147 C 
HETATM   20  C   UNK     0     161.884 181.555 176.965  0.00  0.00     0.147 C 
HETATM   21  O   UNK     0     161.950 177.334 179.887  0.00  0.00    -0.293 OA
HETATM   22  C   UNK     0     163.241 176.825 177.995  0.00  0.00     0.057 C 
BRANCH   5  23
HETATM   23  C   UNK     0     168.027 175.214 174.708  0.00  0.00     0.084 C 
HETATM   24  C   UNK     0     168.854 176.509 174.690  0.00  0.00     0.049 C 
BRANCH  23  25
HETATM   25  O   UNK     0     168.411 174.476 175.876  0.00  0.00    -0.387 OA
HETATM   26  H   UNK     0     167.733 174.596 176.561  0.00  0.00     0.210 HD
ENDBRANCH  23  25
BRANCH  23  27
HETATM   27  C   UNK     0     168.342 174.344 173.460  0.00  0.00     0.152 C 
BRANCH  27  28
HETATM   28  O   UNK     0     169.156 173.231 173.845  0.00  0.00    -0.393 OA
HETATM   29  H   UNK     0     170.069 173.554 173.930  0.00  0.00     0.210 HD
ENDBRANCH  27  28
BRANCH  27  30
HETATM   30  C   UNK     0     169.062 175.101 172.327  0.00  0.00     0.037 C 
BRANCH  30  31
HETATM   31  C   UNK     0     169.622 174.145 171.259  0.00  0.00     0.040 C 
BRANCH  31  32
HETATM   32  C   UNK     0     171.056 174.473 170.794  0.00  0.00     0.051 C 
HETATM   33  C   UNK     0     171.649 173.264 170.063  0.00  0.00     0.045 C 
HETATM   34  C   UNK     0     171.111 175.707 169.889  0.00  0.00     0.045 C 
BRANCH  32  35
HETATM   35  O   UNK     0     171.858 174.724 171.950  0.00  0.00    -0.391 OA
HETATM   36  H   UNK     0     171.704 174.014 172.595  0.00  0.00     0.210 HD
ENDBRANCH  32  35
ENDBRANCH  31  32
ENDBRANCH  30  31
ENDBRANCH  27  30
ENDBRANCH  23  27
ENDBRANCH   5  23
BRANCH  10  37
HETATM   37  O   UNK     0     165.926 180.363 175.852  0.00  0.00    -0.395 OA
HETATM   38  H   UNK     0     165.474 180.383 174.992  0.00  0.00     0.210 HD
ENDBRANCH  10  37
BRANCH  19  39
HETATM   39  O   UNK     0     159.802 180.718 176.056  0.00  0.00    -0.393 OA
HETATM   40  H   UNK     0     159.839 181.464 175.434  0.00  0.00     0.210 HD
ENDBRANCH  19  39
BRANCH  20  41
HETATM   41  O   UNK     0     161.271 181.995 178.178  0.00  0.00    -0.393 OA
HETATM   42  H   UNK     0     161.966 182.051 178.855  0.00  0.00     0.210 HD
ENDBRANCH  20  41
ENDBRANCH   1   3
TORSDOF 12
ENDMDL
MODEL 10
REMARK VINA RESULT:      -6.7      5.272      8.634
REMARK  12 active torsions:
REMARK  status: ('A' for Active; 'I' for Inactive)
REMARK    1  A    between atoms: O_1  and  C_10 
REMARK    2  A    between atoms: O_2  and  C_17 
REMARK    3  A    between atoms: O_3  and  C_20 
REMARK    4  A    between atoms: O_4  and  C_27 
REMARK    5  A    between atoms: O_6  and  C_29 
REMARK    6  A    between atoms: O_7  and  C_28 
REMARK    7  A    between atoms: O_8  and  C_33 
REMARK    8  A    between atoms: C_11  and  C_20 
REMARK    9  A    between atoms: C_20  and  C_28 
REMARK   10  A    between atoms: C_28  and  C_31 
REMARK   11  A    between atoms: C_31  and  C_32 
REMARK   12  A    between atoms: C_32  and  C_33 
ROOT
HETATM    1  O   UNK     0     161.673 171.507 173.503  0.00  0.00    -0.384 OA
HETATM    2  H   UNK     0     161.392 172.238 174.072  0.00  0.00     0.211 HD
ENDROOT
BRANCH   1   3
HETATM    3  C   UNK     0     163.104 171.521 173.303  0.00  0.00     0.090 C 
HETATM    4  C   UNK     0     163.631 170.065 173.215  0.00  0.00    -0.000 C 
HETATM    5  C   UNK     0     163.302 169.552 174.641  0.00  0.00     0.034 C 
HETATM    6  C   UNK     0     162.870 169.337 172.098  0.00  0.00     0.045 C 
HETATM    7  C   UNK     0     165.158 169.987 172.939  0.00  0.00     0.019 C 
HETATM    8  C   UNK     0     163.638 170.756 175.552  0.00  0.00     0.012 C 
HETATM    9  C   UNK     0     163.698 171.999 174.636  0.00  0.00     0.044 C 
HETATM   10  C   UNK     0     163.037 170.053 170.742  0.00  0.00     0.128 C 
HETATM   11  C   UNK     0     162.694 171.589 170.768  0.00  0.00     0.055 C 
HETATM   12  C   UNK     0     162.997 172.340 169.397  0.00  0.00    -0.021 C 
HETATM   13  C   UNK     0     163.332 172.263 172.001  0.00  0.00    -0.034 C 
HETATM   14  C   UNK     0     163.058 173.878 169.626  0.00  0.00     0.071 C 
HETATM   15  C   UNK     0     161.910 172.011 168.308  0.00  0.00     0.045 C 
HETATM   16  C   UNK     0     164.373 171.898 168.822  0.00  0.00     0.017 C 
HETATM   17  C   UNK     0     161.709 174.550 169.937  0.00  0.00     0.047 C 
HETATM   18  C   UNK     0     164.039 174.227 170.726  0.00  0.00     0.154 C 
HETATM   19  C   UNK     0     160.513 173.854 169.295  0.00  0.00     0.147 C 
HETATM   20  C   UNK     0     160.900 173.124 168.016  0.00  0.00     0.147 C 
HETATM   21  O   UNK     0     164.798 175.190 170.642  0.00  0.00    -0.293 OA
HETATM   22  C   UNK     0     163.995 173.428 171.966  0.00  0.00     0.057 C 
BRANCH   5  23
HETATM   23  C   UNK     0     163.994 168.269 175.079  0.00  0.00     0.084 C 
HETATM   24  C   UNK     0     164.437 167.467 173.845  0.00  0.00     0.049 C 
BRANCH  23  25
HETATM   25  O   UNK     0     165.176 168.618 175.810  0.00  0.00    -0.387 OA
HETATM   26  H   UNK     0     165.479 169.494 175.519  0.00  0.00     0.210 HD
ENDBRANCH  23  25
BRANCH  23  27
HETATM   27  C   UNK     0     163.093 167.402 176.001  0.00  0.00     0.152 C 
BRANCH  27  28
HETATM   28  O   UNK     0     162.498 166.348 175.237  0.00  0.00    -0.393 OA
HETATM   29  H   UNK     0     161.573 166.596 175.070  0.00  0.00     0.210 HD
ENDBRANCH  27  28
BRANCH  27  30
HETATM   30  C   UNK     0     161.968 168.185 176.705  0.00  0.00     0.037 C 
BRANCH  30  31
HETATM   31  C   UNK     0     160.573 167.752 176.220  0.00  0.00     0.040 C 
BRANCH  31  32
HETATM   32  C   UNK     0     159.709 168.898 175.651  0.00  0.00     0.051 C 
HETATM   33  C   UNK     0     158.227 168.523 175.754  0.00  0.00     0.045 C 
HETATM   34  C   UNK     0     159.959 170.230 176.363  0.00  0.00     0.045 C 
BRANCH  32  35
HETATM   35  O   UNK     0     160.026 169.058 174.268  0.00  0.00    -0.391 OA
HETATM   36  H   UNK     0     159.323 168.646 173.738  0.00  0.00     0.210 HD
ENDBRANCH  32  35
ENDBRANCH  31  32
ENDBRANCH  30  31
ENDBRANCH  27  30
ENDBRANCH  23  27
ENDBRANCH   5  23
BRANCH  10  37
HETATM   37  O   UNK     0     162.210 169.372 169.803  0.00  0.00    -0.395 OA
HETATM   38  H   UNK     0     162.585 168.485 169.667  0.00  0.00     0.210 HD
ENDBRANCH  10  37
BRANCH  19  39
HETATM   39  O   UNK     0     159.506 174.826 169.028  0.00  0.00    -0.393 OA
HETATM   40  H   UNK     0     159.701 175.619 169.555  0.00  0.00     0.210 HD
ENDBRANCH  19  39
BRANCH  20  41
HETATM   41  O   UNK     0     161.472 174.037 167.077  0.00  0.00    -0.393 OA
HETATM   42  H   UNK     0     162.216 174.482 167.515  0.00  0.00     0.210 HD
ENDBRANCH  20  41
ENDBRANCH   1   3
TORSDOF 12
ENDMDL
