MODEL 1
REMARK VINA RESULT:      -6.4      0.000      0.000
REMARK  4 active torsions:
REMARK  status: ('A' for Active; 'I' for Inactive)
REMARK    1  A    between atoms: O_1  and  C_10 
REMARK    2  A    between atoms: O_1  and  C_11 
REMARK    3  A    between atoms: N_3  and  C_7 
REMARK    4  A    between atoms: C_4  and  C_10 
ROOT
HETATM    1  O   UNK     0     174.705 167.590 148.766  0.00  0.00    -0.318 OA
ENDROOT
BRANCH   1   2
HETATM    2  C   UNK     0     173.677 167.807 149.643  0.00  0.00     0.293 C 
HETATM    3  O   UNK     0     173.680 168.692 150.508  0.00  0.00    -0.259 OA
BRANCH   2   4
HETATM    4  C   UNK     0     172.587 166.868 149.431  0.00  0.00     0.039 A 
HETATM    5  C   UNK     0     171.322 167.138 149.955  0.00  0.00     0.020 A 
HETATM    6  C   UNK     0     170.277 166.236 149.752  0.00  0.00     0.030 A 
HETATM    7  C   UNK     0     170.495 165.066 149.025  0.00  0.00     0.025 A 
HETATM    8  C   UNK     0     171.759 164.797 148.501  0.00  0.00     0.030 A 
HETATM    9  C   UNK     0     172.805 165.697 148.704  0.00  0.00     0.020 A 
BRANCH   7  10
HETATM   10  N   UNK     0     169.438 164.156 148.820  0.00  0.00    -0.399 N 
HETATM   11  H   UNK     0     168.517 164.496 148.575  0.00  0.00     0.156 HD
HETATM   12  H   UNK     0     169.599 163.162 148.920  0.00  0.00     0.156 HD
ENDBRANCH   7  10
ENDBRANCH   2   4
ENDBRANCH   1   2
BRANCH   1  13
HETATM   13  C   UNK     0     176.025 167.532 149.317  0.00  0.00     0.174 C 
HETATM   14  C   UNK     0     176.189 166.227 150.065  0.00  0.00     0.034 C 
ENDBRANCH   1  13
TORSDOF 4
ENDMDL
MODEL 2
REMARK VINA RESULT:      -6.2      3.434      5.116
REMARK  4 active torsions:
REMARK  status: ('A' for Active; 'I' for Inactive)
REMARK    1  A    between atoms: O_1  and  C_10 
REMARK    2  A    between atoms: O_1  and  C_11 
REMARK    3  A    between atoms: N_3  and  C_7 
REMARK    4  A    between atoms: C_4  and  C_10 
ROOT
HETATM    1  O   UNK     0     170.420 163.380 148.464  0.00  0.00    -0.318 OA
ENDROOT
BRANCH   1   2
HETATM    2  C   UNK     0     169.895 164.639 148.580  0.00  0.00     0.293 C 
HETATM    3  O   UNK     0     168.712 164.920 148.348  0.00  0.00    -0.259 OA
BRANCH   2   4
HETATM    4  C   UNK     0     170.900 165.599 149.007  0.00  0.00     0.039 A 
HETATM    5  C   UNK     0     172.208 165.498 148.533  0.00  0.00     0.020 A 
HETATM    6  C   UNK     0     173.172 166.419 148.944  0.00  0.00     0.030 A 
HETATM    7  C   UNK     0     172.829 167.441 149.828  0.00  0.00     0.025 A 
HETATM    8  C   UNK     0     171.521 167.542 150.303  0.00  0.00     0.030 A 
HETATM    9  C   UNK     0     170.557 166.621 149.893  0.00  0.00     0.020 A 
BRANCH   7  10
HETATM   10  N   UNK     0     173.803 168.371 150.243  0.00  0.00    -0.399 N 
HETATM   11  H   UNK     0     174.340 168.202 151.084  0.00  0.00     0.156 HD
HETATM   12  H   UNK     0     173.965 169.210 149.702  0.00  0.00     0.156 HD
ENDBRANCH   7  10
ENDBRANCH   2   4
ENDBRANCH   1   2
BRANCH   1  13
HETATM   13  C   UNK     0     169.970 162.592 147.357  0.00  0.00     0.174 C 
HETATM   14  C   UNK     0     170.695 163.039 146.106  0.00  0.00     0.034 C 
ENDBRANCH   1  13
TORSDOF 4
ENDMDL
MODEL 3
REMARK VINA RESULT:      -6.1      1.588      2.151
REMARK  4 active torsions:
REMARK  status: ('A' for Active; 'I' for Inactive)
REMARK    1  A    between atoms: O_1  and  C_10 
REMARK    2  A    between atoms: O_1  and  C_11 
REMARK    3  A    between atoms: N_3  and  C_7 
REMARK    4  A    between atoms: C_4  and  C_10 
ROOT
HETATM    1  O   UNK     0     174.689 169.095 150.329  0.00  0.00    -0.318 OA
ENDROOT
BRANCH   1   2
HETATM    2  C   UNK     0     174.735 168.070 149.423  0.00  0.00     0.293 C 
HETATM    3  O   UNK     0     175.716 167.818 148.712  0.00  0.00    -0.259 OA
BRANCH   2   4
HETATM    4  C   UNK     0     173.489 167.321 149.401  0.00  0.00     0.039 A 
HETATM    5  C   UNK     0     172.354 167.835 150.030  0.00  0.00     0.020 A 
HETATM    6  C   UNK     0     171.159 167.115 150.009  0.00  0.00     0.030 A 
HETATM    7  C   UNK     0     171.098 165.882 149.360  0.00  0.00     0.025 A 
HETATM    8  C   UNK     0     172.232 165.368 148.732  0.00  0.00     0.030 A 
HETATM    9  C   UNK     0     173.428 166.087 148.753  0.00  0.00     0.020 A 
BRANCH   7  10
HETATM   10  N   UNK     0     169.891 165.155 149.340  0.00  0.00    -0.399 N 
HETATM   11  H   UNK     0     169.522 164.810 148.464  0.00  0.00     0.156 HD
HETATM   12  H   UNK     0     169.391 164.979 150.202  0.00  0.00     0.156 HD
ENDBRANCH   7  10
ENDBRANCH   2   4
ENDBRANCH   1   2
BRANCH   1  13
HETATM   13  C   UNK     0     175.788 170.013 150.323  0.00  0.00     0.174 C 
HETATM   14  C   UNK     0     175.382 171.261 149.569  0.00  0.00     0.034 C 
ENDBRANCH   1  13
TORSDOF 4
ENDMDL
MODEL 4
REMARK VINA RESULT:      -5.8      3.548      5.489
REMARK  4 active torsions:
REMARK  status: ('A' for Active; 'I' for Inactive)
REMARK    1  A    between atoms: O_1  and  C_10 
REMARK    2  A    between atoms: O_1  and  C_11 
REMARK    3  A    between atoms: N_3  and  C_7 
REMARK    4  A    between atoms: C_4  and  C_10 
ROOT
HETATM    1  O   UNK     0     168.823 164.107 148.351  0.00  0.00    -0.318 OA
ENDROOT
BRANCH   1   2
HETATM    2  C   UNK     0     170.163 163.843 148.427  0.00  0.00     0.293 C 
HETATM    3  O   UNK     0     170.671 162.750 148.145  0.00  0.00    -0.259 OA
BRANCH   2   4
HETATM    4  C   UNK     0     170.911 165.004 148.881  0.00  0.00     0.039 A 
HETATM    5  C   UNK     0     170.267 166.010 149.602  0.00  0.00     0.020 A 
HETATM    6  C   UNK     0     170.985 167.125 150.036  0.00  0.00     0.030 A 
HETATM    7  C   UNK     0     172.346 167.234 149.751  0.00  0.00     0.025 A 
HETATM    8  C   UNK     0     172.989 166.228 149.030  0.00  0.00     0.030 A 
HETATM    9  C   UNK     0     172.272 165.114 148.595  0.00  0.00     0.020 A 
BRANCH   7  10
HETATM   10  N   UNK     0     173.071 168.361 150.190  0.00  0.00    -0.399 N 
HETATM   11  H   UNK     0     174.079 168.321 150.253  0.00  0.00     0.156 HD
HETATM   12  H   UNK     0     172.582 169.209 150.445  0.00  0.00     0.156 HD
ENDBRANCH   7  10
ENDBRANCH   2   4
ENDBRANCH   1   2
BRANCH   1  13
HETATM   13  C   UNK     0     168.167 163.773 147.123  0.00  0.00     0.174 C 
HETATM   14  C   UNK     0     166.912 164.608 146.992  0.00  0.00     0.034 C 
ENDBRANCH   1  13
TORSDOF 4
ENDMDL
MODEL 5
REMARK VINA RESULT:      -5.8     33.437     35.067
REMARK  4 active torsions:
REMARK  status: ('A' for Active; 'I' for Inactive)
REMARK    1  A    between atoms: O_1  and  C_10 
REMARK    2  A    between atoms: O_1  and  C_11 
REMARK    3  A    between atoms: N_3  and  C_7 
REMARK    4  A    between atoms: C_4  and  C_10 
ROOT
HETATM    1  O   UNK     0     190.724 177.633 179.846  0.00  0.00    -0.318 OA
ENDROOT
BRANCH   1   2
HETATM    2  C   UNK     0     191.126 177.012 178.695  0.00  0.00     0.293 C 
HETATM    3  O   UNK     0     192.238 177.172 178.174  0.00  0.00    -0.259 OA
BRANCH   2   4
HETATM    4  C   UNK     0     190.086 176.146 178.164  0.00  0.00     0.039 A 
HETATM    5  C   UNK     0     188.750 176.547 178.218  0.00  0.00     0.020 A 
HETATM    6  C   UNK     0     187.752 175.716 177.709  0.00  0.00     0.030 A 
HETATM    7  C   UNK     0     188.089 174.484 177.146  0.00  0.00     0.025 A 
HETATM    8  C   UNK     0     189.423 174.084 177.093  0.00  0.00     0.030 A 
HETATM    9  C   UNK     0     190.422 174.914 177.602  0.00  0.00     0.020 A 
BRANCH   7  10
HETATM   10  N   UNK     0     187.080 173.645 176.632  0.00  0.00    -0.399 N 
HETATM   11  H   UNK     0     186.108 173.841 176.831  0.00  0.00     0.156 HD
HETATM   12  H   UNK     0     187.327 172.844 176.065  0.00  0.00     0.156 HD
ENDBRANCH   7  10
ENDBRANCH   2   4
ENDBRANCH   1   2
BRANCH   1  13
HETATM   13  C   UNK     0     190.970 176.940 181.075  0.00  0.00     0.174 C 
HETATM   14  C   UNK     0     189.664 176.790 181.825  0.00  0.00     0.034 C 
ENDBRANCH   1  13
TORSDOF 4
ENDMDL
MODEL 6
REMARK VINA RESULT:      -5.6     33.252     34.841
REMARK  4 active torsions:
REMARK  status: ('A' for Active; 'I' for Inactive)
REMARK    1  A    between atoms: O_1  and  C_10 
REMARK    2  A    between atoms: O_1  and  C_11 
REMARK    3  A    between atoms: N_3  and  C_7 
REMARK    4  A    between atoms: C_4  and  C_10 
ROOT
HETATM    1  O   UNK     0     190.965 175.311 179.663  0.00  0.00    -0.318 OA
ENDROOT
BRANCH   1   2
HETATM    2  C   UNK     0     190.636 175.455 178.342  0.00  0.00     0.293 C 
HETATM    3  O   UNK     0     191.439 175.317 177.410  0.00  0.00    -0.259 OA
BRANCH   2   4
HETATM    4  C   UNK     0     189.231 175.790 178.175  0.00  0.00     0.039 A 
HETATM    5  C   UNK     0     188.325 174.812 177.763  0.00  0.00     0.020 A 
HETATM    6  C   UNK     0     186.977 175.135 177.602  0.00  0.00     0.030 A 
HETATM    7  C   UNK     0     186.535 176.433 177.853  0.00  0.00     0.025 A 
HETATM    8  C   UNK     0     187.441 177.410 178.265  0.00  0.00     0.030 A 
HETATM    9  C   UNK     0     188.789 177.089 178.426  0.00  0.00     0.020 A 
BRANCH   7  10
HETATM   10  N   UNK     0     185.173 176.758 177.690  0.00  0.00    -0.399 N 
HETATM   11  H   UNK     0     184.909 177.618 177.227  0.00  0.00     0.156 HD
HETATM   12  H   UNK     0     184.458 176.133 178.038  0.00  0.00     0.156 HD
ENDBRANCH   7  10
ENDBRANCH   2   4
ENDBRANCH   1   2
BRANCH   1  13
HETATM   13  C   UNK     0     192.115 176.029 180.125  0.00  0.00     0.174 C 
HETATM   14  C   UNK     0     191.673 177.370 180.668  0.00  0.00     0.034 C 
ENDBRANCH   1  13
TORSDOF 4
ENDMDL
MODEL 7
REMARK VINA RESULT:      -5.5     27.877     29.305
REMARK  4 active torsions:
REMARK  status: ('A' for Active; 'I' for Inactive)
REMARK    1  A    between atoms: O_1  and  C_10 
REMARK    2  A    between atoms: O_1  and  C_11 
REMARK    3  A    between atoms: N_3  and  C_7 
REMARK    4  A    between atoms: C_4  and  C_10 
ROOT
HETATM    1  O   UNK     0     148.431 176.297 163.308  0.00  0.00    -0.318 OA
ENDROOT
BRANCH   1   2
HETATM    2  C   UNK     0     149.609 176.492 162.640  0.00  0.00     0.293 C 
HETATM    3  O   UNK     0     150.621 175.798 162.803  0.00  0.00    -0.259 OA
BRANCH   2   4
HETATM    4  C   UNK     0     149.522 177.615 161.720  0.00  0.00     0.039 A 
HETATM    5  C   UNK     0     149.915 177.460 160.390  0.00  0.00     0.020 A 
HETATM    6  C   UNK     0     149.832 178.538 159.508  0.00  0.00     0.030 A 
HETATM    7  C   UNK     0     149.355 179.770 159.955  0.00  0.00     0.025 A 
HETATM    8  C   UNK     0     148.962 179.925 161.284  0.00  0.00     0.030 A 
HETATM    9  C   UNK     0     149.046 178.848 162.167  0.00  0.00     0.020 A 
BRANCH   7  10
HETATM   10  N   UNK     0     149.271 180.859 159.064  0.00  0.00    -0.399 N 
HETATM   11  H   UNK     0     148.381 181.306 158.892  0.00  0.00     0.156 HD
HETATM   12  H   UNK     0     150.102 181.193 158.593  0.00  0.00     0.156 HD
ENDBRANCH   7  10
ENDBRANCH   2   4
ENDBRANCH   1   2
BRANCH   1  13
HETATM   13  C   UNK     0     148.523 175.891 164.678  0.00  0.00     0.174 C 
HETATM   14  C   UNK     0     147.547 176.705 165.499  0.00  0.00     0.034 C 
ENDBRANCH   1  13
TORSDOF 4
ENDMDL
MODEL 8
REMARK VINA RESULT:      -5.4     28.371     30.154
REMARK  4 active torsions:
REMARK  status: ('A' for Active; 'I' for Inactive)
REMARK    1  A    between atoms: O_1  and  C_10 
REMARK    2  A    between atoms: O_1  and  C_11 
REMARK    3  A    between atoms: N_3  and  C_7 
REMARK    4  A    between atoms: C_4  and  C_10 
ROOT
HETATM    1  O   UNK     0     150.102 177.174 162.084  0.00  0.00    -0.318 OA
ENDROOT
BRANCH   1   2
HETATM    2  C   UNK     0     149.889 176.274 163.093  0.00  0.00     0.293 C 
HETATM    3  O   UNK     0     150.385 175.140 163.125  0.00  0.00    -0.259 OA
BRANCH   2   4
HETATM    4  C   UNK     0     149.010 176.817 164.116  0.00  0.00     0.039 A 
HETATM    5  C   UNK     0     148.222 175.959 164.884  0.00  0.00     0.020 A 
HETATM    6  C   UNK     0     147.378 176.481 165.865  0.00  0.00     0.030 A 
HETATM    7  C   UNK     0     147.322 177.858 166.079  0.00  0.00     0.025 A 
HETATM    8  C   UNK     0     148.111 178.714 165.311  0.00  0.00     0.030 A 
HETATM    9  C   UNK     0     148.954 178.194 164.329  0.00  0.00     0.020 A 
BRANCH   7  10
HETATM   10  N   UNK     0     146.469 178.384 167.070  0.00  0.00    -0.399 N 
HETATM   11  H   UNK     0     145.546 177.993 167.204  0.00  0.00     0.156 HD
HETATM   12  H   UNK     0     146.779 179.154 167.648  0.00  0.00     0.156 HD
ENDBRANCH   7  10
ENDBRANCH   2   4
ENDBRANCH   1   2
BRANCH   1  13
HETATM   13  C   UNK     0     149.373 176.967 160.869  0.00  0.00     0.174 C 
HETATM   14  C   UNK     0     150.251 177.350 159.697  0.00  0.00     0.034 C 
ENDBRANCH   1  13
TORSDOF 4
ENDMDL
MODEL 9
REMARK VINA RESULT:      -5.4     34.512     36.135
REMARK  4 active torsions:
REMARK  status: ('A' for Active; 'I' for Inactive)
REMARK    1  A    between atoms: O_1  and  C_10 
REMARK    2  A    between atoms: O_1  and  C_11 
REMARK    3  A    between atoms: N_3  and  C_7 
REMARK    4  A    between atoms: C_4  and  C_10 
ROOT
HETATM    1  O   UNK     0     188.714 178.055 180.707  0.00  0.00    -0.318 OA
ENDROOT
BRANCH   1   2
HETATM    2  C   UNK     0     190.009 177.631 180.579  0.00  0.00     0.293 C 
HETATM    3  O   UNK     0     190.953 178.083 181.239  0.00  0.00    -0.259 OA
BRANCH   2   4
HETATM    4  C   UNK     0     190.133 176.589 179.572  0.00  0.00     0.039 A 
HETATM    5  C   UNK     0     189.474 176.719 178.349  0.00  0.00     0.020 A 
HETATM    6  C   UNK     0     189.592 175.718 177.384  0.00  0.00     0.030 A 
HETATM    7  C   UNK     0     190.370 174.589 177.641  0.00  0.00     0.025 A 
HETATM    8  C   UNK     0     191.028 174.459 178.863  0.00  0.00     0.030 A 
HETATM    9  C   UNK     0     190.909 175.459 179.830  0.00  0.00     0.020 A 
BRANCH   7  10
HETATM   10  N   UNK     0     190.489 173.578 176.665  0.00  0.00    -0.399 N 
HETATM   11  H   UNK     0     191.398 173.336 176.296  0.00  0.00     0.156 HD
HETATM   12  H   UNK     0     189.664 173.096 176.333  0.00  0.00     0.156 HD
ENDBRANCH   7  10
ENDBRANCH   2   4
ENDBRANCH   1   2
BRANCH   1  13
HETATM   13  C   UNK     0     188.033 177.698 181.916  0.00  0.00     0.174 C 
HETATM   14  C   UNK     0     187.256 176.421 181.685  0.00  0.00     0.034 C 
ENDBRANCH   1  13
TORSDOF 4
ENDMDL
