MODEL 1
REMARK VINA RESULT:    -6.392      0.000      0.000
REMARK INTER + INTRA:          -7.557
REMARK INTER:                  -7.513
REMARK INTRA:                  -0.044
REMARK UNBOUND:                -0.044
REMARK  Name = 8742
REMARK  5 active torsions:
REMARK  status: ('A' for Active; 'I' for Inactive)
REMARK    1  A    between atoms: O_1  and  C_6
REMARK    2  A    between atoms: O_2  and  C_7
REMARK    3  A    between atoms: O_3  and  C_8
REMARK    4  A    between atoms: O_4  and  C_12
REMARK    5  A    between atoms: C_10  and  C_12
REMARK                            x       y       z     vdW  Elec       q    Type
REMARK                         _______ _______ _______ _____ _____    ______ ____
ROOT
ATOM      1  C   UNL     1     133.937 163.549 146.607  0.00  0.00    +0.000 C 
ATOM      2  C   UNL     1     134.726 163.665 147.914  0.00  0.00    +0.000 C 
ATOM      3  C   UNL     1     134.876 163.353 145.403  0.00  0.00    +0.000 C 
ATOM      4  C   UNL     1     135.625 162.439 148.148  0.00  0.00    +0.000 C 
ATOM      5  C   UNL     1     136.279 161.934 146.893  0.00  0.00    +0.000 C 
ATOM      6  C   UNL     1     135.957 162.342 145.657  0.00  0.00    +0.000 C 
ENDROOT
BRANCH   1   7
ATOM      7  O   UNL     1     133.038 162.444 146.722  0.00  0.00    +0.000 OA
ATOM      8  H   UNL     1     133.576 161.636 146.775  0.00  0.00    +0.000 HD
ENDBRANCH   1   7
BRANCH   2   9
ATOM      9  O   UNL     1     135.520 164.848 147.870  0.00  0.00    +0.000 OA
ATOM     10  H   UNL     1     135.602 165.181 148.780  0.00  0.00    +0.000 HD
ENDBRANCH   2   9
BRANCH   3  11
ATOM     11  O   UNL     1     134.124 162.958 144.260  0.00  0.00    +0.000 OA
ATOM     12  H   UNL     1     133.381 162.415 144.573  0.00  0.00    +0.000 HD
ENDBRANCH   3  11
BRANCH   5  14
ATOM     13  O   UNL     1     138.339 161.084 147.724  0.00  0.00    +0.000 OA
ATOM     14  C   UNL     1     137.353 160.944 147.022  0.00  0.00    +0.000 C 
BRANCH  14  15
ATOM     15  O   UNL     1     137.076 159.874 146.251  0.00  0.00    +0.000 OA
ATOM     16  H   UNL     1     136.214 159.962 145.793  0.00  0.00    +0.000 HD
ENDBRANCH  14  15
ENDBRANCH   5  14
TORSDOF 5
ENDMDL
MODEL 2
REMARK VINA RESULT:    -6.211     43.675     45.599
REMARK INTER + INTRA:          -7.345
REMARK INTER:                  -7.307
REMARK INTRA:                  -0.038
REMARK UNBOUND:                -0.044
REMARK  Name = 8742
REMARK  5 active torsions:
REMARK  status: ('A' for Active; 'I' for Inactive)
REMARK    1  A    between atoms: O_1  and  C_6
REMARK    2  A    between atoms: O_2  and  C_7
REMARK    3  A    between atoms: O_3  and  C_8
REMARK    4  A    between atoms: O_4  and  C_12
REMARK    5  A    between atoms: C_10  and  C_12
REMARK                            x       y       z     vdW  Elec       q    Type
REMARK                         _______ _______ _______ _____ _____    ______ ____
ROOT
ATOM      1  C   UNL     1     144.879 128.095 177.813  0.00  0.00    +0.000 C 
ATOM      2  C   UNL     1     144.926 129.625 177.788  0.00  0.00    +0.000 C 
ATOM      3  C   UNL     1     143.903 127.549 176.755  0.00  0.00    +0.000 C 
ATOM      4  C   UNL     1     145.313 130.160 176.398  0.00  0.00    +0.000 C 
ATOM      5  C   UNL     1     144.687 129.388 175.270  0.00  0.00    +0.000 C 
ATOM      6  C   UNL     1     144.046 128.219 175.419  0.00  0.00    +0.000 C 
ENDROOT
BRANCH   1   7
ATOM      7  O   UNL     1     146.197 127.600 177.576  0.00  0.00    +0.000 OA
ATOM      8  H   UNL     1     146.114 126.675 177.289  0.00  0.00    +0.000 HD
ENDBRANCH   1   7
BRANCH   2   9
ATOM      9  O   UNL     1     143.651 130.133 178.167  0.00  0.00    +0.000 OA
ATOM     10  H   UNL     1     143.351 130.732 177.462  0.00  0.00    +0.000 HD
ENDBRANCH   2   9
BRANCH   3  11
ATOM     11  O   UNL     1     144.092 126.146 176.598  0.00  0.00    +0.000 OA
ATOM     12  H   UNL     1     144.729 126.017 175.875  0.00  0.00    +0.000 HD
ENDBRANCH   3  11
BRANCH   5  14
ATOM     13  O   UNL     1     143.867 130.572 173.379  0.00  0.00    +0.000 OA
ATOM     14  C   UNL     1     144.765 129.952 173.919  0.00  0.00    +0.000 C 
BRANCH  14  15
ATOM     15  O   UNL     1     145.970 129.676 173.382  0.00  0.00    +0.000 OA
ATOM     16  H   UNL     1     146.317 128.809 173.681  0.00  0.00    +0.000 HD
ENDBRANCH  14  15
ENDBRANCH   5  14
TORSDOF 5
ENDMDL
MODEL 3
REMARK VINA RESULT:    -6.181     22.070     23.768
REMARK INTER + INTRA:          -7.310
REMARK INTER:                  -7.257
REMARK INTRA:                  -0.053
REMARK UNBOUND:                -0.044
REMARK  Name = 8742
REMARK  5 active torsions:
REMARK  status: ('A' for Active; 'I' for Inactive)
REMARK    1  A    between atoms: O_1  and  C_6
REMARK    2  A    between atoms: O_2  and  C_7
REMARK    3  A    between atoms: O_3  and  C_8
REMARK    4  A    between atoms: O_4  and  C_12
REMARK    5  A    between atoms: C_10  and  C_12
REMARK                            x       y       z     vdW  Elec       q    Type
REMARK                         _______ _______ _______ _____ _____    ______ ____
ROOT
ATOM      1  C   UNL     1     124.763 152.843 125.852  0.00  0.00    +0.000 C 
ATOM      2  C   UNL     1     124.190 154.260 125.765  0.00  0.00    +0.000 C 
ATOM      3  C   UNL     1     126.273 152.869 126.151  0.00  0.00    +0.000 C 
ATOM      4  C   UNL     1     124.451 155.060 127.054  0.00  0.00    +0.000 C 
ATOM      5  C   UNL     1     125.813 154.812 127.639  0.00  0.00    +0.000 C 
ATOM      6  C   UNL     1     126.642 153.837 127.239  0.00  0.00    +0.000 C 
ENDROOT
BRANCH   1   7
ATOM      7  O   UNL     1     124.064 152.137 126.878  0.00  0.00    +0.000 OA
ATOM      8  H   UNL     1     123.124 152.120 126.631  0.00  0.00    +0.000 HD
ENDBRANCH   1   7
BRANCH   2   9
ATOM      9  O   UNL     1     124.775 154.928 124.651  0.00  0.00    +0.000 OA
ATOM     10  H   UNL     1     124.953 155.846 124.918  0.00  0.00    +0.000 HD
ENDBRANCH   2   9
BRANCH   3  11
ATOM     11  O   UNL     1     126.719 151.566 126.514  0.00  0.00    +0.000 OA
ATOM     12  H   UNL     1     126.132 150.925 126.077  0.00  0.00    +0.000 HD
ENDBRANCH   3  11
BRANCH   5  14
ATOM     13  O   UNL     1     125.574 156.506 129.291  0.00  0.00    +0.000 OA
ATOM     14  C   UNL     1     126.279 155.702 128.708  0.00  0.00    +0.000 C 
BRANCH  14  15
ATOM     15  O   UNL     1     127.591 155.487 128.935  0.00  0.00    +0.000 OA
ATOM     16  H   UNL     1     127.742 154.716 129.522  0.00  0.00    +0.000 HD
ENDBRANCH  14  15
ENDBRANCH   5  14
TORSDOF 5
ENDMDL
MODEL 4
REMARK VINA RESULT:    -6.059     20.316     21.728
REMARK INTER + INTRA:          -7.166
REMARK INTER:                  -7.127
REMARK INTRA:                  -0.039
REMARK UNBOUND:                -0.044
REMARK  Name = 8742
REMARK  5 active torsions:
REMARK  status: ('A' for Active; 'I' for Inactive)
REMARK    1  A    between atoms: O_1  and  C_6
REMARK    2  A    between atoms: O_2  and  C_7
REMARK    3  A    between atoms: O_3  and  C_8
REMARK    4  A    between atoms: O_4  and  C_12
REMARK    5  A    between atoms: C_10  and  C_12
REMARK                            x       y       z     vdW  Elec       q    Type
REMARK                         _______ _______ _______ _____ _____    ______ ____
ROOT
ATOM      1  C   UNL     1     117.489 151.772 145.585  0.00  0.00    +0.000 C 
ATOM      2  C   UNL     1     117.901 150.649 144.629  0.00  0.00    +0.000 C 
ATOM      3  C   UNL     1     117.644 153.153 144.924  0.00  0.00    +0.000 C 
ATOM      4  C   UNL     1     117.095 150.692 143.319  0.00  0.00    +0.000 C 
ATOM      5  C   UNL     1     116.858 152.088 142.815  0.00  0.00    +0.000 C 
ATOM      6  C   UNL     1     117.107 153.200 143.522  0.00  0.00    +0.000 C 
ENDROOT
BRANCH   1   7
ATOM      7  O   UNL     1     116.132 151.556 145.974  0.00  0.00    +0.000 OA
ATOM      8  H   UNL     1     116.068 151.746 146.925  0.00  0.00    +0.000 HD
ENDBRANCH   1   7
BRANCH   2   9
ATOM      9  O   UNL     1     119.293 150.768 144.348  0.00  0.00    +0.000 OA
ATOM     10  H   UNL     1     119.614 149.893 144.075  0.00  0.00    +0.000 HD
ENDBRANCH   2   9
BRANCH   3  11
ATOM     11  O   UNL     1     116.989 154.144 145.709  0.00  0.00    +0.000 OA
ATOM     12  H   UNL     1     116.587 154.783 145.097  0.00  0.00    +0.000 HD
ENDBRANCH   3  11
BRANCH   5  14
ATOM     13  O   UNL     1     117.007 152.155 140.442  0.00  0.00    +0.000 OA
ATOM     14  C   UNL     1     116.336 152.253 141.454  0.00  0.00    +0.000 C 
BRANCH  14  15
ATOM     15  O   UNL     1     115.017 152.525 141.506  0.00  0.00    +0.000 OA
ATOM     16  H   UNL     1     114.562 152.016 142.210  0.00  0.00    +0.000 HD
ENDBRANCH  14  15
ENDBRANCH   5  14
TORSDOF 5
ENDMDL
MODEL 5
REMARK VINA RESULT:    -5.941     26.015     27.205
REMARK INTER + INTRA:          -7.027
REMARK INTER:                  -6.981
REMARK INTRA:                  -0.046
REMARK UNBOUND:                -0.044
REMARK  Name = 8742
REMARK  5 active torsions:
REMARK  status: ('A' for Active; 'I' for Inactive)
REMARK    1  A    between atoms: O_1  and  C_6
REMARK    2  A    between atoms: O_2  and  C_7
REMARK    3  A    between atoms: O_3  and  C_8
REMARK    4  A    between atoms: O_4  and  C_12
REMARK    5  A    between atoms: C_10  and  C_12
REMARK                            x       y       z     vdW  Elec       q    Type
REMARK                         _______ _______ _______ _____ _____    ______ ____
ROOT
ATOM      1  C   UNL     1     113.241 144.460 146.960  0.00  0.00    +0.000 C 
ATOM      2  C   UNL     1     114.251 145.248 147.798  0.00  0.00    +0.000 C 
ATOM      3  C   UNL     1     112.526 145.370 145.946  0.00  0.00    +0.000 C 
ATOM      4  C   UNL     1     115.290 145.962 146.916  0.00  0.00    +0.000 C 
ATOM      5  C   UNL     1     114.702 146.548 145.663  0.00  0.00    +0.000 C 
ATOM      6  C   UNL     1     113.461 146.296 145.221  0.00  0.00    +0.000 C 
ENDROOT
BRANCH   1   7
ATOM      7  O   UNL     1     113.938 143.413 146.283  0.00  0.00    +0.000 OA
ATOM      8  H   UNL     1     113.432 142.594 146.416  0.00  0.00    +0.000 HD
ENDBRANCH   1   7
BRANCH   2   9
ATOM      9  O   UNL     1     113.550 146.201 148.591  0.00  0.00    +0.000 OA
ATOM     10  H   UNL     1     113.207 145.738 149.374  0.00  0.00    +0.000 HD
ENDBRANCH   2   9
BRANCH   3  11
ATOM     11  O   UNL     1     111.820 144.579 144.995  0.00  0.00    +0.000 OA
ATOM     12  H   UNL     1     110.950 144.372 145.376  0.00  0.00    +0.000 HD
ENDBRANCH   3  11
BRANCH   5  14
ATOM     13  O   UNL     1     116.683 147.258 144.557  0.00  0.00    +0.000 OA
ATOM     14  C   UNL     1     115.528 147.469 144.876  0.00  0.00    +0.000 C 
BRANCH  14  15
ATOM     15  O   UNL     1     114.811 148.570 144.570  0.00  0.00    +0.000 OA
ATOM     16  H   UNL     1     114.445 148.531 143.661  0.00  0.00    +0.000 HD
ENDBRANCH  14  15
ENDBRANCH   5  14
TORSDOF 5
ENDMDL
MODEL 6
REMARK VINA RESULT:    -5.920     38.747     39.899
REMARK INTER + INTRA:          -7.003
REMARK INTER:                  -6.959
REMARK INTRA:                  -0.044
REMARK UNBOUND:                -0.044
REMARK  Name = 8742
REMARK  5 active torsions:
REMARK  status: ('A' for Active; 'I' for Inactive)
REMARK    1  A    between atoms: O_1  and  C_6
REMARK    2  A    between atoms: O_2  and  C_7
REMARK    3  A    between atoms: O_3  and  C_8
REMARK    4  A    between atoms: O_4  and  C_12
REMARK    5  A    between atoms: C_10  and  C_12
REMARK                            x       y       z     vdW  Elec       q    Type
REMARK                         _______ _______ _______ _____ _____    ______ ____
ROOT
ATOM      1  C   UNL     1     106.608 142.961 164.380  0.00  0.00    +0.000 C 
ATOM      2  C   UNL     1     107.975 143.515 164.792  0.00  0.00    +0.000 C 
ATOM      3  C   UNL     1     106.303 141.635 165.100  0.00  0.00    +0.000 C 
ATOM      4  C   UNL     1     108.074 143.714 166.315  0.00  0.00    +0.000 C 
ATOM      5  C   UNL     1     107.418 142.614 167.100  0.00  0.00    +0.000 C 
ATOM      6  C   UNL     1     106.628 141.671 166.566  0.00  0.00    +0.000 C 
ENDROOT
BRANCH   1   7
ATOM      7  O   UNL     1     105.614 143.937 164.695  0.00  0.00    +0.000 OA
ATOM      8  H   UNL     1     105.923 144.790 164.344  0.00  0.00    +0.000 HD
ENDBRANCH   1   7
BRANCH   2   9
ATOM      9  O   UNL     1     108.989 142.617 164.352  0.00  0.00    +0.000 OA
ATOM     10  H   UNL     1     108.595 141.729 164.302  0.00  0.00    +0.000 HD
ENDBRANCH   2   9
BRANCH   3  11
ATOM     11  O   UNL     1     104.930 141.295 164.933  0.00  0.00    +0.000 OA
ATOM     12  H   UNL     1     104.415 141.853 165.540  0.00  0.00    +0.000 HD
ENDBRANCH   3  11
BRANCH   5  14
ATOM     13  O   UNL     1     108.775 142.495 169.050  0.00  0.00    +0.000 OA
ATOM     14  C   UNL     1     107.668 142.550 168.544  0.00  0.00    +0.000 C 
BRANCH  14  15
ATOM     15  O   UNL     1     106.494 142.563 169.207  0.00  0.00    +0.000 OA
ATOM     16  H   UNL     1     106.201 143.474 169.420  0.00  0.00    +0.000 HD
ENDBRANCH  14  15
ENDBRANCH   5  14
TORSDOF 5
ENDMDL
MODEL 7
REMARK VINA RESULT:    -5.874     23.257     25.307
REMARK INTER + INTRA:          -6.948
REMARK INTER:                  -6.900
REMARK INTRA:                  -0.048
REMARK UNBOUND:                -0.044
REMARK  Name = 8742
REMARK  5 active torsions:
REMARK  status: ('A' for Active; 'I' for Inactive)
REMARK    1  A    between atoms: O_1  and  C_6
REMARK    2  A    between atoms: O_2  and  C_7
REMARK    3  A    between atoms: O_3  and  C_8
REMARK    4  A    between atoms: O_4  and  C_12
REMARK    5  A    between atoms: C_10  and  C_12
REMARK                            x       y       z     vdW  Elec       q    Type
REMARK                         _______ _______ _______ _____ _____    ______ ____
ROOT
ATOM      1  C   UNL     1     137.083 136.763 138.907  0.00  0.00    +0.000 C 
ATOM      2  C   UNL     1     135.671 137.287 139.180  0.00  0.00    +0.000 C 
ATOM      3  C   UNL     1     138.103 137.915 138.842  0.00  0.00    +0.000 C 
ATOM      4  C   UNL     1     135.609 138.111 140.478  0.00  0.00    +0.000 C 
ATOM      5  C   UNL     1     136.811 138.990 140.680  0.00  0.00    +0.000 C 
ATOM      6  C   UNL     1     137.933 138.917 139.948  0.00  0.00    +0.000 C 
ENDROOT
BRANCH   1   7
ATOM      7  O   UNL     1     137.432 135.848 139.947  0.00  0.00    +0.000 OA
ATOM      8  H   UNL     1     136.645 135.311 140.138  0.00  0.00    +0.000 HD
ENDBRANCH   1   7
BRANCH   2   9
ATOM      9  O   UNL     1     135.253 138.086 138.077  0.00  0.00    +0.000 OA
ATOM     10  H   UNL     1     135.974 138.089 137.426  0.00  0.00    +0.000 HD
ENDBRANCH   2   9
BRANCH   3  11
ATOM     11  O   UNL     1     139.427 137.394 138.882  0.00  0.00    +0.000 OA
ATOM     12  H   UNL     1     139.825 137.542 138.007  0.00  0.00    +0.000 HD
ENDBRANCH   3  11
BRANCH   5  14
ATOM     13  O   UNL     1     137.486 140.980 141.792  0.00  0.00    +0.000 OA
ATOM     14  C   UNL     1     136.755 140.009 141.734  0.00  0.00    +0.000 C 
BRANCH  14  15
ATOM     15  O   UNL     1     135.779 139.698 142.611  0.00  0.00    +0.000 OA
ATOM     16  H   UNL     1     135.712 140.355 143.336  0.00  0.00    +0.000 HD
ENDBRANCH  14  15
ENDBRANCH   5  14
TORSDOF 5
ENDMDL
MODEL 8
REMARK VINA RESULT:    -5.841     39.424     40.582
REMARK INTER + INTRA:          -6.910
REMARK INTER:                  -6.859
REMARK INTRA:                  -0.051
REMARK UNBOUND:                -0.044
REMARK  Name = 8742
REMARK  5 active torsions:
REMARK  status: ('A' for Active; 'I' for Inactive)
REMARK    1  A    between atoms: O_1  and  C_6
REMARK    2  A    between atoms: O_2  and  C_7
REMARK    3  A    between atoms: O_3  and  C_8
REMARK    4  A    between atoms: O_4  and  C_12
REMARK    5  A    between atoms: C_10  and  C_12
REMARK                            x       y       z     vdW  Elec       q    Type
REMARK                         _______ _______ _______ _____ _____    ______ ____
ROOT
ATOM      1  C   UNL     1     104.765 142.778 166.536  0.00  0.00    +0.000 C 
ATOM      2  C   UNL     1     105.735 142.508 165.382  0.00  0.00    +0.000 C 
ATOM      3  C   UNL     1     105.236 142.098 167.833  0.00  0.00    +0.000 C 
ATOM      4  C   UNL     1     107.164 142.965 165.721  0.00  0.00    +0.000 C 
ATOM      5  C   UNL     1     107.557 142.681 167.143  0.00  0.00    +0.000 C 
ATOM      6  C   UNL     1     106.703 142.285 168.098  0.00  0.00    +0.000 C 
ENDROOT
BRANCH   1   7
ATOM      7  O   UNL     1     104.670 144.192 166.721  0.00  0.00    +0.000 OA
ATOM      8  H   UNL     1     105.444 144.594 166.292  0.00  0.00    +0.000 HD
ENDBRANCH   1   7
BRANCH   2   9
ATOM      9  O   UNL     1     105.727 141.113 165.090  0.00  0.00    +0.000 OA
ATOM     10  H   UNL     1     105.461 141.008 164.161  0.00  0.00    +0.000 HD
ENDBRANCH   2   9
BRANCH   3  11
ATOM     11  O   UNL     1     104.493 142.597 168.941  0.00  0.00    +0.000 OA
ATOM     12  H   UNL     1     103.621 142.870 168.609  0.00  0.00    +0.000 HD
ENDBRANCH   3  11
BRANCH   5  14
ATOM     13  O   UNL     1     109.404 142.668 168.640  0.00  0.00    +0.000 OA
ATOM     14  C   UNL     1     108.968 142.829 167.514  0.00  0.00    +0.000 C 
BRANCH  14  15
ATOM     15  O   UNL     1     109.689 143.166 166.426  0.00  0.00    +0.000 OA
ATOM     16  H   UNL     1     110.515 142.642 166.353  0.00  0.00    +0.000 HD
ENDBRANCH  14  15
ENDBRANCH   5  14
TORSDOF 5
ENDMDL
MODEL 9
REMARK VINA RESULT:    -5.769      9.876     10.509
REMARK INTER + INTRA:          -6.826
REMARK INTER:                  -6.772
REMARK INTRA:                  -0.054
REMARK UNBOUND:                -0.044
REMARK  Name = 8742
REMARK  5 active torsions:
REMARK  status: ('A' for Active; 'I' for Inactive)
REMARK    1  A    between atoms: O_1  and  C_6
REMARK    2  A    between atoms: O_2  and  C_7
REMARK    3  A    between atoms: O_3  and  C_8
REMARK    4  A    between atoms: O_4  and  C_12
REMARK    5  A    between atoms: C_10  and  C_12
REMARK                            x       y       z     vdW  Elec       q    Type
REMARK                         _______ _______ _______ _____ _____    ______ ____
ROOT
ATOM      1  C   UNL     1     127.217 154.826 144.237  0.00  0.00    +0.000 C 
ATOM      2  C   UNL     1     128.314 155.131 145.261  0.00  0.00    +0.000 C 
ATOM      3  C   UNL     1     127.484 155.544 142.902  0.00  0.00    +0.000 C 
ATOM      4  C   UNL     1     129.708 154.750 144.733  0.00  0.00    +0.000 C 
ATOM      5  C   UNL     1     129.899 155.071 143.278  0.00  0.00    +0.000 C 
ATOM      6  C   UNL     1     128.911 155.435 142.448  0.00  0.00    +0.000 C 
ENDROOT
BRANCH   1   7
ATOM      7  O   UNL     1     127.167 153.412 144.040  0.00  0.00    +0.000 OA
ATOM      8  H   UNL     1     128.082 153.102 143.932  0.00  0.00    +0.000 HD
ENDBRANCH   1   7
BRANCH   2   9
ATOM      9  O   UNL     1     128.277 156.520 145.577  0.00  0.00    +0.000 OA
ATOM     10  H   UNL     1     128.454 157.014 144.758  0.00  0.00    +0.000 HD
ENDBRANCH   2   9
BRANCH   3  11
ATOM     11  O   UNL     1     126.629 155.023 141.890  0.00  0.00    +0.000 OA
ATOM     12  H   UNL     1     126.013 155.731 141.634  0.00  0.00    +0.000 HD
ENDBRANCH   3  11
BRANCH   5  14
ATOM     13  O   UNL     1     132.250 154.727 143.374  0.00  0.00    +0.000 OA
ATOM     14  C   UNL     1     131.256 154.999 142.726  0.00  0.00    +0.000 C 
BRANCH  14  15
ATOM     15  O   UNL     1     131.223 155.279 141.407  0.00  0.00    +0.000 OA
ATOM     16  H   UNL     1     131.331 156.238 141.231  0.00  0.00    +0.000 HD
ENDBRANCH  14  15
ENDBRANCH   5  14
TORSDOF 5
ENDMDL
MODEL 10
REMARK VINA RESULT:    -5.615     22.800     24.476
REMARK INTER + INTRA:          -6.644
REMARK INTER:                  -6.602
REMARK INTRA:                  -0.043
REMARK UNBOUND:                -0.044
REMARK  Name = 8742
REMARK  5 active torsions:
REMARK  status: ('A' for Active; 'I' for Inactive)
REMARK    1  A    between atoms: O_1  and  C_6
REMARK    2  A    between atoms: O_2  and  C_7
REMARK    3  A    between atoms: O_3  and  C_8
REMARK    4  A    between atoms: O_4  and  C_12
REMARK    5  A    between atoms: C_10  and  C_12
REMARK                            x       y       z     vdW  Elec       q    Type
REMARK                         _______ _______ _______ _____ _____    ______ ____
ROOT
ATOM      1  C   UNL     1     126.009 152.049 124.898  0.00  0.00    +0.000 C 
ATOM      2  C   UNL     1     126.251 151.521 126.314  0.00  0.00    +0.000 C 
ATOM      3  C   UNL     1     125.048 153.251 124.906  0.00  0.00    +0.000 C 
ATOM      4  C   UNL     1     126.796 152.618 127.246  0.00  0.00    +0.000 C 
ATOM      5  C   UNL     1     126.158 153.959 127.020  0.00  0.00    +0.000 C 
ATOM      6  C   UNL     1     125.366 154.254 125.978  0.00  0.00    +0.000 C 
ENDROOT
BRANCH   1   7
ATOM      7  O   UNL     1     127.268 152.423 124.337  0.00  0.00    +0.000 OA
ATOM      8  H   UNL     1     127.925 152.399 125.053  0.00  0.00    +0.000 HD
ENDBRANCH   1   7
BRANCH   2   9
ATOM      9  O   UNL     1     125.026 151.009 126.832  0.00  0.00    +0.000 OA
ATOM     10  H   UNL     1     125.245 150.369 127.529  0.00  0.00    +0.000 HD
ENDBRANCH   2   9
BRANCH   3  11
ATOM     11  O   UNL     1     125.069 153.900 123.638  0.00  0.00    +0.000 OA
ATOM     12  H   UNL     1     125.971 154.234 123.496  0.00  0.00    +0.000 HD
ENDBRANCH   3  11
BRANCH   5  14
ATOM     13  O   UNL     1     125.535 155.743 128.463  0.00  0.00    +0.000 OA
ATOM     14  C   UNL     1     126.399 155.015 128.009  0.00  0.00    +0.000 C 
BRANCH  14  15
ATOM     15  O   UNL     1     127.709 155.048 128.325  0.00  0.00    +0.000 OA
ATOM     16  H   UNL     1     127.922 154.457 129.078  0.00  0.00    +0.000 HD
ENDBRANCH  14  15
ENDBRANCH   5  14
TORSDOF 5
ENDMDL
