MODEL 1
REMARK VINA RESULT:      -9.7      0.000      0.000
REMARK  16 active torsions:
REMARK  status: ('A' for Active; 'I' for Inactive)
REMARK    1  A    between atoms: C_2  and  O_12 
REMARK    2  A    between atoms: C_3  and  O_10 
REMARK    3  A    between atoms: C_4  and  O_8 
REMARK    4  A    between atoms: C_5  and  O_6 
REMARK    5  A    between atoms: C_38  and  C_39 
REMARK    6  A    between atoms: O_12  and  C_13 
REMARK    7  A    between atoms: C_16  and  O_22 
REMARK    8  A    between atoms: C_18  and  O_20 
REMARK    9  A    between atoms: C_27  and  C_28 
REMARK   10  A    between atoms: C_31  and  O_35 
REMARK   11  A    between atoms: C_32  and  O_33 
REMARK   12  A    between atoms: C_39  and  O_40 
REMARK   13  A    between atoms: O_40  and  C_41 
REMARK   14  A    between atoms: C_42  and  O_51 
REMARK   15  A    between atoms: C_43  and  O_49 
REMARK   16  A    between atoms: C_44  and  O_47 
ROOT
ATOM      1  O   LIG     1      14.651  50.043  23.819  0.00  0.00    -0.331 OA
ATOM      2  C   LIG     1      16.030  50.072  23.458  0.00  0.00     0.340 C 
ATOM      3  C   LIG     1      16.208  50.673  22.064  0.00  0.00     0.214 C 
ATOM      4  C   LIG     1      15.542  52.045  21.961  0.00  0.00     0.180 C 
ATOM      5  C   LIG     1      14.114  52.009  22.507  0.00  0.00     0.177 C 
ATOM      6  C   LIG     1      14.076  51.350  23.887  0.00  0.00     0.179 C 
ENDROOT
BRANCH   2   7
ATOM      7  O   LIG     1      16.549  48.742  23.434  0.00  0.00    -0.453 OA
BRANCH   7   8
ATOM      8  C   LIG     1      17.895  48.718  23.724  0.00  0.00     0.214 A 
ATOM      9  C   LIG     1      18.387  48.970  24.951  0.00  0.00     0.181 A 
ATOM     10  O   LIG     1      19.737  48.986  25.268  0.00  0.00    -0.451 OA
ATOM     11  C   LIG     1      20.645  48.706  24.279  0.00  0.00     0.147 A 
ATOM     12  C   LIG     1      21.995  48.720  24.632  0.00  0.00     0.092 A 
ATOM     13  C   LIG     1      20.270  48.419  22.969  0.00  0.00     0.109 A 
ATOM     14  C   LIG     1      22.966  48.444  23.669  0.00  0.00     0.124 A 
ATOM     15  C   LIG     1      22.590  48.156  22.357  0.00  0.00     0.091 A 
ATOM     16  C   LIG     1      21.240  48.143  22.001  0.00  0.00     0.135 A 
ATOM     17  C   LIG     1      18.840  48.414  22.622  0.00  0.00     0.238 A 
ATOM     18  O   LIG     1      18.452  48.175  21.487  0.00  0.00    -0.283 OA
BRANCH   9  19
ATOM     19  C   LIG     1      17.523  49.287  26.100  0.00  0.00     0.025 A 
ATOM     20  C   LIG     1      16.522  48.396  26.488  0.00  0.00     0.015 A 
ATOM     21  C   LIG     1      15.704  48.696  27.577  0.00  0.00     0.050 A 
ATOM     22  C   LIG     1      15.885  49.888  28.278  0.00  0.00     0.158 A 
ATOM     23  C   LIG     1      16.885  50.779  27.892  0.00  0.00     0.159 A 
ATOM     24  C   LIG     1      17.704  50.479  26.803  0.00  0.00     0.060 A 
BRANCH  22  25
ATOM     25  O   LIG     1      15.079  50.171  29.339  0.00  0.00    -0.503 OA
ATOM     26  H   LIG     1      15.297  51.048  29.691  0.00  0.00     0.292 HD
ENDBRANCH  22  25
BRANCH  23  27
ATOM     27  O   LIG     1      17.073  51.946  28.570  0.00  0.00    -0.503 OA
ATOM     28  H   LIG     1      17.974  52.273  28.413  0.00  0.00     0.292 HD
ENDBRANCH  23  27
ENDBRANCH   9  19
BRANCH  14  29
ATOM     29  O   LIG     1      24.283  48.456  24.012  0.00  0.00    -0.507 OA
ATOM     30  H   LIG     1      24.818  48.569  23.207  0.00  0.00     0.292 HD
ENDBRANCH  14  29
BRANCH  16  31
ATOM     31  O   LIG     1      20.927  47.857  20.707  0.00  0.00    -0.506 OA
ATOM     32  H   LIG     1      20.814  46.896  20.605  0.00  0.00     0.292 HD
ENDBRANCH  16  31
ENDBRANCH   7   8
ENDBRANCH   2   7
BRANCH   3  33
ATOM     33  O   LIG     1      17.606  50.804  21.808  0.00  0.00    -0.383 OA
ATOM     34  H   LIG     1      17.802  51.748  21.682  0.00  0.00     0.210 HD
ENDBRANCH   3  33
BRANCH   6  35
ATOM     35  C   LIG     1      12.648  51.197  24.402  0.00  0.00     0.197 C 
BRANCH  35  36
ATOM     36  O   LIG     1      12.552  49.992  25.147  0.00  0.00    -0.346 OA
BRANCH  36  37
ATOM     37  C   LIG     1      11.272  49.856  25.755  0.00  0.00     0.282 C 
ATOM     38  O   LIG     1      11.186  50.544  27.007  0.00  0.00    -0.343 OA
ATOM     39  C   LIG     1      12.056  50.029  28.020  0.00  0.00     0.149 C 
ATOM     40  C   LIG     1      11.755  48.552  28.307  0.00  0.00     0.174 C 
ATOM     41  C   LIG     1      11.866  50.902  29.258  0.00  0.00     0.041 C 
ATOM     42  C   LIG     1      11.814  47.742  27.011  0.00  0.00     0.179 C 
ATOM     43  C   LIG     1      10.937  48.375  25.929  0.00  0.00     0.201 C 
BRANCH  40  44
ATOM     44  O   LIG     1      12.721  48.017  29.209  0.00  0.00    -0.387 OA
ATOM     45  H   LIG     1      13.574  47.979  28.744  0.00  0.00     0.210 HD
ENDBRANCH  40  44
BRANCH  42  46
ATOM     46  O   LIG     1      11.379  46.409  27.270  0.00  0.00    -0.386 OA
ATOM     47  H   LIG     1      10.637  46.456  27.898  0.00  0.00     0.210 HD
ENDBRANCH  42  46
BRANCH  43  48
ATOM     48  O   LIG     1       9.561  48.281  26.300  0.00  0.00    -0.384 OA
ATOM     49  H   LIG     1       9.210  47.438  25.965  0.00  0.00     0.210 HD
ENDBRANCH  43  48
ENDBRANCH  36  37
ENDBRANCH  35  36
ENDBRANCH   6  35
BRANCH   4  50
ATOM     50  O   LIG     1      15.481  52.442  20.590  0.00  0.00    -0.386 OA
ATOM     51  H   LIG     1      14.728  53.051  20.497  0.00  0.00     0.210 HD
ENDBRANCH   4  50
BRANCH   5  52
ATOM     52  O   LIG     1      13.615  53.340  22.607  0.00  0.00    -0.386 OA
ATOM     53  H   LIG     1      13.295  53.609  21.729  0.00  0.00     0.210 HD
ENDBRANCH   5  52
TORSDOF 16
ENDMDL
MODEL 2
REMARK VINA RESULT:      -9.5      1.545      8.168
REMARK  16 active torsions:
REMARK  status: ('A' for Active; 'I' for Inactive)
REMARK    1  A    between atoms: C_2  and  O_12 
REMARK    2  A    between atoms: C_3  and  O_10 
REMARK    3  A    between atoms: C_4  and  O_8 
REMARK    4  A    between atoms: C_5  and  O_6 
REMARK    5  A    between atoms: C_38  and  C_39 
REMARK    6  A    between atoms: O_12  and  C_13 
REMARK    7  A    between atoms: C_16  and  O_22 
REMARK    8  A    between atoms: C_18  and  O_20 
REMARK    9  A    between atoms: C_27  and  C_28 
REMARK   10  A    between atoms: C_31  and  O_35 
REMARK   11  A    between atoms: C_32  and  O_33 
REMARK   12  A    between atoms: C_39  and  O_40 
REMARK   13  A    between atoms: O_40  and  C_41 
REMARK   14  A    between atoms: C_42  and  O_51 
REMARK   15  A    between atoms: C_43  and  O_49 
REMARK   16  A    between atoms: C_44  and  O_47 
ROOT
ATOM      1  O   LIG     1      16.358  51.192  24.819  0.00  0.00    -0.331 OA
ATOM      2  C   LIG     1      15.047  50.706  24.541  0.00  0.00     0.340 C 
ATOM      3  C   LIG     1      14.601  51.134  23.142  0.00  0.00     0.214 C 
ATOM      4  C   LIG     1      15.623  50.720  22.083  0.00  0.00     0.180 C 
ATOM      5  C   LIG     1      17.040  51.119  22.494  0.00  0.00     0.177 C 
ATOM      6  C   LIG     1      17.339  50.664  23.925  0.00  0.00     0.179 C 
ENDROOT
BRANCH   2   7
ATOM      7  O   LIG     1      14.122  51.249  25.482  0.00  0.00    -0.453 OA
BRANCH   7   8
ATOM      8  C   LIG     1      13.478  50.258  26.190  0.00  0.00     0.214 A 
ATOM      9  C   LIG     1      14.101  49.475  27.091  0.00  0.00     0.181 A 
ATOM     10  O   LIG     1      13.490  48.449  27.795  0.00  0.00    -0.451 OA
ATOM     11  C   LIG     1      12.155  48.216  27.586  0.00  0.00     0.147 A 
ATOM     12  C   LIG     1      11.568  47.183  28.318  0.00  0.00     0.092 A 
ATOM     13  C   LIG     1      11.390  48.958  26.690  0.00  0.00     0.109 A 
ATOM     14  C   LIG     1      10.213  46.897  28.149  0.00  0.00     0.124 A 
ATOM     15  C   LIG     1       9.447  47.641  27.250  0.00  0.00     0.091 A 
ATOM     16  C   LIG     1      10.032  48.674  26.517  0.00  0.00     0.135 A 
ATOM     17  C   LIG     1      12.035  50.040  25.929  0.00  0.00     0.238 A 
ATOM     18  O   LIG     1      11.415  50.721  25.124  0.00  0.00    -0.283 OA
BRANCH   9  19
ATOM     19  C   LIG     1      15.532  49.617  27.407  0.00  0.00     0.025 A 
ATOM     20  C   LIG     1      16.441  48.645  26.988  0.00  0.00     0.015 A 
ATOM     21  C   LIG     1      17.796  48.780  27.288  0.00  0.00     0.050 A 
ATOM     22  C   LIG     1      18.244  49.887  28.008  0.00  0.00     0.158 A 
ATOM     23  C   LIG     1      17.337  50.860  28.428  0.00  0.00     0.159 A 
ATOM     24  C   LIG     1      15.981  50.725  28.127  0.00  0.00     0.060 A 
BRANCH  22  25
ATOM     25  O   LIG     1      19.570  50.008  28.296  0.00  0.00    -0.503 OA
ATOM     26  H   LIG     1      19.980  50.643  27.689  0.00  0.00     0.292 HD
ENDBRANCH  22  25
BRANCH  23  27
ATOM     27  O   LIG     1      17.763  51.946  29.131  0.00  0.00    -0.503 OA
ATOM     28  H   LIG     1      18.670  51.798  29.443  0.00  0.00     0.292 HD
ENDBRANCH  23  27
ENDBRANCH   9  19
BRANCH  14  29
ATOM     29  O   LIG     1       9.637  45.890  28.861  0.00  0.00    -0.507 OA
ATOM     30  H   LIG     1       8.796  46.207  29.233  0.00  0.00     0.292 HD
ENDBRANCH  14  29
BRANCH  16  31
ATOM     31  O   LIG     1       9.241  49.369  25.653  0.00  0.00    -0.506 OA
ATOM     32  H   LIG     1       9.538  49.209  24.741  0.00  0.00     0.292 HD
ENDBRANCH  16  31
ENDBRANCH   7   8
ENDBRANCH   2   7
BRANCH   3  33
ATOM     33  O   LIG     1      13.348  50.512  22.861  0.00  0.00    -0.383 OA
ATOM     34  H   LIG     1      13.354  50.229  21.931  0.00  0.00     0.210 HD
ENDBRANCH   3  33
BRANCH   6  35
ATOM     35  C   LIG     1      18.704  51.151  24.400  0.00  0.00     0.197 C 
BRANCH  35  36
ATOM     36  O   LIG     1      19.714  50.354  23.798  0.00  0.00    -0.346 OA
BRANCH  36  37
ATOM     37  C   LIG     1      19.834  49.091  24.443  0.00  0.00     0.282 C 
ATOM     38  O   LIG     1      20.810  49.103  25.489  0.00  0.00    -0.343 OA
ATOM     39  C   LIG     1      22.149  49.339  25.039  0.00  0.00     0.149 C 
ATOM     40  C   LIG     1      22.591  48.266  24.035  0.00  0.00     0.174 C 
ATOM     41  C   LIG     1      23.038  49.362  26.280  0.00  0.00     0.041 C 
ATOM     42  C   LIG     1      21.589  48.179  22.884  0.00  0.00     0.179 C 
ATOM     43  C   LIG     1      20.162  48.013  23.410  0.00  0.00     0.201 C 
BRANCH  40  44
ATOM     44  O   LIG     1      23.866  48.596  23.490  0.00  0.00    -0.387 OA
ATOM     45  H   LIG     1      24.473  48.763  24.231  0.00  0.00     0.210 HD
ENDBRANCH  40  44
BRANCH  42  46
ATOM     46  O   LIG     1      21.929  47.076  22.047  0.00  0.00    -0.386 OA
ATOM     47  H   LIG     1      22.897  46.986  22.054  0.00  0.00     0.210 HD
ENDBRANCH  42  46
BRANCH  43  48
ATOM     48  O   LIG     1      20.023  46.743  24.049  0.00  0.00    -0.384 OA
ATOM     49  H   LIG     1      19.076  46.531  24.106  0.00  0.00     0.210 HD
ENDBRANCH  43  48
ENDBRANCH  36  37
ENDBRANCH  35  36
ENDBRANCH   6  35
BRANCH   4  50
ATOM     50  O   LIG     1      15.320  51.376  20.849  0.00  0.00    -0.386 OA
ATOM     51  H   LIG     1      14.771  52.150  21.058  0.00  0.00     0.210 HD
ENDBRANCH   4  50
BRANCH   5  52
ATOM     52  O   LIG     1      17.976  50.518  21.603  0.00  0.00    -0.386 OA
ATOM     53  H   LIG     1      17.683  49.608  21.429  0.00  0.00     0.210 HD
ENDBRANCH   5  52
TORSDOF 16
ENDMDL
MODEL 3
REMARK VINA RESULT:      -9.4      3.147      8.931
REMARK  16 active torsions:
REMARK  status: ('A' for Active; 'I' for Inactive)
REMARK    1  A    between atoms: C_2  and  O_12 
REMARK    2  A    between atoms: C_3  and  O_10 
REMARK    3  A    between atoms: C_4  and  O_8 
REMARK    4  A    between atoms: C_5  and  O_6 
REMARK    5  A    between atoms: C_38  and  C_39 
REMARK    6  A    between atoms: O_12  and  C_13 
REMARK    7  A    between atoms: C_16  and  O_22 
REMARK    8  A    between atoms: C_18  and  O_20 
REMARK    9  A    between atoms: C_27  and  C_28 
REMARK   10  A    between atoms: C_31  and  O_35 
REMARK   11  A    between atoms: C_32  and  O_33 
REMARK   12  A    between atoms: C_39  and  O_40 
REMARK   13  A    between atoms: O_40  and  C_41 
REMARK   14  A    between atoms: C_42  and  O_51 
REMARK   15  A    between atoms: C_43  and  O_49 
REMARK   16  A    between atoms: C_44  and  O_47 
ROOT
ATOM      1  O   LIG     1      15.153  50.399  27.570  0.00  0.00    -0.331 OA
ATOM      2  C   LIG     1      15.456  49.827  28.840  0.00  0.00     0.340 C 
ATOM      3  C   LIG     1      16.555  48.772  28.705  0.00  0.00     0.214 C 
ATOM      4  C   LIG     1      17.788  49.341  28.003  0.00  0.00     0.180 C 
ATOM      5  C   LIG     1      17.403  50.086  26.725  0.00  0.00     0.177 C 
ATOM      6  C   LIG     1      16.270  51.079  26.995  0.00  0.00     0.179 C 
ENDROOT
BRANCH   2   7
ATOM      7  O   LIG     1      14.295  49.187  29.370  0.00  0.00    -0.453 OA
BRANCH   7   8
ATOM      8  C   LIG     1      13.598  50.022  30.216  0.00  0.00     0.214 A 
ATOM      9  C   LIG     1      12.346  50.447  29.962  0.00  0.00     0.181 A 
ATOM     10  O   LIG     1      11.630  51.312  30.774  0.00  0.00    -0.451 OA
ATOM     11  C   LIG     1      12.215  51.759  31.931  0.00  0.00     0.147 A 
ATOM     12  C   LIG     1      11.465  52.620  32.732  0.00  0.00     0.092 A 
ATOM     13  C   LIG     1      13.502  51.389  32.318  0.00  0.00     0.109 A 
ATOM     14  C   LIG     1      12.007  53.109  33.922  0.00  0.00     0.124 A 
ATOM     15  C   LIG     1      13.295  52.739  34.308  0.00  0.00     0.091 A 
ATOM     16  C   LIG     1      14.048  51.878  33.508  0.00  0.00     0.135 A 
ATOM     17  C   LIG     1      14.273  50.483  31.453  0.00  0.00     0.238 A 
ATOM     18  O   LIG     1      15.409  50.128  31.739  0.00  0.00    -0.283 OA
BRANCH   9  19
ATOM     19  C   LIG     1      11.604  50.046  28.754  0.00  0.00     0.025 A 
ATOM     20  C   LIG     1      11.907  50.627  27.523  0.00  0.00     0.015 A 
ATOM     21  C   LIG     1      11.204  50.246  26.380  0.00  0.00     0.050 A 
ATOM     22  C   LIG     1      10.197  49.285  26.468  0.00  0.00     0.158 A 
ATOM     23  C   LIG     1       9.894  48.703  27.698  0.00  0.00     0.159 A 
ATOM     24  C   LIG     1      10.597  49.084  28.841  0.00  0.00     0.060 A 
BRANCH  22  25
ATOM     25  O   LIG     1       9.517  48.923  25.345  0.00  0.00    -0.503 OA
ATOM     26  H   LIG     1      10.034  49.157  24.558  0.00  0.00     0.292 HD
ENDBRANCH  22  25
BRANCH  23  27
ATOM     27  O   LIG     1       8.914  47.762  27.796  0.00  0.00    -0.503 OA
ATOM     28  H   LIG     1       8.276  48.025  28.480  0.00  0.00     0.292 HD
ENDBRANCH  23  27
ENDBRANCH   9  19
BRANCH  14  29
ATOM     29  O   LIG     1      11.277  53.949  34.705  0.00  0.00    -0.507 OA
ATOM     30  H   LIG     1      10.510  53.466  35.058  0.00  0.00     0.292 HD
ENDBRANCH  14  29
BRANCH  16  31
ATOM     31  O   LIG     1      15.300  51.549  33.931  0.00  0.00    -0.506 OA
ATOM     32  H   LIG     1      15.949  52.143  33.517  0.00  0.00     0.292 HD
ENDBRANCH  16  31
ENDBRANCH   7   8
ENDBRANCH   2   7
BRANCH   3  33
ATOM     33  O   LIG     1      16.915  48.331  30.014  0.00  0.00    -0.383 OA
ATOM     34  H   LIG     1      16.510  48.935  30.658  0.00  0.00     0.210 HD
ENDBRANCH   3  33
BRANCH   6  35
ATOM     35  C   LIG     1      15.789  51.751  25.713  0.00  0.00     0.197 C 
BRANCH  35  36
ATOM     36  O   LIG     1      15.018  50.821  24.965  0.00  0.00    -0.346 OA
BRANCH  36  37
ATOM     37  C   LIG     1      14.037  51.477  24.170  0.00  0.00     0.282 C 
ATOM     38  O   LIG     1      13.003  50.589  23.736  0.00  0.00    -0.343 OA
ATOM     39  C   LIG     1      13.453  49.550  22.859  0.00  0.00     0.149 C 
ATOM     40  C   LIG     1      14.093  50.134  21.594  0.00  0.00     0.174 C 
ATOM     41  C   LIG     1      12.238  48.682  22.537  0.00  0.00     0.041 C 
ATOM     42  C   LIG     1      15.208  51.111  21.972  0.00  0.00     0.179 C 
ATOM     43  C   LIG     1      14.707  52.152  22.975  0.00  0.00     0.201 C 
BRANCH  40  44
ATOM     44  O   LIG     1      14.664  49.094  20.804  0.00  0.00    -0.387 OA
ATOM     45  H   LIG     1      14.364  49.217  19.887  0.00  0.00     0.210 HD
ENDBRANCH  40  44
BRANCH  42  46
ATOM     46  O   LIG     1      15.683  51.759  20.794  0.00  0.00    -0.386 OA
ATOM     47  H   LIG     1      15.591  52.718  20.927  0.00  0.00     0.210 HD
ENDBRANCH  42  46
BRANCH  43  48
ATOM     48  O   LIG     1      13.740  53.000  22.354  0.00  0.00    -0.384 OA
ATOM     49  H   LIG     1      14.211  53.678  21.840  0.00  0.00     0.210 HD
ENDBRANCH  43  48
ENDBRANCH  36  37
ENDBRANCH  35  36
ENDBRANCH   6  35
BRANCH   4  50
ATOM     50  O   LIG     1      18.665  48.272  27.644  0.00  0.00    -0.386 OA
ATOM     51  H   LIG     1      19.545  48.486  27.998  0.00  0.00     0.210 HD
ENDBRANCH   4  50
BRANCH   5  52
ATOM     52  O   LIG     1      18.539  50.790  26.230  0.00  0.00    -0.386 OA
ATOM     53  H   LIG     1      19.287  50.171  26.201  0.00  0.00     0.210 HD
ENDBRANCH   5  52
TORSDOF 16
ENDMDL
MODEL 4
REMARK VINA RESULT:      -9.3      2.252      7.364
REMARK  16 active torsions:
REMARK  status: ('A' for Active; 'I' for Inactive)
REMARK    1  A    between atoms: C_2  and  O_12 
REMARK    2  A    between atoms: C_3  and  O_10 
REMARK    3  A    between atoms: C_4  and  O_8 
REMARK    4  A    between atoms: C_5  and  O_6 
REMARK    5  A    between atoms: C_38  and  C_39 
REMARK    6  A    between atoms: O_12  and  C_13 
REMARK    7  A    between atoms: C_16  and  O_22 
REMARK    8  A    between atoms: C_18  and  O_20 
REMARK    9  A    between atoms: C_27  and  C_28 
REMARK   10  A    between atoms: C_31  and  O_35 
REMARK   11  A    between atoms: C_32  and  O_33 
REMARK   12  A    between atoms: C_39  and  O_40 
REMARK   13  A    between atoms: O_40  and  C_41 
REMARK   14  A    between atoms: C_42  and  O_51 
REMARK   15  A    between atoms: C_43  and  O_49 
REMARK   16  A    between atoms: C_44  and  O_47 
ROOT
ATOM      1  O   LIG     1      12.815  50.055  25.600  0.00  0.00    -0.331 OA
ATOM      2  C   LIG     1      12.059  49.507  26.678  0.00  0.00     0.340 C 
ATOM      3  C   LIG     1      10.581  49.411  26.302  0.00  0.00     0.214 C 
ATOM      4  C   LIG     1      10.388  48.644  24.994  0.00  0.00     0.180 C 
ATOM      5  C   LIG     1      11.331  49.158  23.906  0.00  0.00     0.177 C 
ATOM      6  C   LIG     1      12.768  49.240  24.428  0.00  0.00     0.179 C 
ENDROOT
BRANCH   2   7
ATOM      7  O   LIG     1      12.169  50.353  27.822  0.00  0.00    -0.453 OA
BRANCH   7   8
ATOM      8  C   LIG     1      13.246  50.006  28.608  0.00  0.00     0.214 A 
ATOM      9  C   LIG     1      13.175  49.086  29.587  0.00  0.00     0.181 A 
ATOM     10  O   LIG     1      14.231  48.738  30.416  0.00  0.00    -0.451 OA
ATOM     11  C   LIG     1      15.442  49.351  30.225  0.00  0.00     0.147 A 
ATOM     12  C   LIG     1      16.487  48.972  31.069  0.00  0.00     0.092 A 
ATOM     13  C   LIG     1      15.654  50.314  29.242  0.00  0.00     0.109 A 
ATOM     14  C   LIG     1      17.744  49.560  30.924  0.00  0.00     0.124 A 
ATOM     15  C   LIG     1      17.955  50.526  29.939  0.00  0.00     0.091 A 
ATOM     16  C   LIG     1      16.912  50.907  29.094  0.00  0.00     0.135 A 
ATOM     17  C   LIG     1      14.536  50.698  28.367  0.00  0.00     0.238 A 
ATOM     18  O   LIG     1      14.661  51.542  27.491  0.00  0.00    -0.283 OA
BRANCH   9  19
ATOM     19  C   LIG     1      11.935  48.356  29.899  0.00  0.00     0.025 A 
ATOM     20  C   LIG     1      10.906  48.991  30.595  0.00  0.00     0.015 A 
ATOM     21  C   LIG     1       9.732  48.300  30.890  0.00  0.00     0.050 A 
ATOM     22  C   LIG     1       9.585  46.972  30.490  0.00  0.00     0.158 A 
ATOM     23  C   LIG     1      10.612  46.336  29.794  0.00  0.00     0.159 A 
ATOM     24  C   LIG     1      11.787  47.027  29.498  0.00  0.00     0.060 A 
BRANCH  22  25
ATOM     25  O   LIG     1       8.433  46.307  30.785  0.00  0.00    -0.503 OA
ATOM     26  H   LIG     1       8.621  45.588  31.409  0.00  0.00     0.292 HD
ENDBRANCH  22  25
BRANCH  23  27
ATOM     27  O   LIG     1      10.479  45.039  29.396  0.00  0.00    -0.503 OA
ATOM     28  H   LIG     1       9.566  44.744  29.543  0.00  0.00     0.292 HD
ENDBRANCH  23  27
ENDBRANCH   9  19
BRANCH  14  29
ATOM     29  O   LIG     1      18.764  49.193  31.746  0.00  0.00    -0.507 OA
ATOM     30  H   LIG     1      19.604  49.502  31.365  0.00  0.00     0.292 HD
ENDBRANCH  14  29
BRANCH  16  31
ATOM     31  O   LIG     1      17.172  51.854  28.150  0.00  0.00    -0.506 OA
ATOM     32  H   LIG     1      16.663  52.658  28.349  0.00  0.00     0.292 HD
ENDBRANCH  16  31
ENDBRANCH   7   8
ENDBRANCH   2   7
BRANCH   3  33
ATOM     33  O   LIG     1       9.894  48.735  27.355  0.00  0.00    -0.383 OA
ATOM     34  H   LIG     1       9.004  49.118  27.429  0.00  0.00     0.210 HD
ENDBRANCH   3  33
BRANCH   6  35
ATOM     35  C   LIG     1      13.708  49.859  23.398  0.00  0.00     0.197 C 
BRANCH  35  36
ATOM     36  O   LIG     1      14.946  49.163  23.426  0.00  0.00    -0.346 OA
BRANCH  36  37
ATOM     37  C   LIG     1      15.961  49.878  22.729  0.00  0.00     0.282 C 
ATOM     38  O   LIG     1      17.209  49.179  22.714  0.00  0.00    -0.343 OA
ATOM     39  C   LIG     1      17.799  49.004  24.007  0.00  0.00     0.149 C 
ATOM     40  C   LIG     1      18.059  50.357  24.682  0.00  0.00     0.174 C 
ATOM     41  C   LIG     1      19.086  48.207  23.805  0.00  0.00     0.041 C 
ATOM     42  C   LIG     1      16.770  51.178  24.728  0.00  0.00     0.179 C 
ATOM     43  C   LIG     1      16.128  51.267  23.342  0.00  0.00     0.201 C 
BRANCH  40  44
ATOM     44  O   LIG     1      18.510  50.162  26.021  0.00  0.00    -0.387 OA
ATOM     45  H   LIG     1      17.851  49.613  26.479  0.00  0.00     0.210 HD
ENDBRANCH  40  44
BRANCH  42  46
ATOM     46  O   LIG     1      17.064  52.486  25.213  0.00  0.00    -0.386 OA
ATOM     47  H   LIG     1      16.655  52.576  26.090  0.00  0.00     0.210 HD
ENDBRANCH  42  46
BRANCH  43  48
ATOM     48  O   LIG     1      16.960  52.032  22.468  0.00  0.00    -0.384 OA
ATOM     49  H   LIG     1      17.835  51.608  22.429  0.00  0.00     0.210 HD
ENDBRANCH  43  48
ENDBRANCH  36  37
ENDBRANCH  35  36
ENDBRANCH   6  35
BRANCH   4  50
ATOM     50  O   LIG     1       9.046  48.818  24.534  0.00  0.00    -0.386 OA
ATOM     51  H   LIG     1       8.804  49.747  24.688  0.00  0.00     0.210 HD
ENDBRANCH   4  50
BRANCH   5  52
ATOM     52  O   LIG     1      11.285  48.275  22.788  0.00  0.00    -0.386 OA
ATOM     53  H   LIG     1      10.387  47.907  22.732  0.00  0.00     0.210 HD
ENDBRANCH   5  52
TORSDOF 16
ENDMDL
MODEL 5
REMARK VINA RESULT:      -9.3      2.439      8.190
REMARK  16 active torsions:
REMARK  status: ('A' for Active; 'I' for Inactive)
REMARK    1  A    between atoms: C_2  and  O_12 
REMARK    2  A    between atoms: C_3  and  O_10 
REMARK    3  A    between atoms: C_4  and  O_8 
REMARK    4  A    between atoms: C_5  and  O_6 
REMARK    5  A    between atoms: C_38  and  C_39 
REMARK    6  A    between atoms: O_12  and  C_13 
REMARK    7  A    between atoms: C_16  and  O_22 
REMARK    8  A    between atoms: C_18  and  O_20 
REMARK    9  A    between atoms: C_27  and  C_28 
REMARK   10  A    between atoms: C_31  and  O_35 
REMARK   11  A    between atoms: C_32  and  O_33 
REMARK   12  A    between atoms: C_39  and  O_40 
REMARK   13  A    between atoms: O_40  and  C_41 
REMARK   14  A    between atoms: C_42  and  O_51 
REMARK   15  A    between atoms: C_43  and  O_49 
REMARK   16  A    between atoms: C_44  and  O_47 
ROOT
ATOM      1  O   LIG     1      13.903  50.041  28.427  0.00  0.00    -0.331 OA
ATOM      2  C   LIG     1      12.906  50.892  28.987  0.00  0.00     0.340 C 
ATOM      3  C   LIG     1      12.654  50.532  30.452  0.00  0.00     0.214 C 
ATOM      4  C   LIG     1      13.954  50.536  31.256  0.00  0.00     0.180 C 
ATOM      5  C   LIG     1      15.049  49.743  30.542  0.00  0.00     0.177 C 
ATOM      6  C   LIG     1      15.168  50.177  29.079  0.00  0.00     0.179 C 
ENDROOT
BRANCH   2   7
ATOM      7  O   LIG     1      11.679  50.728  28.277  0.00  0.00    -0.453 OA
BRANCH   7   8
ATOM      8  C   LIG     1      11.889  50.237  27.007  0.00  0.00     0.214 A 
ATOM      9  C   LIG     1      11.595  48.973  26.650  0.00  0.00     0.181 A 
ATOM     10  O   LIG     1      11.825  48.438  25.392  0.00  0.00    -0.451 OA
ATOM     11  C   LIG     1      12.370  49.246  24.427  0.00  0.00     0.147 A 
ATOM     12  C   LIG     1      12.580  48.682  23.168  0.00  0.00     0.092 A 
ATOM     13  C   LIG     1      12.713  50.576  24.661  0.00  0.00     0.109 A 
ATOM     14  C   LIG     1      13.132  49.454  22.146  0.00  0.00     0.124 A 
ATOM     15  C   LIG     1      13.476  50.785  22.381  0.00  0.00     0.091 A 
ATOM     16  C   LIG     1      13.267  51.352  23.639  0.00  0.00     0.135 A 
ATOM     17  C   LIG     1      12.485  51.146  25.998  0.00  0.00     0.238 A 
ATOM     18  O   LIG     1      12.771  52.305  26.263  0.00  0.00    -0.283 OA
BRANCH   9  19
ATOM     19  C   LIG     1      11.009  48.001  27.589  0.00  0.00     0.025 A 
ATOM     20  C   LIG     1      11.822  47.342  28.511  0.00  0.00     0.015 A 
ATOM     21  C   LIG     1      11.267  46.422  29.400  0.00  0.00     0.050 A 
ATOM     22  C   LIG     1       9.897  46.160  29.367  0.00  0.00     0.158 A 
ATOM     23  C   LIG     1       9.083  46.819  28.447  0.00  0.00     0.159 A 
ATOM     24  C   LIG     1       9.639  47.739  27.558  0.00  0.00     0.060 A 
BRANCH  22  25
ATOM     25  O   LIG     1       9.366  45.259  30.239  0.00  0.00    -0.503 OA
ATOM     26  H   LIG     1       9.741  44.380  30.070  0.00  0.00     0.292 HD
ENDBRANCH  22  25
BRANCH  23  27
ATOM     27  O   LIG     1       7.744  46.573  28.406  0.00  0.00    -0.503 OA
ATOM     28  H   LIG     1       7.269  47.267  28.892  0.00  0.00     0.292 HD
ENDBRANCH  23  27
ENDBRANCH   9  19
BRANCH  14  29
ATOM     29  O   LIG     1      13.338  48.905  20.917  0.00  0.00    -0.507 OA
ATOM     30  H   LIG     1      14.280  48.685  20.823  0.00  0.00     0.292 HD
ENDBRANCH  14  29
BRANCH  16  31
ATOM     31  O   LIG     1      13.620  52.656  23.815  0.00  0.00    -0.506 OA
ATOM     32  H   LIG     1      14.378  52.707  24.423  0.00  0.00     0.292 HD
ENDBRANCH  16  31
ENDBRANCH   7   8
ENDBRANCH   2   7
BRANCH   3  33
ATOM     33  O   LIG     1      11.754  51.494  31.001  0.00  0.00    -0.383 OA
ATOM     34  H   LIG     1      11.873  52.329  30.518  0.00  0.00     0.210 HD
ENDBRANCH   3  33
BRANCH   6  35
ATOM     35  C   LIG     1      16.173  49.321  28.315  0.00  0.00     0.197 C 
BRANCH  35  36
ATOM     36  O   LIG     1      16.865  50.141  27.384  0.00  0.00    -0.346 OA
BRANCH  36  37
ATOM     37  C   LIG     1      17.106  49.453  26.161  0.00  0.00     0.282 C 
ATOM     38  O   LIG     1      18.501  49.308  25.882  0.00  0.00    -0.343 OA
ATOM     39  C   LIG     1      19.189  50.545  25.670  0.00  0.00     0.149 C 
ATOM     40  C   LIG     1      18.582  51.319  24.493  0.00  0.00     0.174 C 
ATOM     41  C   LIG     1      20.658  50.204  25.434  0.00  0.00     0.041 C 
ATOM     42  C   LIG     1      17.079  51.508  24.707  0.00  0.00     0.179 C 
ATOM     43  C   LIG     1      16.398  50.174  25.015  0.00  0.00     0.201 C 
BRANCH  40  44
ATOM     44  O   LIG     1      19.181  52.609  24.388  0.00  0.00    -0.387 OA
ATOM     45  H   LIG     1      18.544  53.198  23.949  0.00  0.00     0.210 HD
ENDBRANCH  40  44
BRANCH  42  46
ATOM     46  O   LIG     1      16.507  52.087  23.536  0.00  0.00    -0.386 OA
ATOM     47  H   LIG     1      16.038  52.895  23.804  0.00  0.00     0.210 HD
ENDBRANCH  42  46
BRANCH  43  48
ATOM     48  O   LIG     1      16.450  49.324  23.868  0.00  0.00    -0.384 OA
ATOM     49  H   LIG     1      16.329  48.405  24.162  0.00  0.00     0.210 HD
ENDBRANCH  43  48
ENDBRANCH  36  37
ENDBRANCH  35  36
ENDBRANCH   6  35
BRANCH   4  50
ATOM     50  O   LIG     1      13.728  49.927  32.529  0.00  0.00    -0.386 OA
ATOM     51  H   LIG     1      13.509  50.637  33.156  0.00  0.00     0.210 HD
ENDBRANCH   4  50
BRANCH   5  52
ATOM     52  O   LIG     1      16.294  49.962  31.200  0.00  0.00    -0.386 OA
ATOM     53  H   LIG     1      16.384  50.916  31.364  0.00  0.00     0.210 HD
ENDBRANCH   5  52
TORSDOF 16
ENDMDL
MODEL 6
REMARK VINA RESULT:      -9.1      1.595      7.929
REMARK  16 active torsions:
REMARK  status: ('A' for Active; 'I' for Inactive)
REMARK    1  A    between atoms: C_2  and  O_12 
REMARK    2  A    between atoms: C_3  and  O_10 
REMARK    3  A    between atoms: C_4  and  O_8 
REMARK    4  A    between atoms: C_5  and  O_6 
REMARK    5  A    between atoms: C_38  and  C_39 
REMARK    6  A    between atoms: O_12  and  C_13 
REMARK    7  A    between atoms: C_16  and  O_22 
REMARK    8  A    between atoms: C_18  and  O_20 
REMARK    9  A    between atoms: C_27  and  C_28 
REMARK   10  A    between atoms: C_31  and  O_35 
REMARK   11  A    between atoms: C_32  and  O_33 
REMARK   12  A    between atoms: C_39  and  O_40 
REMARK   13  A    between atoms: O_40  and  C_41 
REMARK   14  A    between atoms: C_42  and  O_51 
REMARK   15  A    between atoms: C_43  and  O_49 
REMARK   16  A    between atoms: C_44  and  O_47 
ROOT
ATOM      1  O   LIG     1      15.440  50.189  24.235  0.00  0.00    -0.331 OA
ATOM      2  C   LIG     1      14.145  50.736  24.473  0.00  0.00     0.340 C 
ATOM      3  C   LIG     1      13.933  51.999  23.638  0.00  0.00     0.214 C 
ATOM      4  C   LIG     1      14.201  51.736  22.156  0.00  0.00     0.180 C 
ATOM      5  C   LIG     1      15.528  51.005  21.954  0.00  0.00     0.177 C 
ATOM      6  C   LIG     1      15.623  49.787  22.876  0.00  0.00     0.179 C 
ENDROOT
BRANCH   2   7
ATOM      7  O   LIG     1      14.018  51.092  25.849  0.00  0.00    -0.453 OA
BRANCH   7   8
ATOM      8  C   LIG     1      13.378  50.109  26.571  0.00  0.00     0.214 A 
ATOM      9  C   LIG     1      13.997  49.357  27.499  0.00  0.00     0.181 A 
ATOM     10  O   LIG     1      13.390  48.339  28.218  0.00  0.00    -0.451 OA
ATOM     11  C   LIG     1      12.062  48.082  27.995  0.00  0.00     0.147 A 
ATOM     12  C   LIG     1      11.477  47.058  28.742  0.00  0.00     0.092 A 
ATOM     13  C   LIG     1      11.301  48.792  27.069  0.00  0.00     0.109 A 
ATOM     14  C   LIG     1      10.129  46.749  28.559  0.00  0.00     0.124 A 
ATOM     15  C   LIG     1       9.368  47.460  27.631  0.00  0.00     0.091 A 
ATOM     16  C   LIG     1       9.950  48.484  26.882  0.00  0.00     0.135 A 
ATOM     17  C   LIG     1      11.942  49.864  26.293  0.00  0.00     0.238 A 
ATOM     18  O   LIG     1      11.325  50.517  25.462  0.00  0.00    -0.283 OA
BRANCH   9  19
ATOM     19  C   LIG     1      15.421  49.527  27.834  0.00  0.00     0.025 A 
ATOM     20  C   LIG     1      16.333  48.512  27.546  0.00  0.00     0.015 A 
ATOM     21  C   LIG     1      17.681  48.673  27.863  0.00  0.00     0.050 A 
ATOM     22  C   LIG     1      18.119  49.851  28.470  0.00  0.00     0.158 A 
ATOM     23  C   LIG     1      17.209  50.867  28.758  0.00  0.00     0.159 A 
ATOM     24  C   LIG     1      15.860  50.705  28.440  0.00  0.00     0.060 A 
BRANCH  22  25
ATOM     25  O   LIG     1      19.438  49.997  28.776  0.00  0.00    -0.503 OA
ATOM     26  H   LIG     1      19.535  50.189  29.722  0.00  0.00     0.292 HD
ENDBRANCH  22  25
BRANCH  23  27
ATOM     27  O   LIG     1      17.624  52.022  29.349  0.00  0.00    -0.503 OA
ATOM     28  H   LIG     1      17.135  52.160  30.176  0.00  0.00     0.292 HD
ENDBRANCH  23  27
ENDBRANCH   9  19
BRANCH  14  29
ATOM     29  O   LIG     1       9.557  45.751  29.286  0.00  0.00    -0.507 OA
ATOM     30  H   LIG     1       8.945  45.256  28.715  0.00  0.00     0.292 HD
ENDBRANCH  14  29
BRANCH  16  31
ATOM     31  O   LIG     1       9.162  49.146  25.990  0.00  0.00    -0.506 OA
ATOM     32  H   LIG     1       8.347  48.638  25.838  0.00  0.00     0.292 HD
ENDBRANCH  16  31
ENDBRANCH   7   8
ENDBRANCH   2   7
BRANCH   3  33
ATOM     33  O   LIG     1      12.582  52.427  23.807  0.00  0.00    -0.383 OA
ATOM     34  H   LIG     1      12.534  52.957  24.620  0.00  0.00     0.210 HD
ENDBRANCH   3  33
BRANCH   6  35
ATOM     35  C   LIG     1      16.985  49.108  22.777  0.00  0.00     0.197 C 
BRANCH  35  36
ATOM     36  O   LIG     1      17.682  49.289  24.002  0.00  0.00    -0.346 OA
BRANCH  36  37
ATOM     37  C   LIG     1      18.803  50.152  23.841  0.00  0.00     0.282 C 
ATOM     38  O   LIG     1      19.677  49.720  22.793  0.00  0.00    -0.343 OA
ATOM     39  C   LIG     1      20.303  48.456  23.035  0.00  0.00     0.149 C 
ATOM     40  C   LIG     1      21.139  48.491  24.321  0.00  0.00     0.174 C 
ATOM     41  C   LIG     1      21.154  48.138  21.808  0.00  0.00     0.041 C 
ATOM     42  C   LIG     1      20.278  48.957  25.496  0.00  0.00     0.179 C 
ATOM     43  C   LIG     1      19.560  50.266  25.163  0.00  0.00     0.201 C 
BRANCH  40  44
ATOM     44  O   LIG     1      21.635  47.189  24.624  0.00  0.00    -0.387 OA
ATOM     45  H   LIG     1      20.930  46.549  24.428  0.00  0.00     0.210 HD
ENDBRANCH  40  44
BRANCH  42  46
ATOM     46  O   LIG     1      21.105  49.134  26.643  0.00  0.00    -0.386 OA
ATOM     47  H   LIG     1      20.887  48.430  27.278  0.00  0.00     0.210 HD
ENDBRANCH  42  46
BRANCH  43  48
ATOM     48  O   LIG     1      20.512  51.323  25.029  0.00  0.00    -0.384 OA
ATOM     49  H   LIG     1      21.404  50.947  25.131  0.00  0.00     0.210 HD
ENDBRANCH  43  48
ENDBRANCH  36  37
ENDBRANCH  35  36
ENDBRANCH   6  35
BRANCH   4  50
ATOM     50  O   LIG     1      14.272  52.981  21.458  0.00  0.00    -0.386 OA
ATOM     51  H   LIG     1      14.759  52.824  20.631  0.00  0.00     0.210 HD
ENDBRANCH   4  50
BRANCH   5  52
ATOM     52  O   LIG     1      15.629  50.578  20.598  0.00  0.00    -0.386 OA
ATOM     53  H   LIG     1      15.542  49.610  20.580  0.00  0.00     0.210 HD
ENDBRANCH   5  52
TORSDOF 16
ENDMDL
MODEL 7
REMARK VINA RESULT:      -9.1      2.238      8.456
REMARK  16 active torsions:
REMARK  status: ('A' for Active; 'I' for Inactive)
REMARK    1  A    between atoms: C_2  and  O_12 
REMARK    2  A    between atoms: C_3  and  O_10 
REMARK    3  A    between atoms: C_4  and  O_8 
REMARK    4  A    between atoms: C_5  and  O_6 
REMARK    5  A    between atoms: C_38  and  C_39 
REMARK    6  A    between atoms: O_12  and  C_13 
REMARK    7  A    between atoms: C_16  and  O_22 
REMARK    8  A    between atoms: C_18  and  O_20 
REMARK    9  A    between atoms: C_27  and  C_28 
REMARK   10  A    between atoms: C_31  and  O_35 
REMARK   11  A    between atoms: C_32  and  O_33 
REMARK   12  A    between atoms: C_39  and  O_40 
REMARK   13  A    between atoms: O_40  and  C_41 
REMARK   14  A    between atoms: C_42  and  O_51 
REMARK   15  A    between atoms: C_43  and  O_49 
REMARK   16  A    between atoms: C_44  and  O_47 
ROOT
ATOM      1  O   LIG     1      13.677  49.818  24.832  0.00  0.00    -0.331 OA
ATOM      2  C   LIG     1      12.510  49.007  24.947  0.00  0.00     0.340 C 
ATOM      3  C   LIG     1      11.694  49.053  23.655  0.00  0.00     0.214 C 
ATOM      4  C   LIG     1      12.551  48.687  22.443  0.00  0.00     0.180 C 
ATOM      5  C   LIG     1      13.868  49.464  22.441  0.00  0.00     0.177 C 
ATOM      6  C   LIG     1      14.559  49.364  23.803  0.00  0.00     0.179 C 
ENDROOT
BRANCH   2   7
ATOM      7  O   LIG     1      11.686  49.496  26.005  0.00  0.00    -0.453 OA
BRANCH   7   8
ATOM      8  C   LIG     1      11.641  48.614  27.062  0.00  0.00     0.214 A 
ATOM      9  C   LIG     1      12.650  48.467  27.940  0.00  0.00     0.181 A 
ATOM     10  O   LIG     1      12.649  47.566  28.994  0.00  0.00    -0.451 OA
ATOM     11  C   LIG     1      11.544  46.777  29.180  0.00  0.00     0.147 A 
ATOM     12  C   LIG     1      11.569  45.888  30.255  0.00  0.00     0.092 A 
ATOM     13  C   LIG     1      10.427  46.835  28.349  0.00  0.00     0.109 A 
ATOM     14  C   LIG     1      10.474  45.058  30.495  0.00  0.00     0.124 A 
ATOM     15  C   LIG     1       9.356  45.116  29.663  0.00  0.00     0.091 A 
ATOM     16  C   LIG     1       9.327  46.005  28.587  0.00  0.00     0.135 A 
ATOM     17  C   LIG     1      10.426  47.779  27.221  0.00  0.00     0.238 A 
ATOM     18  O   LIG     1       9.476  47.869  26.456  0.00  0.00    -0.283 OA
BRANCH   9  19
ATOM     19  C   LIG     1      13.895  49.249  27.854  0.00  0.00     0.025 A 
ATOM     20  C   LIG     1      13.853  50.641  27.938  0.00  0.00     0.015 A 
ATOM     21  C   LIG     1      15.031  51.381  27.857  0.00  0.00     0.050 A 
ATOM     22  C   LIG     1      16.254  50.731  27.689  0.00  0.00     0.158 A 
ATOM     23  C   LIG     1      16.298  49.340  27.604  0.00  0.00     0.159 A 
ATOM     24  C   LIG     1      15.118  48.599  27.687  0.00  0.00     0.060 A 
BRANCH  22  25
ATOM     25  O   LIG     1      17.398  51.465  27.609  0.00  0.00    -0.503 OA
ATOM     26  H   LIG     1      17.783  51.376  26.723  0.00  0.00     0.292 HD
ENDBRANCH  22  25
BRANCH  23  27
ATOM     27  O   LIG     1      17.486  48.693  27.442  0.00  0.00    -0.503 OA
ATOM     28  H   LIG     1      17.333  47.735  27.403  0.00  0.00     0.292 HD
ENDBRANCH  23  27
ENDBRANCH   9  19
BRANCH  14  29
ATOM     29  O   LIG     1      10.497  44.190  31.543  0.00  0.00    -0.507 OA
ATOM     30  H   LIG     1      10.509  44.697  32.373  0.00  0.00     0.292 HD
ENDBRANCH  14  29
BRANCH  16  31
ATOM     31  O   LIG     1       8.212  46.021  27.805  0.00  0.00    -0.506 OA
ATOM     32  H   LIG     1       8.270  45.311  27.142  0.00  0.00     0.292 HD
ENDBRANCH  16  31
ENDBRANCH   7   8
ENDBRANCH   2   7
BRANCH   3  33
ATOM     33  O   LIG     1      10.617  48.125  23.772  0.00  0.00    -0.383 OA
ATOM     34  H   LIG     1      10.287  48.159  24.685  0.00  0.00     0.210 HD
ENDBRANCH   3  33
BRANCH   6  35
ATOM     35  C   LIG     1      15.817  50.226  23.864  0.00  0.00     0.197 C 
BRANCH  35  36
ATOM     36  O   LIG     1      16.811  49.651  23.027  0.00  0.00    -0.346 OA
BRANCH  36  37
ATOM     37  C   LIG     1      18.039  50.366  23.112  0.00  0.00     0.282 C 
ATOM     38  O   LIG     1      18.935  50.040  22.044  0.00  0.00    -0.343 OA
ATOM     39  C   LIG     1      19.378  48.679  22.045  0.00  0.00     0.149 C 
ATOM     40  C   LIG     1      20.107  48.337  23.352  0.00  0.00     0.174 C 
ATOM     41  C   LIG     1      20.279  48.503  20.825  0.00  0.00     0.041 C 
ATOM     42  C   LIG     1      19.218  48.668  24.551  0.00  0.00     0.179 C 
ATOM     43  C   LIG     1      18.696  50.104  24.466  0.00  0.00     0.201 C 
BRANCH  40  44
ATOM     44  O   LIG     1      20.412  46.945  23.397  0.00  0.00    -0.387 OA
ATOM     45  H   LIG     1      20.593  46.710  24.323  0.00  0.00     0.210 HD
ENDBRANCH  40  44
BRANCH  42  46
ATOM     46  O   LIG     1      19.966  48.493  25.752  0.00  0.00    -0.386 OA
ATOM     47  H   LIG     1      20.130  49.374  26.130  0.00  0.00     0.210 HD
ENDBRANCH  42  46
BRANCH  43  48
ATOM     48  O   LIG     1      19.779  51.025  24.610  0.00  0.00    -0.384 OA
ATOM     49  H   LIG     1      20.563  50.647  24.176  0.00  0.00     0.210 HD
ENDBRANCH  43  48
ENDBRANCH  36  37
ENDBRANCH  35  36
ENDBRANCH   6  35
BRANCH   4  50
ATOM     50  O   LIG     1      11.845  49.014  21.245  0.00  0.00    -0.386 OA
ATOM     51  H   LIG     1      12.497  49.340  20.602  0.00  0.00     0.210 HD
ENDBRANCH   4  50
BRANCH   5  52
ATOM     52  O   LIG     1      14.727  48.931  21.437  0.00  0.00    -0.386 OA
ATOM     53  H   LIG     1      15.543  49.459  21.428  0.00  0.00     0.210 HD
ENDBRANCH   5  52
TORSDOF 16
ENDMDL
MODEL 8
REMARK VINA RESULT:      -9.0      2.561      4.797
REMARK  16 active torsions:
REMARK  status: ('A' for Active; 'I' for Inactive)
REMARK    1  A    between atoms: C_2  and  O_12 
REMARK    2  A    between atoms: C_3  and  O_10 
REMARK    3  A    between atoms: C_4  and  O_8 
REMARK    4  A    between atoms: C_5  and  O_6 
REMARK    5  A    between atoms: C_38  and  C_39 
REMARK    6  A    between atoms: O_12  and  C_13 
REMARK    7  A    between atoms: C_16  and  O_22 
REMARK    8  A    between atoms: C_18  and  O_20 
REMARK    9  A    between atoms: C_27  and  C_28 
REMARK   10  A    between atoms: C_31  and  O_35 
REMARK   11  A    between atoms: C_32  and  O_33 
REMARK   12  A    between atoms: C_39  and  O_40 
REMARK   13  A    between atoms: O_40  and  C_41 
REMARK   14  A    between atoms: C_42  and  O_51 
REMARK   15  A    between atoms: C_43  and  O_49 
REMARK   16  A    between atoms: C_44  and  O_47 
ROOT
ATOM      1  O   LIG     1      19.060  49.266  24.323  0.00  0.00    -0.331 OA
ATOM      2  C   LIG     1      20.247  48.892  23.628  0.00  0.00     0.340 C 
ATOM      3  C   LIG     1      19.908  48.344  22.241  0.00  0.00     0.214 C 
ATOM      4  C   LIG     1      19.046  49.327  21.451  0.00  0.00     0.180 C 
ATOM      5  C   LIG     1      17.869  49.829  22.288  0.00  0.00     0.177 C 
ATOM      6  C   LIG     1      18.344  50.311  23.660  0.00  0.00     0.179 C 
ENDROOT
BRANCH   2   7
ATOM      7  O   LIG     1      20.926  47.867  24.352  0.00  0.00    -0.453 OA
BRANCH   7   8
ATOM      8  C   LIG     1      22.017  48.363  25.032  0.00  0.00     0.214 A 
ATOM      9  C   LIG     1      21.951  48.814  26.298  0.00  0.00     0.181 A 
ATOM     10  O   LIG     1      23.021  49.349  26.998  0.00  0.00    -0.451 OA
ATOM     11  C   LIG     1      24.243  49.412  26.379  0.00  0.00     0.147 A 
ATOM     12  C   LIG     1      25.302  49.946  27.114  0.00  0.00     0.092 A 
ATOM     13  C   LIG     1      24.451  48.971  25.074  0.00  0.00     0.109 A 
ATOM     14  C   LIG     1      26.569  50.037  26.537  0.00  0.00     0.124 A 
ATOM     15  C   LIG     1      26.777  49.596  25.230  0.00  0.00     0.091 A 
ATOM     16  C   LIG     1      25.719  49.061  24.493  0.00  0.00     0.135 A 
ATOM     17  C   LIG     1      23.317  48.415  24.321  0.00  0.00     0.238 A 
ATOM     18  O   LIG     1      23.439  48.018  23.170  0.00  0.00    -0.283 OA
BRANCH   9  19
ATOM     19  C   LIG     1      20.700  48.806  27.077  0.00  0.00     0.025 A 
ATOM     20  C   LIG     1      20.182  47.602  27.553  0.00  0.00     0.015 A 
ATOM     21  C   LIG     1      18.998  47.594  28.290  0.00  0.00     0.050 A 
ATOM     22  C   LIG     1      18.331  48.791  28.551  0.00  0.00     0.158 A 
ATOM     23  C   LIG     1      18.849  49.996  28.076  0.00  0.00     0.159 A 
ATOM     24  C   LIG     1      20.034  50.003  27.339  0.00  0.00     0.060 A 
BRANCH  22  25
ATOM     25  O   LIG     1      17.175  48.772  29.271  0.00  0.00    -0.503 OA
ATOM     26  H   LIG     1      16.476  48.339  28.756  0.00  0.00     0.292 HD
ENDBRANCH  22  25
BRANCH  23  27
ATOM     27  O   LIG     1      18.208  51.172  28.326  0.00  0.00    -0.503 OA
ATOM     28  H   LIG     1      17.774  51.129  29.193  0.00  0.00     0.292 HD
ENDBRANCH  23  27
ENDBRANCH   9  19
BRANCH  14  29
ATOM     29  O   LIG     1      27.604  50.557  27.252  0.00  0.00    -0.507 OA
ATOM     30  H   LIG     1      27.251  51.180  27.910  0.00  0.00     0.292 HD
ENDBRANCH  14  29
BRANCH  16  31
ATOM     31  O   LIG     1      25.976  48.646  23.221  0.00  0.00    -0.506 OA
ATOM     32  H   LIG     1      25.303  49.008  22.620  0.00  0.00     0.292 HD
ENDBRANCH  16  31
ENDBRANCH   7   8
ENDBRANCH   2   7
BRANCH   3  33
ATOM     33  O   LIG     1      21.129  48.114  21.540  0.00  0.00    -0.383 OA
ATOM     34  H   LIG     1      21.864  48.385  22.116  0.00  0.00     0.210 HD
ENDBRANCH   3  33
BRANCH   6  35
ATOM     35  C   LIG     1      17.176  50.707  24.557  0.00  0.00     0.197 C 
BRANCH  35  36
ATOM     36  O   LIG     1      16.131  49.757  24.401  0.00  0.00    -0.346 OA
BRANCH  36  37
ATOM     37  C   LIG     1      14.882  50.278  24.844  0.00  0.00     0.282 C 
ATOM     38  O   LIG     1      13.781  49.442  24.478  0.00  0.00    -0.343 OA
ATOM     39  C   LIG     1      13.575  49.330  23.065  0.00  0.00     0.149 C 
ATOM     40  C   LIG     1      13.315  50.704  22.435  0.00  0.00     0.174 C 
ATOM     41  C   LIG     1      12.400  48.375  22.861  0.00  0.00     0.041 C 
ATOM     42  C   LIG     1      14.447  51.668  22.790  0.00  0.00     0.179 C 
ATOM     43  C   LIG     1      14.691  51.693  24.300  0.00  0.00     0.201 C 
BRANCH  40  44
ATOM     44  O   LIG     1      13.257  50.593  21.015  0.00  0.00    -0.387 OA
ATOM     45  H   LIG     1      13.793  49.825  20.754  0.00  0.00     0.210 HD
ENDBRANCH  40  44
BRANCH  42  46
ATOM     46  O   LIG     1      14.112  52.976  22.331  0.00  0.00    -0.386 OA
ATOM     47  H   LIG     1      13.953  53.533  23.112  0.00  0.00     0.210 HD
ENDBRANCH  42  46
BRANCH  43  48
ATOM     48  O   LIG     1      13.565  52.267  24.966  0.00  0.00    -0.384 OA
ATOM     49  H   LIG     1      13.878  52.706  25.775  0.00  0.00     0.210 HD
ENDBRANCH  43  48
ENDBRANCH  36  37
ENDBRANCH  35  36
ENDBRANCH   6  35
BRANCH   4  50
ATOM     50  O   LIG     1      18.518  48.674  20.294  0.00  0.00    -0.386 OA
ATOM     51  H   LIG     1      17.720  49.160  20.024  0.00  0.00     0.210 HD
ENDBRANCH   4  50
BRANCH   5  52
ATOM     52  O   LIG     1      17.230  50.905  21.606  0.00  0.00    -0.386 OA
ATOM     53  H   LIG     1      16.464  51.184  22.135  0.00  0.00     0.210 HD
ENDBRANCH   5  52
TORSDOF 16
ENDMDL
