MODEL 1
REMARK VINA RESULT:      -9.3      0.000      0.000
REMARK  Name = 5280637
REMARK                            x       y       z     vdW  Elec       q    Type
REMARK                         _______ _______ _______ _____ _____    ______ ____
ROOT
ATOM     13  C   LIG    1       60.655  16.715  25.171  0.00  0.00    +0.131 A 
ATOM     14  C   LIG    1       60.220  18.034  25.037  0.00  0.00    +0.092 A 
ATOM     15  C   LIG    1       60.960  18.943  24.280  0.00  0.00    +0.135 A 
ATOM     16  C   LIG    1       62.138  18.524  23.658  0.00  0.00    +0.105 A 
ATOM     17  C   LIG    1       62.940  19.459  22.855  0.00  0.00    +0.197 A 
ATOM     18  C   LIG    1       64.165  18.907  22.241  0.00  0.00    +0.098 A 
ATOM     19  C   LIG    1       64.475  17.617  22.438  0.00  0.00    +0.139 A 
ATOM     30  O   LIG    1       63.722  16.739  23.202  0.00  0.00    -0.454 OA
ATOM     31  O   LIG    1       62.618  20.629  22.700  0.00  0.00    -0.287 OA
ATOM     32  C   LIG    1       62.573  17.205  23.790  0.00  0.00    +0.146 A 
ATOM     35  C   LIG    1       61.832  16.299  24.548  0.00  0.00    +0.093 A 
ENDROOT
BRANCH  19  20
ATOM     20  C   LIG    1       65.692  17.013  21.856  0.00  0.00    +0.021 A 
ATOM     21  C   LIG    1       66.404  16.046  22.570  0.00  0.00    +0.015 A 
ATOM     22  C   LIG    1       67.554  15.477  22.021  0.00  0.00    +0.050 A 
ATOM     23  C   LIG    1       67.993  15.873  20.757  0.00  0.00    +0.158 A 
ATOM     24  C   LIG    1       67.284  16.838  20.043  0.00  0.00    +0.159 A 
ATOM     29  C   LIG    1       66.134  17.408  20.592  0.00  0.00    +0.060 A 
BRANCH  24  25
ATOM     25  O   LIG    1       67.703  17.231  18.808  0.00  0.00    -0.503 OA
ATOM     26  H   LIG    1       68.575  16.834  18.640  0.00  0.00    +0.292 HD
ENDBRANCH  24  25
BRANCH  23  27
ATOM     27  O   LIG    1       69.118  15.310  20.233  0.00  0.00    -0.503 OA
ATOM     28  H   LIG    1       69.886  15.859  20.469  0.00  0.00    +0.292 HD
ENDBRANCH  23  27
ENDBRANCH  19  20
BRANCH  15  33
ATOM     33  O   LIG    1       60.493  20.219  24.181  0.00  0.00    -0.506 OA
ATOM     34  H   LIG    1       60.871  20.775  24.879  0.00  0.00    +0.292 HD
ENDBRANCH  15  33
BRANCH  13  12
ATOM     12  O   LIG    1       59.928  15.830  25.912  0.00  0.00    -0.461 OA
BRANCH  12   2
ATOM      1  O   LIG    1       60.120  16.552  28.123  0.00  0.00    -0.331 OA
ATOM      2  C   LIG    1       59.222  16.364  27.032  0.00  0.00    +0.339 C 
ATOM      3  C   LIG    1       58.121  15.373  27.409  0.00  0.00    +0.214 C 
ATOM      4  C   LIG    1       57.409  15.796  28.695  0.00  0.00    +0.180 C 
ATOM      5  C   LIG    1       58.413  16.144  29.794  0.00  0.00    +0.177 C 
ATOM     36  C   LIG    1       59.478  17.110  29.271  0.00  0.00    +0.179 C 
BRANCH   5   6
ATOM      6  O   LIG    1       57.725  16.747  30.887  0.00  0.00    -0.386 OA
ATOM      7  H   LIG    1       56.975  17.251  30.528  0.00  0.00    +0.210 HD
ENDBRANCH   5   6
BRANCH   4   8
ATOM      8  O   LIG    1       56.595  14.719  29.163  0.00  0.00    -0.386 OA
ATOM      9  H   LIG    1       56.983  13.893  28.826  0.00  0.00    +0.210 HD
ENDBRANCH   4   8
BRANCH   3  10
ATOM     10  O   LIG    1       57.176  15.325  26.339  0.00  0.00    -0.383 OA
ATOM     11  H   LIG    1       57.492  15.912  25.632  0.00  0.00    +0.210 HD
ENDBRANCH   3  10
BRANCH  36  37
ATOM     37  C   LIG    1       60.557  17.380  30.315  0.00  0.00    +0.190 C 
BRANCH  37  38
ATOM     38  O   LIG    1       60.067  18.343  31.230  0.00  0.00    -0.392 OA
ATOM     39  H   LIG    1       60.531  19.179  31.056  0.00  0.00    +0.210 HD
ENDBRANCH  37  38
ENDBRANCH  36  37
ENDBRANCH  12   2
ENDBRANCH  13  12
TORSDOF 11
ENDMDL
MODEL 2
REMARK VINA RESULT:      -9.3     23.236     25.637
REMARK  Name = 5280637
REMARK                            x       y       z     vdW  Elec       q    Type
REMARK                         _______ _______ _______ _____ _____    ______ ____
ROOT
ATOM     13  C   LIG    1       74.595  33.798  33.704  0.00  0.00    +0.131 A 
ATOM     14  C   LIG    1       73.749  32.741  34.040  0.00  0.00    +0.092 A 
ATOM     15  C   LIG    1       73.921  32.062  35.247  0.00  0.00    +0.135 A 
ATOM     16  C   LIG    1       74.945  32.448  36.115  0.00  0.00    +0.105 A 
ATOM     17  C   LIG    1       75.152  31.751  37.394  0.00  0.00    +0.197 A 
ATOM     18  C   LIG    1       76.262  32.245  38.234  0.00  0.00    +0.098 A 
ATOM     19  C   LIG    1       77.004  33.277  37.803  0.00  0.00    +0.139 A 
ATOM     30  O   LIG    1       76.812  33.927  36.594  0.00  0.00    -0.454 OA
ATOM     31  O   LIG    1       74.450  30.815  37.748  0.00  0.00    -0.287 OA
ATOM     32  C   LIG    1       75.790  33.506  35.781  0.00  0.00    +0.146 A 
ATOM     35  C   LIG    1       75.617  34.182  34.574  0.00  0.00    +0.093 A 
ENDROOT
BRANCH  19  20
ATOM     20  C   LIG    1       78.132  33.807  38.597  0.00  0.00    +0.021 A 
ATOM     21  C   LIG    1       79.349  33.123  38.629  0.00  0.00    +0.015 A 
ATOM     22  C   LIG    1       80.413  33.623  39.379  0.00  0.00    +0.050 A 
ATOM     23  C   LIG    1       80.264  34.810  40.098  0.00  0.00    +0.158 A 
ATOM     24  C   LIG    1       79.049  35.494  40.068  0.00  0.00    +0.159 A 
ATOM     29  C   LIG    1       77.985  34.994  39.318  0.00  0.00    +0.060 A 
BRANCH  24  25
ATOM     25  O   LIG    1       78.893  36.655  40.765  0.00  0.00    -0.503 OA
ATOM     26  H   LIG    1       78.010  37.012  40.571  0.00  0.00    +0.292 HD
ENDBRANCH  24  25
BRANCH  23  27
ATOM     27  O   LIG    1       81.311  35.287  40.827  0.00  0.00    -0.503 OA
ATOM     28  H   LIG    1       81.342  34.819  41.680  0.00  0.00    +0.292 HD
ENDBRANCH  23  27
ENDBRANCH  19  20
BRANCH  15  33
ATOM     33  O   LIG    1       73.070  31.036  35.529  0.00  0.00    -0.506 OA
ATOM     34  H   LIG    1       72.933  30.960  36.485  0.00  0.00    +0.292 HD
ENDBRANCH  15  33
BRANCH  13  12
ATOM     12  O   LIG    1       74.423  34.458  32.523  0.00  0.00    -0.461 OA
BRANCH  12   2
ATOM      1  O   LIG    1       72.423  35.551  32.021  0.00  0.00    -0.331 OA
ATOM      2  C   LIG    1       73.725  35.701  32.582  0.00  0.00    +0.339 C 
ATOM      3  C   LIG    1       74.533  36.732  31.793  0.00  0.00    +0.214 C 
ATOM      4  C   LIG    1       73.781  38.058  31.678  0.00  0.00    +0.180 C 
ATOM      5  C   LIG    1       72.337  37.839  31.227  0.00  0.00    +0.177 C 
ATOM     36  C   LIG    1       71.661  36.758  32.074  0.00  0.00    +0.179 C 
BRANCH   5   6
ATOM      6  O   LIG    1       71.612  39.060  31.354  0.00  0.00    -0.386 OA
ATOM      7  H   LIG    1       71.783  39.594  30.559  0.00  0.00    +0.210 HD
ENDBRANCH   5   6
BRANCH   4   8
ATOM      8  O   LIG    1       74.426  38.888  30.710  0.00  0.00    -0.386 OA
ATOM      9  H   LIG    1       74.542  38.357  29.903  0.00  0.00    +0.210 HD
ENDBRANCH   4   8
BRANCH   3  10
ATOM     10  O   LIG    1       75.770  36.946  32.471  0.00  0.00    -0.383 OA
ATOM     11  H   LIG    1       76.016  37.881  32.360  0.00  0.00    +0.210 HD
ENDBRANCH   3  10
BRANCH  36  37
ATOM     37  C   LIG    1       70.258  36.439  31.567  0.00  0.00    +0.190 C 
BRANCH  37  38
ATOM     38  O   LIG    1       70.208  36.712  30.178  0.00  0.00    -0.392 OA
ATOM     39  H   LIG    1       70.871  36.150  29.742  0.00  0.00    +0.210 HD
ENDBRANCH  37  38
ENDBRANCH  36  37
ENDBRANCH  12   2
ENDBRANCH  13  12
TORSDOF 11
ENDMDL
MODEL 3
REMARK VINA RESULT:      -9.1      2.071      2.701
REMARK  Name = 5280637
REMARK                            x       y       z     vdW  Elec       q    Type
REMARK                         _______ _______ _______ _____ _____    ______ ____
ROOT
ATOM     13  C   LIG    1       58.761  19.061  25.764  0.00  0.00    +0.131 A 
ATOM     14  C   LIG    1       59.053  20.349  26.214  0.00  0.00    +0.092 A 
ATOM     15  C   LIG    1       60.209  20.999  25.777  0.00  0.00    +0.135 A 
ATOM     16  C   LIG    1       61.069  20.352  24.887  0.00  0.00    +0.105 A 
ATOM     17  C   LIG    1       62.294  21.010  24.411  0.00  0.00    +0.197 A 
ATOM     18  C   LIG    1       63.129  20.234  23.471  0.00  0.00    +0.098 A 
ATOM     19  C   LIG    1       62.738  19.003  23.106  0.00  0.00    +0.139 A 
ATOM     30  O   LIG    1       61.586  18.382  23.563  0.00  0.00    -0.454 OA
ATOM     31  O   LIG    1       62.612  22.136  24.768  0.00  0.00    -0.287 OA
ATOM     32  C   LIG    1       60.777  19.065  24.436  0.00  0.00    +0.146 A 
ATOM     35  C   LIG    1       59.623  18.417  24.875  0.00  0.00    +0.093 A 
ENDROOT
BRANCH  19  20
ATOM     20  C   LIG    1       63.536  18.178  22.176  0.00  0.00    +0.021 A 
ATOM     21  C   LIG    1       64.482  18.778  21.343  0.00  0.00    +0.015 A 
ATOM     22  C   LIG    1       65.235  17.999  20.464  0.00  0.00    +0.050 A 
ATOM     23  C   LIG    1       65.044  16.617  20.418  0.00  0.00    +0.158 A 
ATOM     24  C   LIG    1       64.099  16.016  21.249  0.00  0.00    +0.159 A 
ATOM     29  C   LIG    1       63.346  16.795  22.127  0.00  0.00    +0.060 A 
BRANCH  24  25
ATOM     25  O   LIG    1       63.905  14.668  21.213  0.00  0.00    -0.503 OA
ATOM     26  H   LIG    1       63.735  14.407  20.292  0.00  0.00    +0.292 HD
ENDBRANCH  24  25
BRANCH  23  27
ATOM     27  O   LIG    1       65.784  15.868  19.555  0.00  0.00    -0.503 OA
ATOM     28  H   LIG    1       66.056  16.424  18.804  0.00  0.00    +0.292 HD
ENDBRANCH  23  27
ENDBRANCH  19  20
BRANCH  15  33
ATOM     33  O   LIG    1       60.449  22.255  26.247  0.00  0.00    -0.506 OA
ATOM     34  H   LIG    1       61.354  22.323  26.588  0.00  0.00    +0.292 HD
ENDBRANCH  15  33
BRANCH  13  12
ATOM     12  O   LIG    1       57.631  18.430  26.194  0.00  0.00    -0.461 OA
BRANCH  12   2
ATOM      1  O   LIG    1       58.742  18.105  28.219  0.00  0.00    -0.331 OA
ATOM      2  C   LIG    1       57.470  18.300  27.606  0.00  0.00    +0.339 C 
ATOM      3  C   LIG    1       56.559  17.101  27.867  0.00  0.00    +0.214 C 
ATOM      4  C   LIG    1       56.454  16.797  29.362  0.00  0.00    +0.180 C 
ATOM      5  C   LIG    1       57.835  16.754  30.016  0.00  0.00    +0.177 C 
ATOM     36  C   LIG    1       58.652  17.992  29.641  0.00  0.00    +0.179 C 
BRANCH   5   6
ATOM      6  O   LIG    1       57.684  16.700  31.433  0.00  0.00    -0.386 OA
ATOM      7  H   LIG    1       56.733  16.717  31.634  0.00  0.00    +0.210 HD
ENDBRANCH   5   6
BRANCH   4   8
ATOM      8  O   LIG    1       55.837  15.522  29.546  0.00  0.00    -0.386 OA
ATOM      9  H   LIG    1       56.078  15.208  30.434  0.00  0.00    +0.210 HD
ENDBRANCH   4   8
BRANCH   3  10
ATOM     10  O   LIG    1       55.262  17.403  27.353  0.00  0.00    -0.383 OA
ATOM     11  H   LIG    1       54.607  16.925  27.889  0.00  0.00    +0.210 HD
ENDBRANCH   3  10
BRANCH  36  37
ATOM     37  C   LIG    1       60.075  17.916  30.187  0.00  0.00    +0.190 C 
BRANCH  37  38
ATOM     38  O   LIG    1       60.066  18.356  31.532  0.00  0.00    -0.392 OA
ATOM     39  H   LIG    1       60.757  17.865  32.009  0.00  0.00    +0.210 HD
ENDBRANCH  37  38
ENDBRANCH  36  37
ENDBRANCH  12   2
ENDBRANCH  13  12
TORSDOF 11
ENDMDL
MODEL 4
REMARK VINA RESULT:      -9.1      2.221      9.003
REMARK  Name = 5280637
REMARK                            x       y       z     vdW  Elec       q    Type
REMARK                         _______ _______ _______ _____ _____    ______ ____
ROOT
ATOM     13  C   LIG    1       61.945  19.609  23.554  0.00  0.00    +0.131 A 
ATOM     14  C   LIG    1       61.896  20.875  24.139  0.00  0.00    +0.092 A 
ATOM     15  C   LIG    1       60.993  21.136  25.171  0.00  0.00    +0.135 A 
ATOM     16  C   LIG    1       60.140  20.122  25.613  0.00  0.00    +0.105 A 
ATOM     17  C   LIG    1       59.177  20.367  26.697  0.00  0.00    +0.197 A 
ATOM     18  C   LIG    1       58.326  19.223  27.085  0.00  0.00    +0.098 A 
ATOM     19  C   LIG    1       58.471  18.050  26.449  0.00  0.00    +0.139 A 
ATOM     30  O   LIG    1       59.375  17.824  25.422  0.00  0.00    -0.454 OA
ATOM     31  O   LIG    1       59.079  21.453  27.251  0.00  0.00    -0.287 OA
ATOM     32  C   LIG    1       60.189  18.856  25.029  0.00  0.00    +0.146 A 
ATOM     35  C   LIG    1       61.091  18.598  23.998  0.00  0.00    +0.093 A 
ENDROOT
BRANCH  19  20
ATOM     20  C   LIG    1       57.643  16.875  26.789  0.00  0.00    +0.021 A 
ATOM     21  C   LIG    1       56.536  16.548  26.003  0.00  0.00    +0.015 A 
ATOM     22  C   LIG    1       55.752  15.439  26.324  0.00  0.00    +0.050 A 
ATOM     23  C   LIG    1       56.075  14.654  27.432  0.00  0.00    +0.158 A 
ATOM     24  C   LIG    1       57.180  14.980  28.219  0.00  0.00    +0.159 A 
ATOM     29  C   LIG    1       57.963  16.088  27.897  0.00  0.00    +0.060 A 
BRANCH  24  25
ATOM     25  O   LIG    1       57.505  14.219  29.301  0.00  0.00    -0.503 OA
ATOM     26  H   LIG    1       57.182  13.314  29.148  0.00  0.00    +0.292 HD
ENDBRANCH  24  25
BRANCH  23  27
ATOM     27  O   LIG    1       55.302  13.575  27.735  0.00  0.00    -0.503 OA
ATOM     28  H   LIG    1       55.878  12.807  27.896  0.00  0.00    +0.292 HD
ENDBRANCH  23  27
ENDBRANCH  19  20
BRANCH  15  33
ATOM     33  O   LIG    1       60.984  22.387  25.709  0.00  0.00    -0.506 OA
ATOM     34  H   LIG    1       60.728  22.355  26.642  0.00  0.00    +0.292 HD
ENDBRANCH  15  33
BRANCH  13  12
ATOM     12  O   LIG    1       62.829  19.359  22.545  0.00  0.00    -0.461 OA
BRANCH  12   2
ATOM      1  O   LIG    1       64.690  18.237  23.393  0.00  0.00    -0.331 OA
ATOM      2  C   LIG    1       63.517  18.110  22.595  0.00  0.00    +0.339 C 
ATOM      3  C   LIG    1       63.882  17.719  21.163  0.00  0.00    +0.214 C 
ATOM      4  C   LIG    1       64.756  16.464  21.135  0.00  0.00    +0.180 C 
ATOM      5  C   LIG    1       65.915  16.574  22.125  0.00  0.00    +0.177 C 
ATOM     36  C   LIG    1       65.414  17.010  23.503  0.00  0.00    +0.179 C 
BRANCH   5   6
ATOM      6  O   LIG    1       66.562  15.309  22.237  0.00  0.00    -0.386 OA
ATOM      7  H   LIG    1       66.746  14.986  21.338  0.00  0.00    +0.210 HD
ENDBRANCH   5   6
BRANCH   4   8
ATOM      8  O   LIG    1       65.304  16.295  19.827  0.00  0.00    -0.386 OA
ATOM      9  H   LIG    1       64.580  16.011  19.243  0.00  0.00    +0.210 HD
ENDBRANCH   4   8
BRANCH   3  10
ATOM     10  O   LIG    1       62.675  17.471  20.443  0.00  0.00    -0.383 OA
ATOM     11  H   LIG    1       62.108  16.903  20.993  0.00  0.00    +0.210 HD
ENDBRANCH   3  10
BRANCH  36  37
ATOM     37  C   LIG    1       66.566  17.241  24.476  0.00  0.00    +0.190 C 
BRANCH  37  38
ATOM     38  O   LIG    1       66.049  17.244  25.794  0.00  0.00    -0.392 OA
ATOM     39  H   LIG    1       66.782  17.449  26.399  0.00  0.00    +0.210 HD
ENDBRANCH  37  38
ENDBRANCH  36  37
ENDBRANCH  12   2
ENDBRANCH  13  12
TORSDOF 11
ENDMDL
MODEL 5
REMARK VINA RESULT:      -9.0     16.949     21.520
REMARK  Name = 5280637
REMARK                            x       y       z     vdW  Elec       q    Type
REMARK                         _______ _______ _______ _____ _____    ______ ____
ROOT
ATOM     13  C   LIG    1       81.951  23.261  26.662  0.00  0.00    +0.131 A 
ATOM     14  C   LIG    1       83.104  23.319  27.445  0.00  0.00    +0.092 A 
ATOM     15  C   LIG    1       83.506  22.206  28.185  0.00  0.00    +0.135 A 
ATOM     16  C   LIG    1       82.746  21.035  28.137  0.00  0.00    +0.105 A 
ATOM     17  C   LIG    1       83.143  19.847  28.907  0.00  0.00    +0.197 A 
ATOM     18  C   LIG    1       82.267  18.664  28.780  0.00  0.00    +0.098 A 
ATOM     19  C   LIG    1       81.186  18.729  27.988  0.00  0.00    +0.139 A 
ATOM     30  O   LIG    1       80.809  19.853  27.269  0.00  0.00    -0.454 OA
ATOM     31  O   LIG    1       84.139  19.831  29.616  0.00  0.00    -0.287 OA
ATOM     32  C   LIG    1       81.594  20.976  27.354  0.00  0.00    +0.146 A 
ATOM     35  C   LIG    1       81.194  22.089  26.615  0.00  0.00    +0.093 A 
ENDROOT
BRANCH  19  20
ATOM     20  C   LIG    1       80.269  17.581  27.828  0.00  0.00    +0.021 A 
ATOM     21  C   LIG    1       80.509  16.625  26.839  0.00  0.00    +0.015 A 
ATOM     22  C   LIG    1       79.643  15.542  26.688  0.00  0.00    +0.050 A 
ATOM     23  C   LIG    1       78.536  15.411  27.527  0.00  0.00    +0.158 A 
ATOM     24  C   LIG    1       78.294  16.365  28.515  0.00  0.00    +0.159 A 
ATOM     29  C   LIG    1       79.160  17.448  28.666  0.00  0.00    +0.060 A 
BRANCH  24  25
ATOM     25  O   LIG    1       77.217  16.246  29.341  0.00  0.00    -0.503 OA
ATOM     26  H   LIG    1       76.423  16.126  28.793  0.00  0.00    +0.292 HD
ENDBRANCH  24  25
BRANCH  23  27
ATOM     27  O   LIG    1       77.698  14.349  27.369  0.00  0.00    -0.503 OA
ATOM     28  H   LIG    1       77.050  14.346  28.095  0.00  0.00    +0.292 HD
ENDBRANCH  23  27
ENDBRANCH  19  20
BRANCH  15  33
ATOM     33  O   LIG    1       84.638  22.314  28.935  0.00  0.00    -0.506 OA
ATOM     34  H   LIG    1       84.425  22.285  29.880  0.00  0.00    +0.292 HD
ENDBRANCH  15  33
BRANCH  13  12
ATOM     12  O   LIG    1       81.563  24.351  25.940  0.00  0.00    -0.461 OA
BRANCH  12   2
ATOM      1  O   LIG    1       82.906  24.914  24.117  0.00  0.00    -0.331 OA
ATOM      2  C   LIG    1       81.705  24.262  24.523  0.00  0.00    +0.339 C 
ATOM      3  C   LIG    1       80.488  24.935  23.886  0.00  0.00    +0.214 C 
ATOM      4  C   LIG    1       80.632  25.018  22.366  0.00  0.00    +0.180 C 
ATOM      5  C   LIG    1       81.999  25.574  21.968  0.00  0.00    +0.177 C 
ATOM     36  C   LIG    1       83.120  24.839  22.706  0.00  0.00    +0.179 C 
BRANCH   5   6
ATOM      6  O   LIG    1       82.180  25.420  20.563  0.00  0.00    -0.386 OA
ATOM      7  H   LIG    1       81.653  26.105  20.116  0.00  0.00    +0.210 HD
ENDBRANCH   5   6
BRANCH   4   8
ATOM      8  O   LIG    1       79.629  25.890  21.841  0.00  0.00    -0.386 OA
ATOM      9  H   LIG    1       79.379  26.506  22.551  0.00  0.00    +0.210 HD
ENDBRANCH   4   8
BRANCH   3  10
ATOM     10  O   LIG    1       79.330  24.166  24.211  0.00  0.00    -0.383 OA
ATOM     11  H   LIG    1       79.473  23.759  25.082  0.00  0.00    +0.210 HD
ENDBRANCH   3  10
BRANCH  36  37
ATOM     37  C   LIG    1       84.485  25.454  22.415  0.00  0.00    +0.190 C 
BRANCH  37  38
ATOM     38  O   LIG    1       84.297  26.799  22.017  0.00  0.00    -0.392 OA
ATOM     39  H   LIG    1       83.538  26.825  21.410  0.00  0.00    +0.210 HD
ENDBRANCH  37  38
ENDBRANCH  36  37
ENDBRANCH  12   2
ENDBRANCH  13  12
TORSDOF 11
ENDMDL
MODEL 6
REMARK VINA RESULT:      -9.0     17.509     19.758
REMARK  Name = 5280637
REMARK                            x       y       z     vdW  Elec       q    Type
REMARK                         _______ _______ _______ _____ _____    ______ ____
ROOT
ATOM     13  C   LIG    1       52.926  36.098  25.378  0.00  0.00    +0.131 A 
ATOM     14  C   LIG    1       52.527  36.495  24.102  0.00  0.00    +0.092 A 
ATOM     15  C   LIG    1       53.378  36.308  23.012  0.00  0.00    +0.135 A 
ATOM     16  C   LIG    1       54.630  35.721  23.207  0.00  0.00    +0.105 A 
ATOM     17  C   LIG    1       55.549  35.513  22.078  0.00  0.00    +0.197 A 
ATOM     18  C   LIG    1       56.846  34.882  22.400  0.00  0.00    +0.098 A 
ATOM     19  C   LIG    1       57.112  34.538  23.669  0.00  0.00    +0.139 A 
ATOM     30  O   LIG    1       56.248  34.743  24.733  0.00  0.00    -0.454 OA
ATOM     31  O   LIG    1       55.264  35.840  20.935  0.00  0.00    -0.287 OA
ATOM     32  C   LIG    1       55.030  35.323  24.483  0.00  0.00    +0.146 A 
ATOM     35  C   LIG    1       54.178  35.512  25.571  0.00  0.00    +0.093 A 
ENDROOT
BRANCH  19  20
ATOM     20  C   LIG    1       58.395  33.912  24.051  0.00  0.00    +0.021 A 
ATOM     21  C   LIG    1       59.590  34.363  23.487  0.00  0.00    +0.015 A 
ATOM     22  C   LIG    1       60.801  33.772  23.846  0.00  0.00    +0.050 A 
ATOM     23  C   LIG    1       60.820  32.729  24.773  0.00  0.00    +0.158 A 
ATOM     24  C   LIG    1       59.628  32.276  25.337  0.00  0.00    +0.159 A 
ATOM     29  C   LIG    1       58.417  32.867  24.977  0.00  0.00    +0.060 A 
BRANCH  24  25
ATOM     25  O   LIG    1       59.635  31.259  26.244  0.00  0.00    -0.503 OA
ATOM     26  H   LIG    1       58.855  30.701  26.085  0.00  0.00    +0.292 HD
ENDBRANCH  24  25
BRANCH  23  27
ATOM     27  O   LIG    1       62.009  32.159  25.115  0.00  0.00    -0.503 OA
ATOM     28  H   LIG    1       62.210  31.443  24.487  0.00  0.00    +0.292 HD
ENDBRANCH  23  27
ENDBRANCH  19  20
BRANCH  15  33
ATOM     33  O   LIG    1       52.942  36.713  21.786  0.00  0.00    -0.506 OA
ATOM     34  H   LIG    1       52.687  35.950  21.246  0.00  0.00    +0.292 HD
ENDBRANCH  15  33
BRANCH  13  12
ATOM     12  O   LIG    1       52.091  36.283  26.441  0.00  0.00    -0.461 OA
BRANCH  12   2
ATOM      1  O   LIG    1       52.735  35.235  28.424  0.00  0.00    -0.331 OA
ATOM      2  C   LIG    1       52.710  36.471  27.713  0.00  0.00    +0.339 C 
ATOM      3  C   LIG    1       51.897  37.514  28.481  0.00  0.00    +0.214 C 
ATOM      4  C   LIG    1       52.404  37.667  29.916  0.00  0.00    +0.180 C 
ATOM      5  C   LIG    1       52.571  36.306  30.592  0.00  0.00    +0.177 C 
ATOM     36  C   LIG    1       53.367  35.351  29.700  0.00  0.00    +0.179 C 
BRANCH   5   6
ATOM      6  O   LIG    1       53.255  36.476  31.831  0.00  0.00    -0.386 OA
ATOM      7  H   LIG    1       54.063  35.936  31.803  0.00  0.00    +0.210 HD
ENDBRANCH   5   6
BRANCH   4   8
ATOM      8  O   LIG    1       51.460  38.426  30.675  0.00  0.00    -0.386 OA
ATOM      9  H   LIG    1       50.591  38.002  30.564  0.00  0.00    +0.210 HD
ENDBRANCH   4   8
BRANCH   3  10
ATOM     10  O   LIG    1       52.016  38.764  27.801  0.00  0.00    -0.383 OA
ATOM     11  H   LIG    1       52.955  38.904  27.590  0.00  0.00    +0.210 HD
ENDBRANCH   3  10
BRANCH  36  37
ATOM     37  C   LIG    1       53.445  33.951  30.302  0.00  0.00    +0.190 C 
BRANCH  37  38
ATOM     38  O   LIG    1       52.359  33.783  31.195  0.00  0.00    -0.392 OA
ATOM     39  H   LIG    1       51.649  34.385  30.912  0.00  0.00    +0.210 HD
ENDBRANCH  37  38
ENDBRANCH  36  37
ENDBRANCH  12   2
ENDBRANCH  13  12
TORSDOF 11
ENDMDL
MODEL 7
REMARK VINA RESULT:      -8.9      1.728      9.757
REMARK  Name = 5280637
REMARK                            x       y       z     vdW  Elec       q    Type
REMARK                         _______ _______ _______ _____ _____    ______ ____
ROOT
ATOM     13  C   LIG    1       63.315  17.232  24.070  0.00  0.00    +0.131 A 
ATOM     14  C   LIG    1       63.164  18.446  23.399  0.00  0.00    +0.092 A 
ATOM     15  C   LIG    1       62.036  19.235  23.624  0.00  0.00    +0.135 A 
ATOM     16  C   LIG    1       61.060  18.803  24.524  0.00  0.00    +0.105 A 
ATOM     17  C   LIG    1       59.860  19.612  24.781  0.00  0.00    +0.197 A 
ATOM     18  C   LIG    1       58.895  19.059  25.753  0.00  0.00    +0.098 A 
ATOM     19  C   LIG    1       59.155  17.880  26.340  0.00  0.00    +0.139 A 
ATOM     30  O   LIG    1       60.284  17.115  26.090  0.00  0.00    -0.454 OA
ATOM     31  O   LIG    1       59.663  20.684  24.225  0.00  0.00    -0.287 OA
ATOM     32  C   LIG    1       61.210  17.590  25.196  0.00  0.00    +0.146 A 
ATOM     35  C   LIG    1       62.338  16.802  24.969  0.00  0.00    +0.093 A 
ENDROOT
BRANCH  19  20
ATOM     20  C   LIG    1       58.223  17.274  27.313  0.00  0.00    +0.021 A 
ATOM     21  C   LIG    1       58.709  16.727  28.502  0.00  0.00    +0.015 A 
ATOM     22  C   LIG    1       57.829  16.154  29.420  0.00  0.00    +0.050 A 
ATOM     23  C   LIG    1       56.460  16.127  29.151  0.00  0.00    +0.158 A 
ATOM     24  C   LIG    1       55.972  16.672  27.964  0.00  0.00    +0.159 A 
ATOM     29  C   LIG    1       56.852  17.245  27.046  0.00  0.00    +0.060 A 
BRANCH  24  25
ATOM     25  O   LIG    1       54.637  16.652  27.692  0.00  0.00    -0.503 OA
ATOM     26  H   LIG    1       54.153  16.764  28.528  0.00  0.00    +0.292 HD
ENDBRANCH  24  25
BRANCH  23  27
ATOM     27  O   LIG    1       55.612  15.563  30.055  0.00  0.00    -0.503 OA
ATOM     28  H   LIG    1       55.052  16.259  30.442  0.00  0.00    +0.292 HD
ENDBRANCH  23  27
ENDBRANCH  19  20
BRANCH  15  33
ATOM     33  O   LIG    1       61.936  20.412  22.944  0.00  0.00    -0.506 OA
ATOM     34  H   LIG    1       62.458  21.102  23.379  0.00  0.00    +0.292 HD
ENDBRANCH  15  33
BRANCH  13  12
ATOM     12  O   LIG    1       64.420  16.463  23.846  0.00  0.00    -0.461 OA
BRANCH  12   2
ATOM      1  O   LIG    1       64.774  15.786  21.642  0.00  0.00    -0.331 OA
ATOM      2  C   LIG    1       65.148  16.725  22.647  0.00  0.00    +0.339 C 
ATOM      3  C   LIG    1       66.638  16.604  22.967  0.00  0.00    +0.214 C 
ATOM      4  C   LIG    1       67.489  16.723  21.702  0.00  0.00    +0.180 C 
ATOM      5  C   LIG    1       66.959  15.817  20.591  0.00  0.00    +0.177 C 
ATOM     36  C   LIG    1       65.452  16.011  20.404  0.00  0.00    +0.179 C 
BRANCH   5   6
ATOM      6  O   LIG    1       67.629  16.124  19.371  0.00  0.00    -0.386 OA
ATOM      7  H   LIG    1       66.954  16.336  18.704  0.00  0.00    +0.210 HD
ENDBRANCH   5   6
BRANCH   4   8
ATOM      8  O   LIG    1       68.831  16.327  21.993  0.00  0.00    -0.386 OA
ATOM      9  H   LIG    1       69.417  16.832  21.403  0.00  0.00    +0.210 HD
ENDBRANCH   4   8
BRANCH   3  10
ATOM     10  O   LIG    1       66.988  17.650  23.873  0.00  0.00    -0.383 OA
ATOM     11  H   LIG    1       67.892  17.941  23.662  0.00  0.00    +0.210 HD
ENDBRANCH   3  10
BRANCH  36  37
ATOM     37  C   LIG    1       64.880  15.034  19.382  0.00  0.00    +0.190 C 
BRANCH  37  38
ATOM     38  O   LIG    1       63.658  14.523  19.883  0.00  0.00    -0.392 OA
ATOM     39  H   LIG    1       63.769  14.375  20.838  0.00  0.00    +0.210 HD
ENDBRANCH  37  38
ENDBRANCH  36  37
ENDBRANCH  12   2
ENDBRANCH  13  12
TORSDOF 11
ENDMDL
MODEL 8
REMARK VINA RESULT:      -8.9      2.457      4.371
REMARK  Name = 5280637
REMARK                            x       y       z     vdW  Elec       q    Type
REMARK                         _______ _______ _______ _____ _____    ______ ____
ROOT
ATOM     13  C   LIG    1       63.341  16.497  24.084  0.00  0.00    +0.131 A 
ATOM     14  C   LIG    1       62.686  16.077  22.927  0.00  0.00    +0.092 A 
ATOM     15  C   LIG    1       63.406  15.870  21.749  0.00  0.00    +0.135 A 
ATOM     16  C   LIG    1       64.786  16.086  21.738  0.00  0.00    +0.105 A 
ATOM     17  C   LIG    1       65.571  15.877  20.513  0.00  0.00    +0.197 A 
ATOM     18  C   LIG    1       67.022  16.134  20.616  0.00  0.00    +0.098 A 
ATOM     19  C   LIG    1       67.538  16.529  21.790  0.00  0.00    +0.139 A 
ATOM     30  O   LIG    1       66.794  16.732  22.942  0.00  0.00    -0.454 OA
ATOM     31  O   LIG    1       65.060  15.514  19.463  0.00  0.00    -0.287 OA
ATOM     32  C   LIG    1       65.442  16.505  22.895  0.00  0.00    +0.146 A 
ATOM     35  C   LIG    1       64.720  16.712  24.070  0.00  0.00    +0.093 A 
ENDROOT
BRANCH  19  20
ATOM     20  C   LIG    1       68.981  16.808  21.950  0.00  0.00    +0.021 A 
ATOM     21  C   LIG    1       69.702  16.200  22.980  0.00  0.00    +0.015 A 
ATOM     22  C   LIG    1       71.063  16.465  23.132  0.00  0.00    +0.050 A 
ATOM     23  C   LIG    1       71.706  17.337  22.254  0.00  0.00    +0.158 A 
ATOM     24  C   LIG    1       70.988  17.947  21.225  0.00  0.00    +0.159 A 
ATOM     29  C   LIG    1       69.627  17.682  21.073  0.00  0.00    +0.060 A 
BRANCH  24  25
ATOM     25  O   LIG    1       71.607  18.799  20.361  0.00  0.00    -0.503 OA
ATOM     26  H   LIG    1       70.966  19.479  20.090  0.00  0.00    +0.292 HD
ENDBRANCH  24  25
BRANCH  23  27
ATOM     27  O   LIG    1       73.036  17.588  22.413  0.00  0.00    -0.503 OA
ATOM     28  H   LIG    1       73.177  18.011  23.278  0.00  0.00    +0.292 HD
ENDBRANCH  23  27
ENDBRANCH  19  20
BRANCH  15  33
ATOM     33  O   LIG    1       62.719  15.461  20.646  0.00  0.00    -0.506 OA
ATOM     34  H   LIG    1       62.995  14.570  20.384  0.00  0.00    +0.292 HD
ENDBRANCH  15  33
BRANCH  13  12
ATOM     12  O   LIG    1       62.633  16.698  25.233  0.00  0.00    -0.461 OA
BRANCH  12   2
ATOM      1  O   LIG    1       61.473  18.722  25.233  0.00  0.00    -0.331 OA
ATOM      2  C   LIG    1       61.351  17.309  25.093  0.00  0.00    +0.339 C 
ATOM      3  C   LIG    1       60.439  16.740  26.179  0.00  0.00    +0.214 C 
ATOM      4  C   LIG    1       59.085  17.451  26.198  0.00  0.00    +0.180 C 
ATOM      5  C   LIG    1       59.258  18.970  26.185  0.00  0.00    +0.177 C 
ATOM     36  C   LIG    1       60.223  19.398  25.077  0.00  0.00    +0.179 C 
BRANCH   5   6
ATOM      6  O   LIG    1       57.991  19.587  25.971  0.00  0.00    -0.386 OA
ATOM      7  H   LIG    1       57.366  18.899  25.686  0.00  0.00    +0.210 HD
ENDBRANCH   5   6
BRANCH   4   8
ATOM      8  O   LIG    1       58.377  17.096  27.387  0.00  0.00    -0.386 OA
ATOM      9  H   LIG    1       58.032  17.918  27.776  0.00  0.00    +0.210 HD
ENDBRANCH   4   8
BRANCH   3  10
ATOM     10  O   LIG    1       60.240  15.351  25.916  0.00  0.00    -0.383 OA
ATOM     11  H   LIG    1       60.966  15.046  25.346  0.00  0.00    +0.210 HD
ENDBRANCH   3  10
BRANCH  36  37
ATOM     37  C   LIG    1       60.503  20.897  25.120  0.00  0.00    +0.190 C 
BRANCH  37  38
ATOM     38  O   LIG    1       60.824  21.333  23.812  0.00  0.00    -0.392 OA
ATOM     39  H   LIG    1       60.983  22.292  23.851  0.00  0.00    +0.210 HD
ENDBRANCH  37  38
ENDBRANCH  36  37
ENDBRANCH  12   2
ENDBRANCH  13  12
TORSDOF 11
ENDMDL
MODEL 9
REMARK VINA RESULT:      -8.8     17.590     19.764
REMARK  Name = 5280637
REMARK                            x       y       z     vdW  Elec       q    Type
REMARK                         _______ _______ _______ _____ _____    ______ ____
ROOT
ATOM     13  C   LIG    1       53.614  36.784  25.760  0.00  0.00    +0.131 A 
ATOM     14  C   LIG    1       52.972  37.603  24.831  0.00  0.00    +0.092 A 
ATOM     15  C   LIG    1       53.360  37.580  23.490  0.00  0.00    +0.135 A 
ATOM     16  C   LIG    1       54.394  36.733  23.086  0.00  0.00    +0.105 A 
ATOM     17  C   LIG    1       54.826  36.688  21.681  0.00  0.00    +0.197 A 
ATOM     18  C   LIG    1       55.927  35.754  21.366  0.00  0.00    +0.098 A 
ATOM     19  C   LIG    1       56.461  35.012  22.349  0.00  0.00    +0.139 A 
ATOM     30  O   LIG    1       56.057  35.062  23.674  0.00  0.00    -0.454 OA
ATOM     31  O   LIG    1       54.309  37.381  20.816  0.00  0.00    -0.287 OA
ATOM     32  C   LIG    1       55.036  35.913  24.015  0.00  0.00    +0.146 A 
ATOM     35  C   LIG    1       54.647  35.939  25.353  0.00  0.00    +0.093 A 
ENDROOT
BRANCH  19  20
ATOM     20  C   LIG    1       57.569  34.068  22.095  0.00  0.00    +0.021 A 
ATOM     21  C   LIG    1       57.966  33.170  23.088  0.00  0.00    +0.015 A 
ATOM     22  C   LIG    1       59.013  32.280  22.848  0.00  0.00    +0.050 A 
ATOM     23  C   LIG    1       59.665  32.286  21.615  0.00  0.00    +0.158 A 
ATOM     24  C   LIG    1       59.271  33.183  20.622  0.00  0.00    +0.159 A 
ATOM     29  C   LIG    1       58.224  34.073  20.861  0.00  0.00    +0.060 A 
BRANCH  24  25
ATOM     25  O   LIG    1       59.900  33.196  19.413  0.00  0.00    -0.503 OA
ATOM     26  H   LIG    1       60.066  32.276  19.145  0.00  0.00    +0.292 HD
ENDBRANCH  24  25
BRANCH  23  27
ATOM     27  O   LIG    1       60.687  31.413  21.394  0.00  0.00    -0.503 OA
ATOM     28  H   LIG    1       60.417  30.776  20.709  0.00  0.00    +0.292 HD
ENDBRANCH  23  27
ENDBRANCH  19  20
BRANCH  15  33
ATOM     33  O   LIG    1       52.702  38.399  22.623  0.00  0.00    -0.506 OA
ATOM     34  H   LIG    1       51.943  37.942  22.232  0.00  0.00    +0.292 HD
ENDBRANCH  15  33
BRANCH  13  12
ATOM     12  O   LIG    1       53.232  36.811  27.069  0.00  0.00    -0.461 OA
BRANCH  12   2
ATOM      1  O   LIG    1       51.099  35.980  27.518  0.00  0.00    -0.331 OA
ATOM      2  C   LIG    1       52.493  35.685  27.541  0.00  0.00    +0.339 C 
ATOM      3  C   LIG    1       52.954  35.385  28.968  0.00  0.00    +0.214 C 
ATOM      4  C   LIG    1       52.106  34.284  29.606  0.00  0.00    +0.180 C 
ATOM      5  C   LIG    1       50.614  34.556  29.419  0.00  0.00    +0.177 C 
ATOM     36  C   LIG    1       50.299  34.880  27.957  0.00  0.00    +0.179 C 
BRANCH   5   6
ATOM      6  O   LIG    1       49.871  33.407  29.819  0.00  0.00    -0.386 OA
ATOM      7  H   LIG    1       48.935  33.569  29.614  0.00  0.00    +0.210 HD
ENDBRANCH   5   6
BRANCH   4   8
ATOM      8  O   LIG    1       52.375  34.230  31.008  0.00  0.00    -0.386 OA
ATOM      9  H   LIG    1       51.554  33.953  31.451  0.00  0.00    +0.210 HD
ENDBRANCH   4   8
BRANCH   3  10
ATOM     10  O   LIG    1       54.317  34.964  28.919  0.00  0.00    -0.383 OA
ATOM     11  H   LIG    1       54.858  35.726  28.650  0.00  0.00    +0.210 HD
ENDBRANCH   3  10
BRANCH  36  37
ATOM     37  C   LIG    1       48.836  35.270  27.768  0.00  0.00    +0.190 C 
BRANCH  37  38
ATOM     38  O   LIG    1       48.454  34.954  26.442  0.00  0.00    -0.392 OA
ATOM     39  H   LIG    1       48.606  35.744  25.895  0.00  0.00    +0.210 HD
ENDBRANCH  37  38
ENDBRANCH  36  37
ENDBRANCH  12   2
ENDBRANCH  13  12
TORSDOF 11
ENDMDL
