MODEL 1
REMARK VINA RESULT:      -7.2      0.000      0.000
REMARK  12 active torsions:
REMARK  status: ('A' for Active; 'I' for Inactive)
REMARK    1  A    between atoms: O_1  and  C_10 
REMARK    2  A    between atoms: O_2  and  C_17 
REMARK    3  A    between atoms: O_3  and  C_20 
REMARK    4  A    between atoms: O_4  and  C_27 
REMARK    5  A    between atoms: O_6  and  C_29 
REMARK    6  A    between atoms: O_7  and  C_28 
REMARK    7  A    between atoms: O_8  and  C_33 
REMARK    8  A    between atoms: C_11  and  C_20 
REMARK    9  A    between atoms: C_20  and  C_28 
REMARK   10  A    between atoms: C_28  and  C_31 
REMARK   11  A    between atoms: C_31  and  C_32 
REMARK   12  A    between atoms: C_32  and  C_33 
ROOT
HETATM    1  O   UNK     0      27.382  29.072  17.703  0.00  0.00    -0.384 OA
HETATM    2  H   UNK     0      27.678  28.150  17.702  0.00  0.00     0.211 HD
ENDROOT
BRANCH   1   3
HETATM    3  C   UNK     0      28.489  29.977  17.489  0.00  0.00     0.090 C 
HETATM    4  C   UNK     0      29.340  30.071  18.782  0.00  0.00    -0.000 C 
HETATM    5  C   UNK     0      28.316  30.709  19.757  0.00  0.00     0.034 C 
HETATM    6  C   UNK     0      29.783  28.656  19.179  0.00  0.00     0.045 C 
HETATM    7  C   UNK     0      30.590  30.980  18.622  0.00  0.00     0.019 C 
HETATM    8  C   UNK     0      27.580  31.753  18.885  0.00  0.00     0.012 C 
HETATM    9  C   UNK     0      27.863  31.377  17.413  0.00  0.00     0.044 C 
HETATM   10  C   UNK     0      30.588  27.979  18.052  0.00  0.00     0.128 C 
HETATM   11  C   UNK     0      29.880  27.989  16.646  0.00  0.00     0.055 C 
HETATM   12  C   UNK     0      30.779  27.406  15.468  0.00  0.00    -0.021 C 
HETATM   13  C   UNK     0      29.292  29.385  16.349  0.00  0.00    -0.034 C 
HETATM   14  C   UNK     0      30.210  27.846  14.087  0.00  0.00     0.071 C 
HETATM   15  C   UNK     0      30.862  25.836  15.530  0.00  0.00     0.045 C 
HETATM   16  C   UNK     0      32.233  27.948  15.568  0.00  0.00     0.017 C 
HETATM   17  C   UNK     0      28.881  27.182  13.684  0.00  0.00     0.047 C 
HETATM   18  C   UNK     0      30.042  29.349  14.021  0.00  0.00     0.154 C 
HETATM   19  C   UNK     0      28.700  25.776  14.245  0.00  0.00     0.147 C 
HETATM   20  C   UNK     0      30.035  25.083  14.482  0.00  0.00     0.147 C 
HETATM   21  O   UNK     0      30.329  29.994  13.015  0.00  0.00    -0.293 OA
HETATM   22  C   UNK     0      29.422  30.024  15.178  0.00  0.00     0.057 C 
BRANCH   5  23
HETATM   23  C   UNK     0      28.878  31.303  21.041  0.00  0.00     0.084 C 
HETATM   24  C   UNK     0      29.655  32.591  20.724  0.00  0.00     0.049 C 
BRANCH  23  25
HETATM   25  O   UNK     0      27.781  31.662  21.891  0.00  0.00    -0.387 OA
HETATM   26  H   UNK     0      28.107  31.762  22.801  0.00  0.00     0.210 HD
ENDBRANCH  23  25
BRANCH  23  27
HETATM   27  C   UNK     0      29.776  30.296  21.810  0.00  0.00     0.152 C 
BRANCH  27  28
HETATM   28  O   UNK     0      28.983  29.570  22.755  0.00  0.00    -0.393 OA
HETATM   29  H   UNK     0      29.467  29.566  23.598  0.00  0.00     0.210 HD
ENDBRANCH  27  28
BRANCH  27  30
HETATM   30  C   UNK     0      30.954  30.945  22.563  0.00  0.00     0.037 C 
BRANCH  30  31
HETATM   31  C   UNK     0      32.075  29.934  22.863  0.00  0.00     0.040 C 
BRANCH  31  32
HETATM   32  C   UNK     0      33.478  30.374  22.394  0.00  0.00     0.051 C 
HETATM   33  C   UNK     0      34.518  29.346  22.851  0.00  0.00     0.045 C 
HETATM   34  C   UNK     0      33.558  30.556  20.876  0.00  0.00     0.045 C 
BRANCH  32  35
HETATM   35  O   UNK     0      33.790  31.621  23.016  0.00  0.00    -0.391 OA
HETATM   36  H   UNK     0      33.160  32.291  22.703  0.00  0.00     0.210 HD
ENDBRANCH  32  35
ENDBRANCH  31  32
ENDBRANCH  30  31
ENDBRANCH  27  30
ENDBRANCH  23  27
ENDBRANCH   5  23
BRANCH  10  37
HETATM   37  O   UNK     0      30.854  26.642  18.469  0.00  0.00    -0.395 OA
HETATM   38  H   UNK     0      30.344  26.046  17.894  0.00  0.00     0.210 HD
ENDBRANCH  10  37
BRANCH  19  39
HETATM   39  O   UNK     0      27.902  25.020  13.339  0.00  0.00    -0.393 OA
HETATM   40  H   UNK     0      28.009  25.398  12.450  0.00  0.00     0.210 HD
ENDBRANCH  19  39
BRANCH  20  41
HETATM   41  O   UNK     0      30.781  25.010  13.266  0.00  0.00    -0.393 OA
HETATM   42  H   UNK     0      31.698  24.784  13.496  0.00  0.00     0.210 HD
ENDBRANCH  20  41
ENDBRANCH   1   3
TORSDOF 12
ENDMDL
MODEL 2
REMARK VINA RESULT:      -7.0     22.606     26.715
REMARK  12 active torsions:
REMARK  status: ('A' for Active; 'I' for Inactive)
REMARK    1  A    between atoms: O_1  and  C_10 
REMARK    2  A    between atoms: O_2  and  C_17 
REMARK    3  A    between atoms: O_3  and  C_20 
REMARK    4  A    between atoms: O_4  and  C_27 
REMARK    5  A    between atoms: O_6  and  C_29 
REMARK    6  A    between atoms: O_7  and  C_28 
REMARK    7  A    between atoms: O_8  and  C_33 
REMARK    8  A    between atoms: C_11  and  C_20 
REMARK    9  A    between atoms: C_20  and  C_28 
REMARK   10  A    between atoms: C_28  and  C_31 
REMARK   11  A    between atoms: C_31  and  C_32 
REMARK   12  A    between atoms: C_32  and  C_33 
ROOT
HETATM    1  O   UNK     0      12.540  19.632   3.485  0.00  0.00    -0.384 OA
HETATM    2  H   UNK     0      11.884  20.140   3.984  0.00  0.00     0.211 HD
ENDROOT
BRANCH   1   3
HETATM    3  C   UNK     0      12.413  19.867   2.064  0.00  0.00     0.090 C 
HETATM    4  C   UNK     0      13.779  19.624   1.373  0.00  0.00    -0.000 C 
HETATM    5  C   UNK     0      14.634  20.746   2.020  0.00  0.00     0.034 C 
HETATM    6  C   UNK     0      14.253  18.204   1.712  0.00  0.00     0.045 C 
HETATM    7  C   UNK     0      13.719  19.798  -0.170  0.00  0.00     0.019 C 
HETATM    8  C   UNK     0      13.668  21.953   2.084  0.00  0.00     0.012 C 
HETATM    9  C   UNK     0      12.241  21.385   1.916  0.00  0.00     0.044 C 
HETATM   10  C   UNK     0      13.227  17.145   1.263  0.00  0.00     0.128 C 
HETATM   11  C   UNK     0      11.759  17.401   1.770  0.00  0.00     0.055 C 
HETATM   12  C   UNK     0      10.688  16.374   1.190  0.00  0.00    -0.021 C 
HETATM   13  C   UNK     0      11.371  18.882   1.575  0.00  0.00    -0.034 C 
HETATM   14  C   UNK     0       9.249  16.938   1.368  0.00  0.00     0.071 C 
HETATM   15  C   UNK     0      10.797  14.970   1.893  0.00  0.00     0.045 C 
HETATM   16  C   UNK     0      10.916  16.146  -0.331  0.00  0.00     0.017 C 
HETATM   17  C   UNK     0       8.734  16.978   2.818  0.00  0.00     0.047 C 
HETATM   18  C   UNK     0       9.129  18.325   0.772  0.00  0.00     0.154 C 
HETATM   19  C   UNK     0       9.310  15.880   3.706  0.00  0.00     0.147 C 
HETATM   20  C   UNK     0       9.694  14.644   2.904  0.00  0.00     0.147 C 
HETATM   21  O   UNK     0       8.140  18.677   0.133  0.00  0.00    -0.293 OA
HETATM   22  C   UNK     0      10.203  19.294   1.063  0.00  0.00     0.057 C 
BRANCH   5  23
HETATM   23  C   UNK     0      15.952  21.079   1.334  0.00  0.00     0.084 C 
HETATM   24  C   UNK     0      16.821  21.939   2.266  0.00  0.00     0.049 C 
BRANCH  23  25
HETATM   25  O   UNK     0      16.659  19.856   1.095  0.00  0.00    -0.387 OA
HETATM   26  H   UNK     0      17.599  20.058   0.952  0.00  0.00     0.210 HD
ENDBRANCH  23  25
BRANCH  23  27
HETATM   27  C   UNK     0      15.741  21.791  -0.030  0.00  0.00     0.152 C 
BRANCH  27  28
HETATM   28  O   UNK     0      16.706  21.316  -0.973  0.00  0.00    -0.393 OA
HETATM   29  H   UNK     0      16.417  20.435  -1.266  0.00  0.00     0.210 HD
ENDBRANCH  27  28
BRANCH  27  30
HETATM   30  C   UNK     0      15.843  23.327   0.036  0.00  0.00     0.037 C 
BRANCH  30  31
HETATM   31  C   UNK     0      14.920  24.012  -0.988  0.00  0.00     0.040 C 
BRANCH  31  32
HETATM   32  C   UNK     0      13.879  24.970  -0.372  0.00  0.00     0.051 C 
HETATM   33  C   UNK     0      13.982  26.342  -1.047  0.00  0.00     0.045 C 
HETATM   34  C   UNK     0      12.449  24.437  -0.491  0.00  0.00     0.045 C 
BRANCH  32  35
HETATM   35  O   UNK     0      14.185  25.138   1.013  0.00  0.00    -0.391 OA
HETATM   36  H   UNK     0      14.535  24.299   1.357  0.00  0.00     0.210 HD
ENDBRANCH  32  35
ENDBRANCH  31  32
ENDBRANCH  30  31
ENDBRANCH  27  30
ENDBRANCH  23  27
ENDBRANCH   5  23
BRANCH  10  37
HETATM   37  O   UNK     0      13.701  15.880   1.718  0.00  0.00    -0.395 OA
HETATM   38  H   UNK     0      13.009  15.222   1.537  0.00  0.00     0.210 HD
ENDBRANCH  10  37
BRANCH  19  39
HETATM   39  O   UNK     0       8.350  15.547   4.704  0.00  0.00    -0.393 OA
HETATM   40  H   UNK     0       8.203  14.587   4.677  0.00  0.00     0.210 HD
ENDBRANCH  19  39
BRANCH  20  41
HETATM   41  O   UNK     0       8.558  14.133   2.204  0.00  0.00    -0.393 OA
HETATM   42  H   UNK     0       7.866  14.815   2.229  0.00  0.00     0.210 HD
ENDBRANCH  20  41
ENDBRANCH   1   3
TORSDOF 12
ENDMDL
MODEL 3
REMARK VINA RESULT:      -6.9     11.605     14.834
REMARK  12 active torsions:
REMARK  status: ('A' for Active; 'I' for Inactive)
REMARK    1  A    between atoms: O_1  and  C_10 
REMARK    2  A    between atoms: O_2  and  C_17 
REMARK    3  A    between atoms: O_3  and  C_20 
REMARK    4  A    between atoms: O_4  and  C_27 
REMARK    5  A    between atoms: O_6  and  C_29 
REMARK    6  A    between atoms: O_7  and  C_28 
REMARK    7  A    between atoms: O_8  and  C_33 
REMARK    8  A    between atoms: C_11  and  C_20 
REMARK    9  A    between atoms: C_20  and  C_28 
REMARK   10  A    between atoms: C_28  and  C_31 
REMARK   11  A    between atoms: C_31  and  C_32 
REMARK   12  A    between atoms: C_32  and  C_33 
ROOT
HETATM    1  O   UNK     0      35.513  29.297  31.400  0.00  0.00    -0.384 OA
HETATM    2  H   UNK     0      35.915  30.002  30.873  0.00  0.00     0.211 HD
ENDROOT
BRANCH   1   3
HETATM    3  C   UNK     0      36.259  28.064  31.281  0.00  0.00     0.090 C 
HETATM    4  C   UNK     0      35.442  27.040  30.451  0.00  0.00    -0.000 C 
HETATM    5  C   UNK     0      34.217  26.828  31.378  0.00  0.00     0.034 C 
HETATM    6  C   UNK     0      35.098  27.673  29.096  0.00  0.00     0.045 C 
HETATM    7  C   UNK     0      36.199  25.702  30.222  0.00  0.00     0.019 C 
HETATM    8  C   UNK     0      34.829  26.806  32.798  0.00  0.00     0.012 C 
HETATM    9  C   UNK     0      36.235  27.436  32.682  0.00  0.00     0.044 C 
HETATM   10  C   UNK     0      36.370  28.095  28.331  0.00  0.00     0.128 C 
HETATM   11  C   UNK     0      37.359  28.999  29.156  0.00  0.00     0.055 C 
HETATM   12  C   UNK     0      38.725  29.316  28.401  0.00  0.00    -0.021 C 
HETATM   13  C   UNK     0      37.550  28.430  30.578  0.00  0.00    -0.034 C 
HETATM   14  C   UNK     0      39.796  29.816  29.412  0.00  0.00     0.071 C 
HETATM   15  C   UNK     0      38.521  30.391  27.270  0.00  0.00     0.045 C 
HETATM   16  C   UNK     0      39.285  28.035  27.722  0.00  0.00     0.017 C 
HETATM   17  C   UNK     0      39.548  31.221  29.991  0.00  0.00     0.047 C 
HETATM   18  C   UNK     0      39.962  28.841  30.559  0.00  0.00     0.154 C 
HETATM   19  C   UNK     0      38.804  32.154  29.042  0.00  0.00     0.147 C 
HETATM   20  C   UNK     0      39.049  31.795  27.583  0.00  0.00     0.147 C 
HETATM   21  O   UNK     0      41.065  28.559  31.022  0.00  0.00    -0.293 OA
HETATM   22  C   UNK     0      38.739  28.302  31.185  0.00  0.00     0.057 C 
BRANCH   5  23
HETATM   23  C   UNK     0      33.348  25.612  31.090  0.00  0.00     0.084 C 
HETATM   24  C   UNK     0      34.157  24.325  31.323  0.00  0.00     0.049 C 
BRANCH  23  25
HETATM   25  O   UNK     0      32.256  25.605  32.020  0.00  0.00    -0.387 OA
HETATM   26  H   UNK     0      32.389  26.317  32.667  0.00  0.00     0.210 HD
ENDBRANCH  23  25
BRANCH  23  27
HETATM   27  C   UNK     0      32.759  25.637  29.653  0.00  0.00     0.152 C 
BRANCH  27  28
HETATM   28  O   UNK     0      31.480  26.279  29.670  0.00  0.00    -0.393 OA
HETATM   29  H   UNK     0      31.265  26.522  28.754  0.00  0.00     0.210 HD
ENDBRANCH  27  28
BRANCH  27  30
HETATM   30  C   UNK     0      32.595  24.246  29.012  0.00  0.00     0.037 C 
BRANCH  30  31
HETATM   31  C   UNK     0      33.361  24.129  27.682  0.00  0.00     0.040 C 
BRANCH  31  32
HETATM   32  C   UNK     0      33.977  22.738  27.417  0.00  0.00     0.051 C 
HETATM   33  C   UNK     0      34.176  22.544  25.911  0.00  0.00     0.045 C 
HETATM   34  C   UNK     0      35.306  22.538  28.149  0.00  0.00     0.045 C 
BRANCH  32  35
HETATM   35  O   UNK     0      33.056  21.744  27.871  0.00  0.00    -0.391 OA
HETATM   36  H   UNK     0      32.341  21.662  27.218  0.00  0.00     0.210 HD
ENDBRANCH  32  35
ENDBRANCH  31  32
ENDBRANCH  30  31
ENDBRANCH  27  30
ENDBRANCH  23  27
ENDBRANCH   5  23
BRANCH  10  37
HETATM   37  O   UNK     0      35.945  28.767  27.148  0.00  0.00    -0.395 OA
HETATM   38  H   UNK     0      36.670  28.717  26.502  0.00  0.00     0.210 HD
ENDBRANCH  10  37
BRANCH  19  39
HETATM   39  O   UNK     0      39.215  33.493  29.300  0.00  0.00    -0.393 OA
HETATM   40  H   UNK     0      40.044  33.466  29.807  0.00  0.00     0.210 HD
ENDBRANCH  19  39
BRANCH  20  41
HETATM   41  O   UNK     0      40.446  31.842  27.288  0.00  0.00    -0.393 OA
HETATM   42  H   UNK     0      40.572  32.473  26.559  0.00  0.00     0.210 HD
ENDBRANCH  20  41
ENDBRANCH   1   3
TORSDOF 12
ENDMDL
MODEL 4
REMARK VINA RESULT:      -6.7     10.915     13.893
REMARK  12 active torsions:
REMARK  status: ('A' for Active; 'I' for Inactive)
REMARK    1  A    between atoms: O_1  and  C_10 
REMARK    2  A    between atoms: O_2  and  C_17 
REMARK    3  A    between atoms: O_3  and  C_20 
REMARK    4  A    between atoms: O_4  and  C_27 
REMARK    5  A    between atoms: O_6  and  C_29 
REMARK    6  A    between atoms: O_7  and  C_28 
REMARK    7  A    between atoms: O_8  and  C_33 
REMARK    8  A    between atoms: C_11  and  C_20 
REMARK    9  A    between atoms: C_20  and  C_28 
REMARK   10  A    between atoms: C_28  and  C_31 
REMARK   11  A    between atoms: C_31  and  C_32 
REMARK   12  A    between atoms: C_32  and  C_33 
ROOT
HETATM    1  O   UNK     0      26.351  38.628  10.589  0.00  0.00    -0.384 OA
HETATM    2  H   UNK     0      26.103  39.550  10.748  0.00  0.00     0.211 HD
ENDROOT
BRANCH   1   3
HETATM    3  C   UNK     0      27.788  38.473  10.550  0.00  0.00     0.090 C 
HETATM    4  C   UNK     0      28.465  39.861  10.690  0.00  0.00    -0.000 C 
HETATM    5  C   UNK     0      27.973  40.555   9.393  0.00  0.00     0.034 C 
HETATM    6  C   UNK     0      27.963  40.521  11.982  0.00  0.00     0.045 C 
HETATM    7  C   UNK     0      30.017  39.781  10.718  0.00  0.00     0.019 C 
HETATM    8  C   UNK     0      28.042  39.436   8.328  0.00  0.00     0.012 C 
HETATM    9  C   UNK     0      28.118  38.099   9.098  0.00  0.00     0.044 C 
HETATM   10  C   UNK     0      28.264  39.647  13.216  0.00  0.00     0.128 C 
HETATM   11  C   UNK     0      27.769  38.158  13.099  0.00  0.00     0.055 C 
HETATM   12  C   UNK     0      28.204  37.236  14.323  0.00  0.00    -0.021 C 
HETATM   13  C   UNK     0      28.138  37.574  11.718  0.00  0.00    -0.034 C 
HETATM   14  C   UNK     0      28.074  35.734  13.939  0.00  0.00     0.071 C 
HETATM   15  C   UNK     0      27.336  37.532  15.602  0.00  0.00     0.045 C 
HETATM   16  C   UNK     0      29.688  37.495  14.704  0.00  0.00     0.017 C 
HETATM   17  C   UNK     0      26.632  35.216  13.791  0.00  0.00     0.047 C 
HETATM   18  C   UNK     0      28.834  35.429  12.665  0.00  0.00     0.154 C 
HETATM   19  C   UNK     0      25.626  35.933  14.684  0.00  0.00     0.147 C 
HETATM   20  C   UNK     0      26.277  36.481  15.947  0.00  0.00     0.147 C 
HETATM   21  O   UNK     0      29.496  34.402  12.530  0.00  0.00    -0.293 OA
HETATM   22  C   UNK     0      28.679  36.362  11.532  0.00  0.00     0.057 C 
BRANCH   5  23
HETATM   23  C   UNK     0      28.713  41.817   8.974  0.00  0.00     0.084 C 
HETATM   24  C   UNK     0      30.201  41.697   9.344  0.00  0.00     0.049 C 
BRANCH  23  25
HETATM   25  O   UNK     0      28.636  41.935   7.547  0.00  0.00    -0.387 OA
HETATM   26  H   UNK     0      28.043  41.245   7.206  0.00  0.00     0.210 HD
ENDBRANCH  23  25
BRANCH  23  27
HETATM   27  C   UNK     0      28.094  43.097   9.599  0.00  0.00     0.152 C 
BRANCH  27  28
HETATM   28  O   UNK     0      27.165  43.679   8.679  0.00  0.00    -0.393 OA
HETATM   29  H   UNK     0      26.534  44.206   9.198  0.00  0.00     0.210 HD
ENDBRANCH  27  28
BRANCH  27  30
HETATM   30  C   UNK     0      29.126  44.172   9.991  0.00  0.00     0.037 C 
BRANCH  30  31
HETATM   31  C   UNK     0      28.923  44.668  11.434  0.00  0.00     0.040 C 
BRANCH  31  32
HETATM   32  C   UNK     0      28.290  46.072  11.546  0.00  0.00     0.051 C 
HETATM   33  C   UNK     0      29.216  46.990  12.350  0.00  0.00     0.045 C 
HETATM   34  C   UNK     0      27.998  46.694  10.178  0.00  0.00     0.045 C 
BRANCH  32  35
HETATM   35  O   UNK     0      27.059  45.955  12.261  0.00  0.00    -0.391 OA
HETATM   36  H   UNK     0      26.639  45.112  12.021  0.00  0.00     0.210 HD
ENDBRANCH  32  35
ENDBRANCH  31  32
ENDBRANCH  30  31
ENDBRANCH  27  30
ENDBRANCH  23  27
ENDBRANCH   5  23
BRANCH  10  37
HETATM   37  O   UNK     0      27.665  40.287  14.340  0.00  0.00    -0.395 OA
HETATM   38  H   UNK     0      27.728  39.678  15.096  0.00  0.00     0.210 HD
ENDBRANCH  10  37
BRANCH  19  39
HETATM   39  O   UNK     0      24.580  35.025  15.017  0.00  0.00    -0.393 OA
HETATM   40  H   UNK     0      24.459  34.413  14.273  0.00  0.00     0.210 HD
ENDBRANCH  19  39
BRANCH  20  41
HETATM   41  O   UNK     0      26.892  35.425  16.687  0.00  0.00    -0.393 OA
HETATM   42  H   UNK     0      26.183  34.895  17.088  0.00  0.00     0.210 HD
ENDBRANCH  20  41
ENDBRANCH   1   3
TORSDOF 12
ENDMDL
MODEL 5
REMARK VINA RESULT:      -6.6     20.264     23.374
REMARK  12 active torsions:
REMARK  status: ('A' for Active; 'I' for Inactive)
REMARK    1  A    between atoms: O_1  and  C_10 
REMARK    2  A    between atoms: O_2  and  C_17 
REMARK    3  A    between atoms: O_3  and  C_20 
REMARK    4  A    between atoms: O_4  and  C_27 
REMARK    5  A    between atoms: O_6  and  C_29 
REMARK    6  A    between atoms: O_7  and  C_28 
REMARK    7  A    between atoms: O_8  and  C_33 
REMARK    8  A    between atoms: C_11  and  C_20 
REMARK    9  A    between atoms: C_20  and  C_28 
REMARK   10  A    between atoms: C_28  and  C_31 
REMARK   11  A    between atoms: C_31  and  C_32 
REMARK   12  A    between atoms: C_32  and  C_33 
ROOT
HETATM    1  O   UNK     0      32.707  11.781   1.530  0.00  0.00    -0.384 OA
HETATM    2  H   UNK     0      32.044  11.391   2.118  0.00  0.00     0.211 HD
ENDROOT
BRANCH   1   3
HETATM    3  C   UNK     0      32.767  13.217   1.688  0.00  0.00     0.090 C 
HETATM    4  C   UNK     0      33.366  13.856   0.409  0.00  0.00    -0.000 C 
HETATM    5  C   UNK     0      34.799  13.262   0.433  0.00  0.00     0.034 C 
HETATM    6  C   UNK     0      32.527  13.413  -0.798  0.00  0.00     0.045 C 
HETATM    7  C   UNK     0      33.411  15.408   0.469  0.00  0.00     0.019 C 
HETATM    8  C   UNK     0      35.188  13.301   1.929  0.00  0.00     0.012 C 
HETATM    9  C   UNK     0      33.873  13.468   2.722  0.00  0.00     0.044 C 
HETATM   10  C   UNK     0      31.047  13.818  -0.636  0.00  0.00     0.128 C 
HETATM   11  C   UNK     0      30.391  13.366   0.721  0.00  0.00     0.055 C 
HETATM   12  C   UNK     0      28.907  13.905   0.931  0.00  0.00    -0.021 C 
HETATM   13  C   UNK     0      31.336  13.667   1.904  0.00  0.00    -0.034 C 
HETATM   14  C   UNK     0      28.502  13.800   2.430  0.00  0.00     0.071 C 
HETATM   15  C   UNK     0      27.876  13.109   0.048  0.00  0.00     0.045 C 
HETATM   16  C   UNK     0      28.805  15.401   0.522  0.00  0.00     0.017 C 
HETATM   17  C   UNK     0      28.279  12.369   2.952  0.00  0.00     0.047 C 
HETATM   18  C   UNK     0      29.517  14.489   3.318  0.00  0.00     0.154 C 
HETATM   19  C   UNK     0      27.780  11.398   1.888  0.00  0.00     0.147 C 
HETATM   20  C   UNK     0      26.991  12.107   0.796  0.00  0.00     0.147 C 
HETATM   21  O   UNK     0      29.182  15.174   4.282  0.00  0.00    -0.293 OA
HETATM   22  C   UNK     0      30.947  14.234   3.055  0.00  0.00     0.057 C 
BRANCH   5  23
HETATM   23  C   UNK     0      35.830  13.934  -0.463  0.00  0.00     0.084 C 
HETATM   24  C   UNK     0      37.202  13.269  -0.270  0.00  0.00     0.049 C 
BRANCH  23  25
HETATM   25  O   UNK     0      35.444  13.731  -1.829  0.00  0.00    -0.387 OA
HETATM   26  H   UNK     0      36.239  13.738  -2.386  0.00  0.00     0.210 HD
ENDBRANCH  23  25
BRANCH  23  27
HETATM   27  C   UNK     0      35.921  15.463  -0.209  0.00  0.00     0.152 C 
BRANCH  27  28
HETATM   28  O   UNK     0      36.067  16.149  -1.457  0.00  0.00    -0.393 OA
HETATM   29  H   UNK     0      36.177  15.475  -2.148  0.00  0.00     0.210 HD
ENDBRANCH  27  28
BRANCH  27  30
HETATM   30  C   UNK     0      37.082  15.883   0.713  0.00  0.00     0.037 C 
BRANCH  30  31
HETATM   31  C   UNK     0      36.596  16.728   1.905  0.00  0.00     0.040 C 
BRANCH  31  32
HETATM   32  C   UNK     0      37.280  16.394   3.248  0.00  0.00     0.051 C 
HETATM   33  C   UNK     0      38.207  15.188   3.066  0.00  0.00     0.045 C 
HETATM   34  C   UNK     0      38.070  17.577   3.814  0.00  0.00     0.045 C 
BRANCH  32  35
HETATM   35  O   UNK     0      36.269  16.033   4.191  0.00  0.00    -0.391 OA
HETATM   36  H   UNK     0      36.621  16.160   5.087  0.00  0.00     0.210 HD
ENDBRANCH  32  35
ENDBRANCH  31  32
ENDBRANCH  30  31
ENDBRANCH  27  30
ENDBRANCH  23  27
ENDBRANCH   5  23
BRANCH  10  37
HETATM   37  O   UNK     0      30.338  13.269  -1.743  0.00  0.00    -0.395 OA
HETATM   38  H   UNK     0      29.481  13.725  -1.800  0.00  0.00     0.210 HD
ENDBRANCH  10  37
BRANCH  19  39
HETATM   39  O   UNK     0      26.975  10.404   2.517  0.00  0.00    -0.393 OA
HETATM   40  H   UNK     0      26.447  10.834   3.210  0.00  0.00     0.210 HD
ENDBRANCH  19  39
BRANCH  20  41
HETATM   41  O   UNK     0      25.876  12.801   1.358  0.00  0.00    -0.393 OA
HETATM   42  H   UNK     0      26.074  13.752   1.324  0.00  0.00     0.210 HD
ENDBRANCH  20  41
ENDBRANCH   1   3
TORSDOF 12
ENDMDL
MODEL 6
REMARK VINA RESULT:      -6.6     10.750     14.427
REMARK  12 active torsions:
REMARK  status: ('A' for Active; 'I' for Inactive)
REMARK    1  A    between atoms: O_1  and  C_10 
REMARK    2  A    between atoms: O_2  and  C_17 
REMARK    3  A    between atoms: O_3  and  C_20 
REMARK    4  A    between atoms: O_4  and  C_27 
REMARK    5  A    between atoms: O_6  and  C_29 
REMARK    6  A    between atoms: O_7  and  C_28 
REMARK    7  A    between atoms: O_8  and  C_33 
REMARK    8  A    between atoms: C_11  and  C_20 
REMARK    9  A    between atoms: C_20  and  C_28 
REMARK   10  A    between atoms: C_28  and  C_31 
REMARK   11  A    between atoms: C_31  and  C_32 
REMARK   12  A    between atoms: C_32  and  C_33 
ROOT
HETATM    1  O   UNK     0      35.090  29.478  27.790  0.00  0.00    -0.384 OA
HETATM    2  H   UNK     0      34.276  29.174  27.363  0.00  0.00     0.211 HD
ENDROOT
BRANCH   1   3
HETATM    3  C   UNK     0      36.169  28.537  27.589  0.00  0.00     0.090 C 
HETATM    4  C   UNK     0      37.521  29.296  27.556  0.00  0.00    -0.000 C 
HETATM    5  C   UNK     0      37.334  30.163  26.283  0.00  0.00     0.034 C 
HETATM    6  C   UNK     0      37.658  30.107  28.851  0.00  0.00     0.045 C 
HETATM    7  C   UNK     0      38.745  28.350  27.403  0.00  0.00     0.019 C 
HETATM    8  C   UNK     0      36.616  29.216  25.294  0.00  0.00     0.012 C 
HETATM    9  C   UNK     0      36.030  28.061  26.136  0.00  0.00     0.044 C 
HETATM   10  C   UNK     0      37.580  29.201  30.096  0.00  0.00     0.128 C 
HETATM   11  C   UNK     0      36.323  28.255  30.138  0.00  0.00     0.055 C 
HETATM   12  C   UNK     0      36.325  27.233  31.360  0.00  0.00    -0.021 C 
HETATM   13  C   UNK     0      36.108  27.583  28.765  0.00  0.00    -0.034 C 
HETATM   14  C   UNK     0      35.322  26.073  31.095  0.00  0.00     0.071 C 
HETATM   15  C   UNK     0      35.958  27.952  32.711  0.00  0.00     0.045 C 
HETATM   16  C   UNK     0      37.733  26.601  31.543  0.00  0.00     0.017 C 
HETATM   17  C   UNK     0      33.834  26.465  31.154  0.00  0.00     0.047 C 
HETATM   18  C   UNK     0      35.596  25.409  29.762  0.00  0.00     0.154 C 
HETATM   19  C   UNK     0      33.539  27.615  32.111  0.00  0.00     0.147 C 
HETATM   20  C   UNK     0      34.549  27.681  33.248  0.00  0.00     0.147 C 
HETATM   21  O   UNK     0      35.540  24.189  29.617  0.00  0.00    -0.293 OA
HETATM   22  C   UNK     0      35.841  26.280  28.596  0.00  0.00     0.057 C 
BRANCH   5  23
HETATM   23  C   UNK     0      38.591  30.789  25.695  0.00  0.00     0.084 C 
HETATM   24  C   UNK     0      39.769  29.810  25.821  0.00  0.00     0.049 C 
BRANCH  23  25
HETATM   25  O   UNK     0      38.371  31.018  24.297  0.00  0.00    -0.387 OA
HETATM   26  H   UNK     0      39.156  31.451  23.922  0.00  0.00     0.210 HD
ENDBRANCH  23  25
BRANCH  23  27
HETATM   27  C   UNK     0      38.936  32.150  26.361  0.00  0.00     0.152 C 
BRANCH  27  28
HETATM   28  O   UNK     0      39.069  33.157  25.352  0.00  0.00    -0.393 OA
HETATM   29  H   UNK     0      38.681  33.975  25.705  0.00  0.00     0.210 HD
ENDBRANCH  27  28
BRANCH  27  30
HETATM   30  C   UNK     0      40.226  32.133  27.203  0.00  0.00     0.037 C 
BRANCH  30  31
HETATM   31  C   UNK     0      39.975  32.588  28.652  0.00  0.00     0.040 C 
BRANCH  31  32
HETATM   32  C   UNK     0      40.943  31.981  29.690  0.00  0.00     0.051 C 
HETATM   33  C   UNK     0      41.477  30.642  29.172  0.00  0.00     0.045 C 
HETATM   34  C   UNK     0      42.110  32.915  30.020  0.00  0.00     0.045 C 
BRANCH  32  35
HETATM   35  O   UNK     0      40.213  31.728  30.892  0.00  0.00    -0.391 OA
HETATM   36  H   UNK     0      40.681  32.147  31.633  0.00  0.00     0.210 HD
ENDBRANCH  32  35
ENDBRANCH  31  32
ENDBRANCH  30  31
ENDBRANCH  27  30
ENDBRANCH  23  27
ENDBRANCH   5  23
BRANCH  10  37
HETATM   37  O   UNK     0      37.604  30.052  31.238  0.00  0.00    -0.395 OA
HETATM   38  H   UNK     0      36.850  29.811  31.803  0.00  0.00     0.210 HD
ENDBRANCH  10  37
BRANCH  19  39
HETATM   39  O   UNK     0      32.220  27.454  32.627  0.00  0.00    -0.393 OA
HETATM   40  H   UNK     0      32.158  27.943  33.464  0.00  0.00     0.210 HD
ENDBRANCH  19  39
BRANCH  20  41
HETATM   41  O   UNK     0      34.558  26.453  33.978  0.00  0.00    -0.393 OA
HETATM   42  H   UNK     0      35.475  26.276  34.245  0.00  0.00     0.210 HD
ENDBRANCH  20  41
ENDBRANCH   1   3
TORSDOF 12
ENDMDL
MODEL 7
REMARK VINA RESULT:      -6.6     21.677     25.755
REMARK  12 active torsions:
REMARK  status: ('A' for Active; 'I' for Inactive)
REMARK    1  A    between atoms: O_1  and  C_10 
REMARK    2  A    between atoms: O_2  and  C_17 
REMARK    3  A    between atoms: O_3  and  C_20 
REMARK    4  A    between atoms: O_4  and  C_27 
REMARK    5  A    between atoms: O_6  and  C_29 
REMARK    6  A    between atoms: O_7  and  C_28 
REMARK    7  A    between atoms: O_8  and  C_33 
REMARK    8  A    between atoms: C_11  and  C_20 
REMARK    9  A    between atoms: C_20  and  C_28 
REMARK   10  A    between atoms: C_28  and  C_31 
REMARK   11  A    between atoms: C_31  and  C_32 
REMARK   12  A    between atoms: C_32  and  C_33 
ROOT
HETATM    1  O   UNK     0      32.048  10.887   2.357  0.00  0.00    -0.384 OA
HETATM    2  H   UNK     0      32.624  10.698   3.112  0.00  0.00     0.211 HD
ENDROOT
BRANCH   1   3
HETATM    3  C   UNK     0      32.765  11.586   1.314  0.00  0.00     0.090 C 
HETATM    4  C   UNK     0      32.969  10.642   0.101  0.00  0.00    -0.000 C 
HETATM    5  C   UNK     0      33.879   9.555   0.730  0.00  0.00     0.034 C 
HETATM    6  C   UNK     0      31.597  10.123  -0.351  0.00  0.00     0.045 C 
HETATM    7  C   UNK     0      33.682  11.334  -1.094  0.00  0.00     0.019 C 
HETATM    8  C   UNK     0      34.844  10.360   1.631  0.00  0.00     0.012 C 
HETATM    9  C   UNK     0      34.198  11.747   1.841  0.00  0.00     0.044 C 
HETATM   10  C   UNK     0      30.649  11.282  -0.723  0.00  0.00     0.128 C 
HETATM   11  C   UNK     0      30.512  12.394   0.383  0.00  0.00     0.055 C 
HETATM   12  C   UNK     0      29.637  13.646  -0.068  0.00  0.00    -0.021 C 
HETATM   13  C   UNK     0      31.899  12.772   0.943  0.00  0.00    -0.034 C 
HETATM   14  C   UNK     0      29.906  14.858   0.870  0.00  0.00     0.071 C 
HETATM   15  C   UNK     0      28.100  13.306  -0.065  0.00  0.00     0.045 C 
HETATM   16  C   UNK     0      30.008  14.082  -1.513  0.00  0.00     0.017 C 
HETATM   17  C   UNK     0      29.350  14.719   2.298  0.00  0.00     0.047 C 
HETATM   18  C   UNK     0      31.387  15.164   0.953  0.00  0.00     0.154 C 
HETATM   19  C   UNK     0      28.089  13.866   2.387  0.00  0.00     0.147 C 
HETATM   20  C   UNK     0      27.289  13.898   1.092  0.00  0.00     0.147 C 
HETATM   21  O   UNK     0      31.816  16.316   0.950  0.00  0.00    -0.293 OA
HETATM   22  C   UNK     0      32.314  14.032   1.140  0.00  0.00     0.057 C 
BRANCH   5  23
HETATM   23  C   UNK     0      34.606   8.632  -0.239  0.00  0.00     0.084 C 
HETATM   24  C   UNK     0      33.805   8.512  -1.545  0.00  0.00     0.049 C 
BRANCH  23  25
HETATM   25  O   UNK     0      35.871   9.223  -0.564  0.00  0.00    -0.387 OA
HETATM   26  H   UNK     0      35.731   9.930  -1.215  0.00  0.00     0.210 HD
ENDBRANCH  23  25
BRANCH  23  27
HETATM   27  C   UNK     0      34.870   7.229   0.374  0.00  0.00     0.152 C 
BRANCH  27  28
HETATM   28  O   UNK     0      33.904   6.963   1.396  0.00  0.00    -0.393 OA
HETATM   29  H   UNK     0      34.153   6.125   1.821  0.00  0.00     0.210 HD
ENDBRANCH  27  28
BRANCH  27  30
HETATM   30  C   UNK     0      36.276   7.057   0.979  0.00  0.00     0.037 C 
BRANCH  30  31
HETATM   31  C   UNK     0      36.316   5.939   2.037  0.00  0.00     0.040 C 
BRANCH  31  32
HETATM   32  C   UNK     0      36.350   6.438   3.497  0.00  0.00     0.051 C 
HETATM   33  C   UNK     0      37.263   5.531   4.328  0.00  0.00     0.045 C 
HETATM   34  C   UNK     0      36.818   7.892   3.608  0.00  0.00     0.045 C 
BRANCH  32  35
HETATM   35  O   UNK     0      35.030   6.346   4.035  0.00  0.00    -0.391 OA
HETATM   36  H   UNK     0      35.068   6.542   4.986  0.00  0.00     0.210 HD
ENDBRANCH  32  35
ENDBRANCH  31  32
ENDBRANCH  30  31
ENDBRANCH  27  30
ENDBRANCH  23  27
ENDBRANCH   5  23
BRANCH  10  37
HETATM   37  O   UNK     0      29.379  10.708  -1.018  0.00  0.00    -0.395 OA
HETATM   38  H   UNK     0      29.423  10.335  -1.915  0.00  0.00     0.210 HD
ENDBRANCH  10  37
BRANCH  19  39
HETATM   39  O   UNK     0      27.295  14.334   3.473  0.00  0.00    -0.393 OA
HETATM   40  H   UNK     0      26.474  13.814   3.498  0.00  0.00     0.210 HD
ENDBRANCH  19  39
BRANCH  20  41
HETATM   41  O   UNK     0      26.926  15.241   0.765  0.00  0.00    -0.393 OA
HETATM   42  H   UNK     0      26.131  15.203   0.206  0.00  0.00     0.210 HD
ENDBRANCH  20  41
ENDBRANCH   1   3
TORSDOF 12
ENDMDL
MODEL 8
REMARK VINA RESULT:      -6.5     16.346     19.987
REMARK  12 active torsions:
REMARK  status: ('A' for Active; 'I' for Inactive)
REMARK    1  A    between atoms: O_1  and  C_10 
REMARK    2  A    between atoms: O_2  and  C_17 
REMARK    3  A    between atoms: O_3  and  C_20 
REMARK    4  A    between atoms: O_4  and  C_27 
REMARK    5  A    between atoms: O_6  and  C_29 
REMARK    6  A    between atoms: O_7  and  C_28 
REMARK    7  A    between atoms: O_8  and  C_33 
REMARK    8  A    between atoms: C_11  and  C_20 
REMARK    9  A    between atoms: C_20  and  C_28 
REMARK   10  A    between atoms: C_28  and  C_31 
REMARK   11  A    between atoms: C_31  and  C_32 
REMARK   12  A    between atoms: C_32  and  C_33 
ROOT
HETATM    1  O   UNK     0      40.657  16.280  16.324  0.00  0.00    -0.384 OA
HETATM    2  H   UNK     0      40.278  16.091  15.453  0.00  0.00     0.211 HD
ENDROOT
BRANCH   1   3
HETATM    3  C   UNK     0      40.141  15.377  17.327  0.00  0.00     0.090 C 
HETATM    4  C   UNK     0      40.518  13.919  16.957  0.00  0.00    -0.000 C 
HETATM    5  C   UNK     0      39.730  13.743  15.633  0.00  0.00     0.034 C 
HETATM    6  C   UNK     0      42.042  13.835  16.793  0.00  0.00     0.045 C 
HETATM    7  C   UNK     0      40.052  12.883  18.018  0.00  0.00     0.019 C 
HETATM    8  C   UNK     0      38.389  14.463  15.906  0.00  0.00     0.012 C 
HETATM    9  C   UNK     0      38.618  15.375  17.131  0.00  0.00     0.044 C 
HETATM   10  C   UNK     0      42.773  14.271  18.079  0.00  0.00     0.128 C 
HETATM   11  C   UNK     0      42.329  15.673  18.640  0.00  0.00     0.055 C 
HETATM   12  C   UNK     0      42.995  16.048  20.037  0.00  0.00    -0.021 C 
HETATM   13  C   UNK     0      40.790  15.794  18.631  0.00  0.00    -0.034 C 
HETATM   14  C   UNK     0      42.199  17.196  20.723  0.00  0.00     0.071 C 
HETATM   15  C   UNK     0      44.498  16.480  19.861  0.00  0.00     0.045 C 
HETATM   16  C   UNK     0      42.977  14.827  20.999  0.00  0.00     0.017 C 
HETATM   17  C   UNK     0      42.327  18.576  20.054  0.00  0.00     0.047 C 
HETATM   18  C   UNK     0      40.729  16.847  20.838  0.00  0.00     0.154 C 
HETATM   19  C   UNK     0      43.664  18.798  19.354  0.00  0.00     0.147 C 
HETATM   20  C   UNK     0      44.780  17.980  19.989  0.00  0.00     0.147 C 
HETATM   21  O   UNK     0      40.074  17.105  21.846  0.00  0.00    -0.293 OA
HETATM   22  C   UNK     0      40.065  16.268  19.654  0.00  0.00     0.057 C 
BRANCH   5  23
HETATM   23  C   UNK     0      39.545  12.317  15.135  0.00  0.00     0.084 C 
HETATM   24  C   UNK     0      40.609  11.402  15.764  0.00  0.00     0.049 C 
BRANCH  23  25
HETATM   25  O   UNK     0      38.263  11.847  15.573  0.00  0.00    -0.387 OA
HETATM   26  H   UNK     0      38.327  10.900  15.777  0.00  0.00     0.210 HD
ENDBRANCH  23  25
BRANCH  23  27
HETATM   27  C   UNK     0      39.591  12.225  13.585  0.00  0.00     0.152 C 
BRANCH  27  28
HETATM   28  O   UNK     0      40.041  13.472  13.044  0.00  0.00    -0.393 OA
HETATM   29  H   UNK     0      39.988  13.405  12.076  0.00  0.00     0.210 HD
ENDBRANCH  27  28
BRANCH  27  30
HETATM   30  C   UNK     0      38.240  11.874  12.932  0.00  0.00     0.037 C 
BRANCH  30  31
HETATM   31  C   UNK     0      38.296  10.534  12.176  0.00  0.00     0.040 C 
BRANCH  31  32
HETATM   32  C   UNK     0      37.131   9.571  12.491  0.00  0.00     0.051 C 
HETATM   33  C   UNK     0      36.791   8.751  11.243  0.00  0.00     0.045 C 
HETATM   34  C   UNK     0      37.445   8.634  13.661  0.00  0.00     0.045 C 
BRANCH  32  35
HETATM   35  O   UNK     0      35.983  10.350  12.832  0.00  0.00    -0.391 OA
HETATM   36  H   UNK     0      36.241  11.286  12.864  0.00  0.00     0.210 HD
ENDBRANCH  32  35
ENDBRANCH  31  32
ENDBRANCH  30  31
ENDBRANCH  27  30
ENDBRANCH  23  27
ENDBRANCH   5  23
BRANCH  10  37
HETATM   37  O   UNK     0      44.169  14.266  17.792  0.00  0.00    -0.395 OA
HETATM   38  H   UNK     0      44.387  13.405  17.397  0.00  0.00     0.210 HD
ENDBRANCH  10  37
BRANCH  19  39
HETATM   39  O   UNK     0      43.979  20.186  19.396  0.00  0.00    -0.393 OA
HETATM   40  H   UNK     0      44.914  20.295  19.155  0.00  0.00     0.210 HD
ENDBRANCH  19  39
BRANCH  20  41
HETATM   41  O   UNK     0      44.914  18.312  21.372  0.00  0.00    -0.393 OA
HETATM   42  H   UNK     0      45.817  18.644  21.508  0.00  0.00     0.210 HD
ENDBRANCH  20  41
ENDBRANCH   1   3
TORSDOF 12
ENDMDL
MODEL 9
REMARK VINA RESULT:      -6.4     11.435     13.902
REMARK  12 active torsions:
REMARK  status: ('A' for Active; 'I' for Inactive)
REMARK    1  A    between atoms: O_1  and  C_10 
REMARK    2  A    between atoms: O_2  and  C_17 
REMARK    3  A    between atoms: O_3  and  C_20 
REMARK    4  A    between atoms: O_4  and  C_27 
REMARK    5  A    between atoms: O_6  and  C_29 
REMARK    6  A    between atoms: O_7  and  C_28 
REMARK    7  A    between atoms: O_8  and  C_33 
REMARK    8  A    between atoms: C_11  and  C_20 
REMARK    9  A    between atoms: C_20  and  C_28 
REMARK   10  A    between atoms: C_28  and  C_31 
REMARK   11  A    between atoms: C_31  and  C_32 
REMARK   12  A    between atoms: C_32  and  C_33 
ROOT
HETATM    1  O   UNK     0      35.459  29.150  28.125  0.00  0.00    -0.384 OA
HETATM    2  H   UNK     0      35.006  29.487  28.911  0.00  0.00     0.211 HD
ENDROOT
BRANCH   1   3
HETATM    3  C   UNK     0      36.560  28.285  28.485  0.00  0.00     0.090 C 
HETATM    4  C   UNK     0      37.213  28.793  29.796  0.00  0.00    -0.000 C 
HETATM    5  C   UNK     0      37.753  30.172  29.335  0.00  0.00     0.034 C 
HETATM    6  C   UNK     0      36.130  28.877  30.880  0.00  0.00     0.045 C 
HETATM    7  C   UNK     0      38.372  27.883  30.289  0.00  0.00     0.019 C 
HETATM    8  C   UNK     0      38.290  29.898  27.910  0.00  0.00     0.012 C 
HETATM    9  C   UNK     0      37.656  28.568  27.448  0.00  0.00     0.044 C 
HETATM   10  C   UNK     0      35.453  27.510  31.110  0.00  0.00     0.128 C 
HETATM   11  C   UNK     0      34.909  26.823  29.802  0.00  0.00     0.055 C 
HETATM   12  C   UNK     0      34.333  25.357  30.037  0.00  0.00    -0.021 C 
HETATM   13  C   UNK     0      35.957  26.907  28.673  0.00  0.00    -0.034 C 
HETATM   14  C   UNK     0      34.233  24.594  28.684  0.00  0.00     0.071 C 
HETATM   15  C   UNK     0      32.920  25.397  30.728  0.00  0.00     0.045 C 
HETATM   16  C   UNK     0      35.276  24.540  30.965  0.00  0.00     0.017 C 
HETATM   17  C   UNK     0      33.137  25.097  27.727  0.00  0.00     0.047 C 
HETATM   18  C   UNK     0      35.559  24.604  27.953  0.00  0.00     0.154 C 
HETATM   19  C   UNK     0      31.925  25.690  28.436  0.00  0.00     0.147 C 
HETATM   20  C   UNK     0      31.725  25.087  29.820  0.00  0.00     0.147 C 
HETATM   21  O   UNK     0      35.987  23.613  27.364  0.00  0.00    -0.293 OA
HETATM   22  C   UNK     0      36.294  25.881  27.878  0.00  0.00     0.057 C 
BRANCH   5  23
HETATM   23  C   UNK     0      38.784  30.836  30.237  0.00  0.00     0.084 C 
HETATM   24  C   UNK     0      38.918  32.323  29.870  0.00  0.00     0.049 C 
BRANCH  23  25
HETATM   25  O   UNK     0      38.311  30.769  31.589  0.00  0.00    -0.387 OA
HETATM   26  H   UNK     0      37.872  29.914  31.728  0.00  0.00     0.210 HD
ENDBRANCH  23  25
BRANCH  23  27
HETATM   27  C   UNK     0      40.165  30.128  30.172  0.00  0.00     0.152 C 
BRANCH  27  28
HETATM   28  O   UNK     0      40.610  29.822  31.498  0.00  0.00    -0.393 OA
HETATM   29  H   UNK     0      40.206  28.975  31.751  0.00  0.00     0.210 HD
ENDBRANCH  27  28
BRANCH  27  30
HETATM   30  C   UNK     0      41.264  30.949  29.470  0.00  0.00     0.037 C 
BRANCH  30  31
HETATM   31  C   UNK     0      41.929  30.163  28.325  0.00  0.00     0.040 C 
BRANCH  31  32
HETATM   32  C   UNK     0      41.980  30.913  26.978  0.00  0.00     0.051 C 
HETATM   33  C   UNK     0      41.373  30.036  25.878  0.00  0.00     0.045 C 
HETATM   34  C   UNK     0      41.255  32.260  27.029  0.00  0.00     0.045 C 
BRANCH  32  35
HETATM   35  O   UNK     0      43.349  31.149  26.645  0.00  0.00    -0.391 OA
HETATM   36  H   UNK     0      43.393  31.499  25.740  0.00  0.00     0.210 HD
ENDBRANCH  32  35
ENDBRANCH  31  32
ENDBRANCH  30  31
ENDBRANCH  27  30
ENDBRANCH  23  27
ENDBRANCH   5  23
BRANCH  10  37
HETATM   37  O   UNK     0      34.397  27.716  32.044  0.00  0.00    -0.395 OA
HETATM   38  H   UNK     0      34.608  27.209  32.846  0.00  0.00     0.210 HD
ENDBRANCH  10  37
BRANCH  19  39
HETATM   39  O   UNK     0      30.771  25.475  27.629  0.00  0.00    -0.393 OA
HETATM   40  H   UNK     0      30.624  26.269  27.089  0.00  0.00     0.210 HD
ENDBRANCH  19  39
BRANCH  20  41
HETATM   41  O   UNK     0      31.568  23.670  29.727  0.00  0.00    -0.393 OA
HETATM   42  H   UNK     0      30.651  23.459  29.969  0.00  0.00     0.210 HD
ENDBRANCH  20  41
ENDBRANCH   1   3
TORSDOF 12
ENDMDL
