MODEL 1
REMARK VINA RESULT:      -7.6      0.000      0.000
REMARK  13 active torsions:
REMARK  status: ('A' for Active; 'I' for Inactive)
REMARK    1  A    between atoms: O_2  and  C_16 
REMARK    2  A    between atoms: O_2  and  C_17 
REMARK    3  A    between atoms: O_4  and  C_12 
REMARK    4  A    between atoms: O_5  and  C_13 
REMARK    5  A    between atoms: O_6  and  C_15 
REMARK    6  A    between atoms: O_6  and  C_22 
REMARK    7  A    between atoms: O_7  and  C_14 
REMARK    8  A    between atoms: O_8  and  C_18 
REMARK    9  A    between atoms: O_9  and  C_19 
REMARK   10  A    between atoms: O_10  and  C_20 
REMARK   11  A    between atoms: C_11  and  C_16 
REMARK   12  A    between atoms: C_22  and  C_23 
REMARK   13  A    between atoms: C_24  and  C_25 
ROOT
HETATM    1  O   UNK     0       8.492  43.094  23.270  0.00  0.00    -0.348 OA
HETATM    2  C   UNK     0       7.536  43.973  23.866  0.00  0.00     0.180 C 
HETATM    3  C   UNK     0       8.100  45.395  23.926  0.00  0.00     0.180 C 
HETATM    4  C   UNK     0       9.435  45.418  24.669  0.00  0.00     0.183 C 
HETATM    5  C   UNK     0      10.385  44.344  24.137  0.00  0.00     0.204 C 
HETATM    6  C   UNK     0       9.689  42.988  24.037  0.00  0.00     0.291 C 
ENDROOT
BRANCH   2   7
HETATM    7  C   UNK     0       6.263  43.905  23.028  0.00  0.00     0.205 C 
BRANCH   7   8
HETATM    8  O   UNK     0       6.245  45.012  22.145  0.00  0.00    -0.356 OA
BRANCH   8   9
HETATM    9  C   UNK     0       6.354  44.605  20.785  0.00  0.00     0.290 C 
HETATM   10  O   UNK     0       7.651  44.881  20.245  0.00  0.00    -0.356 OA
HETATM   11  C   UNK     0       7.940  46.272  20.125  0.00  0.00     0.205 C 
HETATM   12  C   UNK     0       6.940  46.950  19.197  0.00  0.00     0.173 C 
HETATM   13  C   UNK     0       5.511  46.750  19.704  0.00  0.00     0.182 C 
HETATM   14  C   UNK     0       5.243  45.262  19.952  0.00  0.00     0.204 C 
BRANCH  12  15
HETATM   15  O   UNK     0       7.225  48.337  19.091  0.00  0.00    -0.391 OA
HETATM   16  H   UNK     0       6.433  48.823  19.383  0.00  0.00     0.210 HD
ENDBRANCH  12  15
BRANCH  13  17
HETATM   17  O   UNK     0       5.338  47.475  20.920  0.00  0.00    -0.390 OA
HETATM   18  H   UNK     0       4.951  46.866  21.572  0.00  0.00     0.210 HD
ENDBRANCH  13  17
BRANCH  14  19
HETATM   19  O   UNK     0       5.168  44.580  18.701  0.00  0.00    -0.388 OA
HETATM   20  H   UNK     0       6.036  44.636  18.269  0.00  0.00     0.210 HD
ENDBRANCH  14  19
ENDBRANCH   8   9
ENDBRANCH   7   8
ENDBRANCH   2   7
BRANCH   6  21
HETATM   21  O   UNK     0      10.588  42.078  23.404  0.00  0.00    -0.355 OA
BRANCH  21  22
HETATM   22  C   UNK     0      10.122  41.704  22.116  0.00  0.00     0.198 C 
BRANCH  22  23
HETATM   23  C   UNK     0      11.011  42.322  21.085  0.00  0.00     0.000 C 
HETATM   24  C   UNK     0      10.570  43.172  20.146  0.00  0.00     0.009 C 
BRANCH  24  25
HETATM   25  C   UNK     0      11.409  43.816  19.121  0.00  0.00    -0.036 A 
HETATM   26  C   UNK     0      12.777  43.597  19.127  0.00  0.00     0.011 A 
HETATM   27  C   UNK     0      13.573  44.207  18.157  0.00  0.00     0.001 A 
HETATM   28  C   UNK     0      12.988  45.027  17.192  0.00  0.00     0.000 A 
HETATM   29  C   UNK     0      11.610  45.239  17.198  0.00  0.00     0.001 A 
HETATM   30  C   UNK     0      10.815  44.629  18.169  0.00  0.00     0.011 A 
ENDBRANCH  24  25
ENDBRANCH  22  23
ENDBRANCH  21  22
ENDBRANCH   6  21
BRANCH   3  31
HETATM   31  O   UNK     0       7.171  46.243  24.596  0.00  0.00    -0.390 OA
HETATM   32  H   UNK     0       7.489  46.375  25.506  0.00  0.00     0.210 HD
ENDBRANCH   3  31
BRANCH   5  33
HETATM   33  O   UNK     0      11.496  44.214  25.023  0.00  0.00    -0.388 OA
HETATM   34  H   UNK     0      11.161  43.916  25.885  0.00  0.00     0.210 HD
ENDBRANCH   5  33
BRANCH   4  35
HETATM   35  O   UNK     0      10.022  46.708  24.483  0.00  0.00    -0.390 OA
HETATM   36  H   UNK     0      10.466  46.703  23.618  0.00  0.00     0.210 HD
ENDBRANCH   4  35
TORSDOF 13
ENDMDL
MODEL 2
REMARK VINA RESULT:      -7.3      2.984      7.955
REMARK  13 active torsions:
REMARK  status: ('A' for Active; 'I' for Inactive)
REMARK    1  A    between atoms: O_2  and  C_16 
REMARK    2  A    between atoms: O_2  and  C_17 
REMARK    3  A    between atoms: O_4  and  C_12 
REMARK    4  A    between atoms: O_5  and  C_13 
REMARK    5  A    between atoms: O_6  and  C_15 
REMARK    6  A    between atoms: O_6  and  C_22 
REMARK    7  A    between atoms: O_7  and  C_14 
REMARK    8  A    between atoms: O_8  and  C_18 
REMARK    9  A    between atoms: O_9  and  C_19 
REMARK   10  A    between atoms: O_10  and  C_20 
REMARK   11  A    between atoms: C_11  and  C_16 
REMARK   12  A    between atoms: C_22  and  C_23 
REMARK   13  A    between atoms: C_24  and  C_25 
ROOT
HETATM    1  O   UNK     0       6.422  43.472  20.853  0.00  0.00    -0.348 OA
HETATM    2  C   UNK     0       7.742  43.216  20.372  0.00  0.00     0.180 C 
HETATM    3  C   UNK     0       8.252  44.422  19.578  0.00  0.00     0.180 C 
HETATM    4  C   UNK     0       7.290  44.769  18.443  0.00  0.00     0.183 C 
HETATM    5  C   UNK     0       5.849  44.861  18.947  0.00  0.00     0.204 C 
HETATM    6  C   UNK     0       5.480  43.648  19.799  0.00  0.00     0.291 C 
ENDROOT
BRANCH   2   7
HETATM    7  C   UNK     0       8.625  42.921  21.581  0.00  0.00     0.205 C 
BRANCH   7   8
HETATM    8  O   UNK     0       9.269  44.120  21.970  0.00  0.00    -0.356 OA
BRANCH   8   9
HETATM    9  C   UNK     0       8.724  44.645  23.177  0.00  0.00     0.290 C 
HETATM   10  O   UNK     0       9.004  46.041  23.329  0.00  0.00    -0.356 OA
HETATM   11  C   UNK     0      10.386  46.332  23.519  0.00  0.00     0.205 C 
HETATM   12  C   UNK     0      10.910  45.655  24.778  0.00  0.00     0.173 C 
HETATM   13  C   UNK     0      10.696  44.142  24.706  0.00  0.00     0.182 C 
HETATM   14  C   UNK     0       9.231  43.832  24.377  0.00  0.00     0.204 C 
BRANCH  12  15
HETATM   15  O   UNK     0      12.291  45.937  24.956  0.00  0.00    -0.391 OA
HETATM   16  H   UNK     0      12.485  46.765  24.481  0.00  0.00     0.210 HD
ENDBRANCH  12  15
BRANCH  13  17
HETATM   17  O   UNK     0      11.538  43.595  23.693  0.00  0.00    -0.390 OA
HETATM   18  H   UNK     0      10.966  43.301  22.963  0.00  0.00     0.210 HD
ENDBRANCH  13  17
BRANCH  14  19
HETATM   19  O   UNK     0       8.416  44.152  25.503  0.00  0.00    -0.388 OA
HETATM   20  H   UNK     0       8.888  44.804  26.048  0.00  0.00     0.210 HD
ENDBRANCH  14  19
ENDBRANCH   8   9
ENDBRANCH   7   8
ENDBRANCH   2   7
BRANCH   6  21
HETATM   21  O   UNK     0       4.181  43.873  20.345  0.00  0.00    -0.355 OA
BRANCH  21  22
HETATM   22  C   UNK     0       3.308  42.788  20.067  0.00  0.00     0.198 C 
BRANCH  22  23
HETATM   23  C   UNK     0       3.095  42.009  21.325  0.00  0.00     0.000 C 
HETATM   24  C   UNK     0       3.049  42.573  22.542  0.00  0.00     0.009 C 
BRANCH  24  25
HETATM   25  C   UNK     0       2.827  41.849  23.806  0.00  0.00    -0.036 A 
HETATM   26  C   UNK     0       3.400  42.328  24.973  0.00  0.00     0.011 A 
HETATM   27  C   UNK     0       3.190  41.643  26.170  0.00  0.00     0.001 A 
HETATM   28  C   UNK     0       2.408  40.488  26.184  0.00  0.00     0.000 A 
HETATM   29  C   UNK     0       1.837  40.018  25.001  0.00  0.00     0.001 A 
HETATM   30  C   UNK     0       2.047  40.703  23.804  0.00  0.00     0.011 A 
ENDBRANCH  24  25
ENDBRANCH  22  23
ENDBRANCH  21  22
ENDBRANCH   6  21
BRANCH   3  31
HETATM   31  O   UNK     0       9.534  44.120  19.035  0.00  0.00    -0.390 OA
HETATM   32  H   UNK     0       9.845  44.904  18.549  0.00  0.00     0.210 HD
ENDBRANCH   3  31
BRANCH   5  33
HETATM   33  O   UNK     0       4.960  44.912  17.831  0.00  0.00    -0.388 OA
HETATM   34  H   UNK     0       4.610  45.816  17.765  0.00  0.00     0.210 HD
ENDBRANCH   5  33
BRANCH   4  35
HETATM   35  O   UNK     0       7.685  46.030  17.900  0.00  0.00    -0.390 OA
HETATM   36  H   UNK     0       8.522  45.892  17.424  0.00  0.00     0.210 HD
ENDBRANCH   4  35
TORSDOF 13
ENDMDL
MODEL 3
REMARK VINA RESULT:      -7.3      3.169      8.085
REMARK  13 active torsions:
REMARK  status: ('A' for Active; 'I' for Inactive)
REMARK    1  A    between atoms: O_2  and  C_16 
REMARK    2  A    between atoms: O_2  and  C_17 
REMARK    3  A    between atoms: O_4  and  C_12 
REMARK    4  A    between atoms: O_5  and  C_13 
REMARK    5  A    between atoms: O_6  and  C_15 
REMARK    6  A    between atoms: O_6  and  C_22 
REMARK    7  A    between atoms: O_7  and  C_14 
REMARK    8  A    between atoms: O_8  and  C_18 
REMARK    9  A    between atoms: O_9  and  C_19 
REMARK   10  A    between atoms: O_10  and  C_20 
REMARK   11  A    between atoms: C_11  and  C_16 
REMARK   12  A    between atoms: C_22  and  C_23 
REMARK   13  A    between atoms: C_24  and  C_25 
ROOT
HETATM    1  O   UNK     0       7.034  44.076  21.059  0.00  0.00    -0.348 OA
HETATM    2  C   UNK     0       8.375  44.384  20.675  0.00  0.00     0.180 C 
HETATM    3  C   UNK     0       8.488  45.867  20.315  0.00  0.00     0.180 C 
HETATM    4  C   UNK     0       7.484  46.238  19.224  0.00  0.00     0.183 C 
HETATM    5  C   UNK     0       6.081  45.739  19.570  0.00  0.00     0.204 C 
HETATM    6  C   UNK     0       6.103  44.273  19.999  0.00  0.00     0.291 C 
ENDROOT
BRANCH   2   7
HETATM    7  C   UNK     0       9.286  44.015  21.843  0.00  0.00     0.205 C 
BRANCH   7   8
HETATM    8  O   UNK     0      10.615  43.921  21.364  0.00  0.00    -0.356 OA
BRANCH   8   9
HETATM    9  C   UNK     0      11.317  42.838  21.966  0.00  0.00     0.290 C 
HETATM   10  O   UNK     0      12.460  43.284  22.704  0.00  0.00    -0.356 OA
HETATM   11  C   UNK     0      13.488  43.842  21.890  0.00  0.00     0.205 C 
HETATM   12  C   UNK     0      14.003  42.812  20.893  0.00  0.00     0.173 C 
HETATM   13  C   UNK     0      12.861  42.291  20.018  0.00  0.00     0.182 C 
HETATM   14  C   UNK     0      11.703  41.806  20.896  0.00  0.00     0.204 C 
BRANCH  12  15
HETATM   15  O   UNK     0      15.018  43.377  20.076  0.00  0.00    -0.391 OA
HETATM   16  H   UNK     0      15.163  42.772  19.327  0.00  0.00     0.210 HD
ENDBRANCH  12  15
BRANCH  13  17
HETATM   17  O   UNK     0      12.407  43.340  19.164  0.00  0.00    -0.390 OA
HETATM   18  H   UNK     0      11.851  43.933  19.699  0.00  0.00     0.210 HD
ENDBRANCH  13  17
BRANCH  14  19
HETATM   19  O   UNK     0      12.085  40.603  21.560  0.00  0.00    -0.388 OA
HETATM   20  H   UNK     0      12.536  40.029  20.919  0.00  0.00     0.210 HD
ENDBRANCH  14  19
ENDBRANCH   8   9
ENDBRANCH   7   8
ENDBRANCH   2   7
BRANCH   6  21
HETATM   21  O   UNK     0       4.791  43.924  20.439  0.00  0.00    -0.355 OA
BRANCH  21  22
HETATM   22  C   UNK     0       4.342  44.794  21.466  0.00  0.00     0.198 C 
BRANCH  22  23
HETATM   23  C   UNK     0       3.776  43.972  22.579  0.00  0.00     0.000 C 
HETATM   24  C   UNK     0       3.527  42.658  22.471  0.00  0.00     0.009 C 
BRANCH  24  25
HETATM   25  C   UNK     0       2.985  41.805  23.543  0.00  0.00    -0.036 A 
HETATM   26  C   UNK     0       3.346  42.055  24.858  0.00  0.00     0.011 A 
HETATM   27  C   UNK     0       2.833  41.248  25.874  0.00  0.00     0.001 A 
HETATM   28  C   UNK     0       1.966  40.201  25.561  0.00  0.00     0.000 A 
HETATM   29  C   UNK     0       1.612  39.961  24.233  0.00  0.00     0.001 A 
HETATM   30  C   UNK     0       2.124  40.769  23.218  0.00  0.00     0.011 A 
ENDBRANCH  24  25
ENDBRANCH  22  23
ENDBRANCH  21  22
ENDBRANCH   6  21
BRANCH   3  31
HETATM   31  O   UNK     0       9.809  46.142  19.854  0.00  0.00    -0.390 OA
HETATM   32  H   UNK     0      10.221  46.762  20.480  0.00  0.00     0.210 HD
ENDBRANCH   3  31
BRANCH   5  33
HETATM   33  O   UNK     0       5.240  45.858  18.422  0.00  0.00    -0.388 OA
HETATM   34  H   UNK     0       4.927  46.776  18.371  0.00  0.00     0.210 HD
ENDBRANCH   5  33
BRANCH   4  35
HETATM   35  O   UNK     0       7.467  47.662  19.105  0.00  0.00    -0.390 OA
HETATM   36  H   UNK     0       7.076  47.877  18.241  0.00  0.00     0.210 HD
ENDBRANCH   4  35
TORSDOF 13
ENDMDL
MODEL 4
REMARK VINA RESULT:      -7.2      2.910      7.977
REMARK  13 active torsions:
REMARK  status: ('A' for Active; 'I' for Inactive)
REMARK    1  A    between atoms: O_2  and  C_16 
REMARK    2  A    between atoms: O_2  and  C_17 
REMARK    3  A    between atoms: O_4  and  C_12 
REMARK    4  A    between atoms: O_5  and  C_13 
REMARK    5  A    between atoms: O_6  and  C_15 
REMARK    6  A    between atoms: O_6  and  C_22 
REMARK    7  A    between atoms: O_7  and  C_14 
REMARK    8  A    between atoms: O_8  and  C_18 
REMARK    9  A    between atoms: O_9  and  C_19 
REMARK   10  A    between atoms: O_10  and  C_20 
REMARK   11  A    between atoms: C_11  and  C_16 
REMARK   12  A    between atoms: C_22  and  C_23 
REMARK   13  A    between atoms: C_24  and  C_25 
ROOT
HETATM    1  O   UNK     0       6.901  44.498  21.344  0.00  0.00    -0.348 OA
HETATM    2  C   UNK     0       8.257  44.782  20.996  0.00  0.00     0.180 C 
HETATM    3  C   UNK     0       8.373  46.216  20.473  0.00  0.00     0.180 C 
HETATM    4  C   UNK     0       7.425  46.442  19.297  0.00  0.00     0.183 C 
HETATM    5  C   UNK     0       6.010  45.962  19.625  0.00  0.00     0.204 C 
HETATM    6  C   UNK     0       6.025  44.556  20.221  0.00  0.00     0.291 C 
ENDROOT
BRANCH   2   7
HETATM    7  C   UNK     0       9.108  44.565  22.244  0.00  0.00     0.205 C 
BRANCH   7   8
HETATM    8  O   UNK     0       8.811  43.286  22.774  0.00  0.00    -0.356 OA
BRANCH   8   9
HETATM    9  C   UNK     0       8.601  43.334  24.182  0.00  0.00     0.290 C 
HETATM   10  O   UNK     0       9.586  42.579  24.897  0.00  0.00    -0.356 OA
HETATM   11  C   UNK     0       9.509  41.173  24.669  0.00  0.00     0.205 C 
HETATM   12  C   UNK     0       8.155  40.631  25.110  0.00  0.00     0.173 C 
HETATM   13  C   UNK     0       7.022  41.348  24.373  0.00  0.00     0.182 C 
HETATM   14  C   UNK     0       7.177  42.865  24.515  0.00  0.00     0.204 C 
BRANCH  12  15
HETATM   15  O   UNK     0       8.079  39.234  24.868  0.00  0.00    -0.391 OA
HETATM   16  H   UNK     0       7.599  38.832  25.613  0.00  0.00     0.210 HD
ENDBRANCH  12  15
BRANCH  13  17
HETATM   17  O   UNK     0       7.057  40.991  22.993  0.00  0.00    -0.390 OA
HETATM   18  H   UNK     0       7.643  41.623  22.542  0.00  0.00     0.210 HD
ENDBRANCH  13  17
BRANCH  14  19
HETATM   19  O   UNK     0       6.890  43.247  25.860  0.00  0.00    -0.388 OA
HETATM   20  H   UNK     0       7.727  43.467  26.301  0.00  0.00     0.210 HD
ENDBRANCH  14  19
ENDBRANCH   8   9
ENDBRANCH   7   8
ENDBRANCH   2   7
BRANCH   6  21
HETATM   21  O   UNK     0       4.696  44.237  20.629  0.00  0.00    -0.355 OA
BRANCH  21  22
HETATM   22  C   UNK     0       4.263  45.082  21.684  0.00  0.00     0.198 C 
BRANCH  22  23
HETATM   23  C   UNK     0       3.851  44.232  22.843  0.00  0.00     0.000 C 
HETATM   24  C   UNK     0       3.445  42.959  22.716  0.00  0.00     0.009 C 
BRANCH  24  25
HETATM   25  C   UNK     0       3.045  42.080  23.828  0.00  0.00    -0.036 A 
HETATM   26  C   UNK     0       2.230  40.989  23.571  0.00  0.00     0.011 A 
HETATM   27  C   UNK     0       1.851  40.155  24.624  0.00  0.00     0.001 A 
HETATM   28  C   UNK     0       2.294  40.424  25.919  0.00  0.00     0.000 A 
HETATM   29  C   UNK     0       3.114  41.525  26.162  0.00  0.00     0.001 A 
HETATM   30  C   UNK     0       3.493  42.359  25.109  0.00  0.00     0.011 A 
ENDBRANCH  24  25
ENDBRANCH  22  23
ENDBRANCH  21  22
ENDBRANCH   6  21
BRANCH   3  31
HETATM   31  O   UNK     0       9.713  46.458  20.053  0.00  0.00    -0.390 OA
HETATM   32  H   UNK     0       9.680  46.986  19.236  0.00  0.00     0.210 HD
ENDBRANCH   3  31
BRANCH   5  33
HETATM   33  O   UNK     0       5.231  45.934  18.429  0.00  0.00    -0.388 OA
HETATM   34  H   UNK     0       5.544  45.194  17.882  0.00  0.00     0.210 HD
ENDBRANCH   5  33
BRANCH   4  35
HETATM   35  O   UNK     0       7.398  47.843  19.014  0.00  0.00    -0.390 OA
HETATM   36  H   UNK     0       6.958  48.282  19.761  0.00  0.00     0.210 HD
ENDBRANCH   4  35
TORSDOF 13
ENDMDL
MODEL 5
REMARK VINA RESULT:      -7.1      2.918      7.928
REMARK  13 active torsions:
REMARK  status: ('A' for Active; 'I' for Inactive)
REMARK    1  A    between atoms: O_2  and  C_16 
REMARK    2  A    between atoms: O_2  and  C_17 
REMARK    3  A    between atoms: O_4  and  C_12 
REMARK    4  A    between atoms: O_5  and  C_13 
REMARK    5  A    between atoms: O_6  and  C_15 
REMARK    6  A    between atoms: O_6  and  C_22 
REMARK    7  A    between atoms: O_7  and  C_14 
REMARK    8  A    between atoms: O_8  and  C_18 
REMARK    9  A    between atoms: O_9  and  C_19 
REMARK   10  A    between atoms: O_10  and  C_20 
REMARK   11  A    between atoms: C_11  and  C_16 
REMARK   12  A    between atoms: C_22  and  C_23 
REMARK   13  A    between atoms: C_24  and  C_25 
ROOT
HETATM    1  O   UNK     0       7.163  44.466  21.202  0.00  0.00    -0.348 OA
HETATM    2  C   UNK     0       7.969  44.373  20.027  0.00  0.00     0.180 C 
HETATM    3  C   UNK     0       8.363  45.775  19.552  0.00  0.00     0.180 C 
HETATM    4  C   UNK     0       7.123  46.638  19.324  0.00  0.00     0.183 C 
HETATM    5  C   UNK     0       6.180  46.580  20.527  0.00  0.00     0.204 C 
HETATM    6  C   UNK     0       5.929  45.139  20.967  0.00  0.00     0.291 C 
ENDROOT
BRANCH   2   7
HETATM    7  C   UNK     0       9.193  43.529  20.372  0.00  0.00     0.205 C 
BRANCH   7   8
HETATM    8  O   UNK     0       9.202  43.302  21.769  0.00  0.00    -0.356 OA
BRANCH   8   9
HETATM    9  C   UNK     0      10.349  43.875  22.389  0.00  0.00     0.290 C 
HETATM   10  O   UNK     0      10.901  43.017  23.394  0.00  0.00    -0.356 OA
HETATM   11  C   UNK     0      10.053  42.837  24.526  0.00  0.00     0.205 C 
HETATM   12  C   UNK     0       9.782  44.171  25.210  0.00  0.00     0.173 C 
HETATM   13  C   UNK     0       9.151  45.161  24.230  0.00  0.00     0.182 C 
HETATM   14  C   UNK     0       9.999  45.259  22.958  0.00  0.00     0.204 C 
BRANCH  12  15
HETATM   15  O   UNK     0       8.927  43.989  26.329  0.00  0.00    -0.391 OA
HETATM   16  H   UNK     0       8.941  44.813  26.847  0.00  0.00     0.210 HD
ENDBRANCH  12  15
BRANCH  13  17
HETATM   17  O   UNK     0       7.837  44.719  23.894  0.00  0.00    -0.390 OA
HETATM   18  H   UNK     0       7.211  45.393  24.210  0.00  0.00     0.210 HD
ENDBRANCH  13  17
BRANCH  14  19
HETATM   19  O   UNK     0      11.220  45.935  23.254  0.00  0.00    -0.388 OA
HETATM   20  H   UNK     0      11.540  45.626  24.118  0.00  0.00     0.210 HD
ENDBRANCH  14  19
ENDBRANCH   8   9
ENDBRANCH   7   8
ENDBRANCH   2   7
BRANCH   6  21
HETATM   21  O   UNK     0       5.163  45.174  22.170  0.00  0.00    -0.355 OA
BRANCH  21  22
HETATM   22  C   UNK     0       3.904  44.541  21.999  0.00  0.00     0.198 C 
BRANCH  22  23
HETATM   23  C   UNK     0       3.597  43.743  23.226  0.00  0.00     0.000 C 
HETATM   24  C   UNK     0       3.133  42.484  23.188  0.00  0.00     0.009 C 
BRANCH  24  25
HETATM   25  C   UNK     0       2.831  41.655  24.367  0.00  0.00    -0.036 A 
HETATM   26  C   UNK     0       2.048  40.522  24.218  0.00  0.00     0.011 A 
HETATM   27  C   UNK     0       1.761  39.736  25.335  0.00  0.00     0.001 A 
HETATM   28  C   UNK     0       2.264  40.094  26.586  0.00  0.00     0.000 A 
HETATM   29  C   UNK     0       3.052  41.236  26.721  0.00  0.00     0.001 A 
HETATM   30  C   UNK     0       3.338  42.022  25.604  0.00  0.00     0.011 A 
ENDBRANCH  24  25
ENDBRANCH  22  23
ENDBRANCH  21  22
ENDBRANCH   6  21
BRANCH   3  31
HETATM   31  O   UNK     0       9.096  45.671  18.334  0.00  0.00    -0.390 OA
HETATM   32  H   UNK     0       9.993  45.363  18.549  0.00  0.00     0.210 HD
ENDBRANCH   3  31
BRANCH   5  33
HETATM   33  O   UNK     0       4.927  47.166  20.173  0.00  0.00    -0.388 OA
HETATM   34  H   UNK     0       4.394  47.249  20.982  0.00  0.00     0.210 HD
ENDBRANCH   5  33
BRANCH   4  35
HETATM   35  O   UNK     0       7.554  47.985  19.122  0.00  0.00    -0.390 OA
HETATM   36  H   UNK     0       7.745  48.364  19.997  0.00  0.00     0.210 HD
ENDBRANCH   4  35
TORSDOF 13
ENDMDL
MODEL 6
REMARK VINA RESULT:      -7.1      2.207      7.307
REMARK  13 active torsions:
REMARK  status: ('A' for Active; 'I' for Inactive)
REMARK    1  A    between atoms: O_2  and  C_16 
REMARK    2  A    between atoms: O_2  and  C_17 
REMARK    3  A    between atoms: O_4  and  C_12 
REMARK    4  A    between atoms: O_5  and  C_13 
REMARK    5  A    between atoms: O_6  and  C_15 
REMARK    6  A    between atoms: O_6  and  C_22 
REMARK    7  A    between atoms: O_7  and  C_14 
REMARK    8  A    between atoms: O_8  and  C_18 
REMARK    9  A    between atoms: O_9  and  C_19 
REMARK   10  A    between atoms: O_10  and  C_20 
REMARK   11  A    between atoms: C_11  and  C_16 
REMARK   12  A    between atoms: C_22  and  C_23 
REMARK   13  A    between atoms: C_24  and  C_25 
ROOT
HETATM    1  O   UNK     0       8.315  44.356  20.982  0.00  0.00    -0.348 OA
HETATM    2  C   UNK     0       9.293  43.403  20.564  0.00  0.00     0.180 C 
HETATM    3  C   UNK     0      10.239  44.039  19.543  0.00  0.00     0.180 C 
HETATM    4  C   UNK     0       9.458  44.607  18.359  0.00  0.00     0.183 C 
HETATM    5  C   UNK     0       8.297  45.484  18.832  0.00  0.00     0.204 C 
HETATM    6  C   UNK     0       7.475  44.783  19.912  0.00  0.00     0.291 C 
ENDROOT
BRANCH   2   7
HETATM    7  C   UNK     0      10.039  42.932  21.809  0.00  0.00     0.205 C 
BRANCH   7   8
HETATM    8  O   UNK     0      11.032  43.890  22.128  0.00  0.00    -0.356 OA
BRANCH   8   9
HETATM    9  C   UNK     0      11.229  43.997  23.534  0.00  0.00     0.290 C 
HETATM   10  O   UNK     0      10.177  43.367  24.273  0.00  0.00    -0.356 OA
HETATM   11  C   UNK     0       8.913  44.012  24.137  0.00  0.00     0.205 C 
HETATM   12  C   UNK     0       8.986  45.447  24.642  0.00  0.00     0.173 C 
HETATM   13  C   UNK     0      10.061  46.231  23.887  0.00  0.00     0.182 C 
HETATM   14  C   UNK     0      11.392  45.473  23.928  0.00  0.00     0.204 C 
BRANCH  12  15
HETATM   15  O   UNK     0       7.728  46.089  24.492  0.00  0.00    -0.391 OA
HETATM   16  H   UNK     0       7.368  46.244  25.383  0.00  0.00     0.210 HD
ENDBRANCH  12  15
BRANCH  13  17
HETATM   17  O   UNK     0       9.653  46.405  22.531  0.00  0.00    -0.390 OA
HETATM   18  H   UNK     0       9.731  47.352  22.321  0.00  0.00     0.210 HD
ENDBRANCH  13  17
BRANCH  14  19
HETATM   19  O   UNK     0      11.922  45.520  25.252  0.00  0.00    -0.388 OA
HETATM   20  H   UNK     0      12.745  45.003  25.271  0.00  0.00     0.210 HD
ENDBRANCH  14  19
ENDBRANCH   8   9
ENDBRANCH   7   8
ENDBRANCH   2   7
BRANCH   6  21
HETATM   21  O   UNK     0       6.507  45.711  20.399  0.00  0.00    -0.355 OA
BRANCH  21  22
HETATM   22  C   UNK     0       5.187  45.288  20.095  0.00  0.00     0.198 C 
BRANCH  22  23
HETATM   23  C   UNK     0       4.714  44.372  21.178  0.00  0.00     0.000 C 
HETATM   24  C   UNK     0       4.765  44.686  22.482  0.00  0.00     0.009 C 
BRANCH  24  25
HETATM   25  C   UNK     0       4.298  43.824  23.582  0.00  0.00    -0.036 A 
HETATM   26  C   UNK     0       3.466  42.752  23.298  0.00  0.00     0.011 A 
HETATM   27  C   UNK     0       3.024  41.936  24.339  0.00  0.00     0.001 A 
HETATM   28  C   UNK     0       3.420  42.202  25.650  0.00  0.00     0.000 A 
HETATM   29  C   UNK     0       4.257  43.283  25.920  0.00  0.00     0.001 A 
HETATM   30  C   UNK     0       4.700  44.100  24.879  0.00  0.00     0.011 A 
ENDBRANCH  24  25
ENDBRANCH  22  23
ENDBRANCH  21  22
ENDBRANCH   6  21
BRANCH   3  31
HETATM   31  O   UNK     0      11.157  43.054  19.073  0.00  0.00    -0.390 OA
HETATM   32  H   UNK     0      11.004  42.932  18.120  0.00  0.00     0.210 HD
ENDBRANCH   3  31
BRANCH   5  33
HETATM   33  O   UNK     0       7.438  45.767  17.727  0.00  0.00    -0.388 OA
HETATM   34  H   UNK     0       7.979  46.146  17.014  0.00  0.00     0.210 HD
ENDBRANCH   5  33
BRANCH   4  35
HETATM   35  O   UNK     0      10.356  45.390  17.571  0.00  0.00    -0.390 OA
HETATM   36  H   UNK     0      10.830  44.782  16.979  0.00  0.00     0.210 HD
ENDBRANCH   4  35
TORSDOF 13
ENDMDL
MODEL 7
REMARK VINA RESULT:      -7.1      3.140      7.800
REMARK  13 active torsions:
REMARK  status: ('A' for Active; 'I' for Inactive)
REMARK    1  A    between atoms: O_2  and  C_16 
REMARK    2  A    between atoms: O_2  and  C_17 
REMARK    3  A    between atoms: O_4  and  C_12 
REMARK    4  A    between atoms: O_5  and  C_13 
REMARK    5  A    between atoms: O_6  and  C_15 
REMARK    6  A    between atoms: O_6  and  C_22 
REMARK    7  A    between atoms: O_7  and  C_14 
REMARK    8  A    between atoms: O_8  and  C_18 
REMARK    9  A    between atoms: O_9  and  C_19 
REMARK   10  A    between atoms: O_10  and  C_20 
REMARK   11  A    between atoms: C_11  and  C_16 
REMARK   12  A    between atoms: C_22  and  C_23 
REMARK   13  A    between atoms: C_24  and  C_25 
ROOT
HETATM    1  O   UNK     0       6.746  43.213  20.313  0.00  0.00    -0.348 OA
HETATM    2  C   UNK     0       8.070  43.719  20.136  0.00  0.00     0.180 C 
HETATM    3  C   UNK     0       8.028  45.236  19.939  0.00  0.00     0.180 C 
HETATM    4  C   UNK     0       7.116  45.606  18.770  0.00  0.00     0.183 C 
HETATM    5  C   UNK     0       5.760  44.908  18.883  0.00  0.00     0.204 C 
HETATM    6  C   UNK     0       5.925  43.416  19.167  0.00  0.00     0.291 C 
ENDROOT
BRANCH   2   7
HETATM    7  C   UNK     0       8.881  43.331  21.369  0.00  0.00     0.205 C 
BRANCH   7   8
HETATM    8  O   UNK     0       7.997  42.805  22.342  0.00  0.00    -0.356 OA
BRANCH   8   9
HETATM    9  C   UNK     0       8.364  43.203  23.659  0.00  0.00     0.290 C 
HETATM   10  O   UNK     0       7.679  42.442  24.660  0.00  0.00    -0.356 OA
HETATM   11  C   UNK     0       6.273  42.677  24.698  0.00  0.00     0.205 C 
HETATM   12  C   UNK     0       5.981  44.141  25.004  0.00  0.00     0.173 C 
HETATM   13  C   UNK     0       6.640  45.050  23.965  0.00  0.00     0.182 C 
HETATM   14  C   UNK     0       8.128  44.711  23.835  0.00  0.00     0.204 C 
BRANCH  12  15
HETATM   15  O   UNK     0       4.580  44.372  25.028  0.00  0.00    -0.391 OA
HETATM   16  H   UNK     0       4.392  45.100  24.410  0.00  0.00     0.210 HD
ENDBRANCH  12  15
BRANCH  13  17
HETATM   17  O   UNK     0       5.996  44.869  22.705  0.00  0.00    -0.390 OA
HETATM   18  H   UNK     0       5.422  45.640  22.556  0.00  0.00     0.210 HD
ENDBRANCH  13  17
BRANCH  14  19
HETATM   19  O   UNK     0       8.814  45.130  25.014  0.00  0.00    -0.388 OA
HETATM   20  H   UNK     0       9.763  45.189  24.812  0.00  0.00     0.210 HD
ENDBRANCH  14  19
ENDBRANCH   8   9
ENDBRANCH   7   8
ENDBRANCH   2   7
BRANCH   6  21
HETATM   21  O   UNK     0       4.629  42.866  19.398  0.00  0.00    -0.355 OA
BRANCH  21  22
HETATM   22  C   UNK     0       4.043  43.403  20.575  0.00  0.00     0.198 C 
BRANCH  22  23
HETATM   23  C   UNK     0       3.484  42.280  21.388  0.00  0.00     0.000 C 
HETATM   24  C   UNK     0       3.193  42.390  22.693  0.00  0.00     0.009 C 
BRANCH  24  25
HETATM   25  C   UNK     0       2.627  41.318  23.531  0.00  0.00    -0.036 A 
HETATM   26  C   UNK     0       2.685  41.432  24.911  0.00  0.00     0.011 A 
HETATM   27  C   UNK     0       2.149  40.417  25.704  0.00  0.00     0.001 A 
HETATM   28  C   UNK     0       1.563  39.301  25.106  0.00  0.00     0.000 A 
HETATM   29  C   UNK     0       1.512  39.200  23.717  0.00  0.00     0.001 A 
HETATM   30  C   UNK     0       2.048  40.215  22.923  0.00  0.00     0.011 A 
ENDBRANCH  24  25
ENDBRANCH  22  23
ENDBRANCH  21  22
ENDBRANCH   6  21
BRANCH   3  31
HETATM   31  O   UNK     0       9.345  45.715  19.681  0.00  0.00    -0.390 OA
HETATM   32  H   UNK     0       9.944  44.949  19.663  0.00  0.00     0.210 HD
ENDBRANCH   3  31
BRANCH   5  33
HETATM   33  O   UNK     0       5.049  45.055  17.654  0.00  0.00    -0.388 OA
HETATM   34  H   UNK     0       4.308  45.665  17.805  0.00  0.00     0.210 HD
ENDBRANCH   5  33
BRANCH   4  35
HETATM   35  O   UNK     0       6.926  47.022  18.789  0.00  0.00    -0.390 OA
HETATM   36  H   UNK     0       6.479  47.244  19.624  0.00  0.00     0.210 HD
ENDBRANCH   4  35
TORSDOF 13
ENDMDL
MODEL 8
REMARK VINA RESULT:      -6.8      3.326      5.318
REMARK  13 active torsions:
REMARK  status: ('A' for Active; 'I' for Inactive)
REMARK    1  A    between atoms: O_2  and  C_16 
REMARK    2  A    between atoms: O_2  and  C_17 
REMARK    3  A    between atoms: O_4  and  C_12 
REMARK    4  A    between atoms: O_5  and  C_13 
REMARK    5  A    between atoms: O_6  and  C_15 
REMARK    6  A    between atoms: O_6  and  C_22 
REMARK    7  A    between atoms: O_7  and  C_14 
REMARK    8  A    between atoms: O_8  and  C_18 
REMARK    9  A    between atoms: O_9  and  C_19 
REMARK   10  A    between atoms: O_10  and  C_20 
REMARK   11  A    between atoms: C_11  and  C_16 
REMARK   12  A    between atoms: C_22  and  C_23 
REMARK   13  A    between atoms: C_24  and  C_25 
ROOT
HETATM    1  O   UNK     0       9.573  43.319  20.547  0.00  0.00    -0.348 OA
HETATM    2  C   UNK     0       8.648  44.205  21.180  0.00  0.00     0.180 C 
HETATM    3  C   UNK     0       7.713  44.818  20.135  0.00  0.00     0.180 C 
HETATM    4  C   UNK     0       8.513  45.519  19.037  0.00  0.00     0.183 C 
HETATM    5  C   UNK     0       9.620  44.615  18.495  0.00  0.00     0.204 C 
HETATM    6  C   UNK     0      10.431  43.990  19.629  0.00  0.00     0.291 C 
ENDROOT
BRANCH   2   7
HETATM    7  C   UNK     0       7.879  43.400  22.224  0.00  0.00     0.205 C 
BRANCH   7   8
HETATM    8  O   UNK     0       6.675  42.939  21.638  0.00  0.00    -0.356 OA
BRANCH   8   9
HETATM    9  C   UNK     0       5.910  42.158  22.551  0.00  0.00     0.290 C 
HETATM   10  O   UNK     0       4.950  41.335  21.878  0.00  0.00    -0.356 OA
HETATM   11  C   UNK     0       3.914  42.072  21.232  0.00  0.00     0.205 C 
HETATM   12  C   UNK     0       3.131  42.898  22.244  0.00  0.00     0.173 C 
HETATM   13  C   UNK     0       4.061  43.848  23.000  0.00  0.00     0.182 C 
HETATM   14  C   UNK     0       5.243  43.072  23.590  0.00  0.00     0.204 C 
BRANCH  12  15
HETATM   15  O   UNK     0       2.109  43.639  21.594  0.00  0.00    -0.391 OA
HETATM   16  H   UNK     0       1.889  44.398  22.162  0.00  0.00     0.210 HD
ENDBRANCH  12  15
BRANCH  13  17
HETATM   17  O   UNK     0       4.545  44.846  22.103  0.00  0.00    -0.390 OA
HETATM   18  H   UNK     0       3.793  45.417  21.867  0.00  0.00     0.210 HD
ENDBRANCH  13  17
BRANCH  14  19
HETATM   19  O   UNK     0       4.783  42.255  24.665  0.00  0.00    -0.388 OA
HETATM   20  H   UNK     0       3.864  41.998  24.483  0.00  0.00     0.210 HD
ENDBRANCH  14  19
ENDBRANCH   8   9
ENDBRANCH   7   8
ENDBRANCH   2   7
BRANCH   6  21
HETATM   21  O   UNK     0      11.345  43.056  19.053  0.00  0.00    -0.355 OA
BRANCH  21  22
HETATM   22  C   UNK     0      12.690  43.474  19.229  0.00  0.00     0.198 C 
BRANCH  22  23
HETATM   23  C   UNK     0      13.432  42.405  19.966  0.00  0.00     0.000 C 
HETATM   24  C   UNK     0      14.634  42.599  20.530  0.00  0.00     0.009 C 
BRANCH  24  25
HETATM   25  C   UNK     0      15.395  41.583  21.277  0.00  0.00    -0.036 A 
HETATM   26  C   UNK     0      16.757  41.453  21.054  0.00  0.00     0.011 A 
HETATM   27  C   UNK     0      17.478  40.491  21.762  0.00  0.00     0.001 A 
HETATM   28  C   UNK     0      16.827  39.672  22.683  0.00  0.00     0.000 A 
HETATM   29  C   UNK     0      15.456  39.813  22.898  0.00  0.00     0.001 A 
HETATM   30  C   UNK     0      14.735  40.775  22.190  0.00  0.00     0.011 A 
ENDBRANCH  24  25
ENDBRANCH  22  23
ENDBRANCH  21  22
ENDBRANCH   6  21
BRANCH   3  31
HETATM   31  O   UNK     0       6.852  45.761  20.768  0.00  0.00    -0.390 OA
HETATM   32  H   UNK     0       7.358  46.580  20.910  0.00  0.00     0.210 HD
ENDBRANCH   3  31
BRANCH   5  33
HETATM   33  O   UNK     0      10.505  45.386  17.683  0.00  0.00    -0.388 OA
HETATM   34  H   UNK     0      10.752  46.185  18.179  0.00  0.00     0.210 HD
ENDBRANCH   5  33
BRANCH   4  35
HETATM   35  O   UNK     0       7.612  45.854  17.980  0.00  0.00    -0.390 OA
HETATM   36  H   UNK     0       7.568  45.089  17.382  0.00  0.00     0.210 HD
ENDBRANCH   4  35
TORSDOF 13
ENDMDL
MODEL 9
REMARK VINA RESULT:      -6.7      3.902      8.749
REMARK  13 active torsions:
REMARK  status: ('A' for Active; 'I' for Inactive)
REMARK    1  A    between atoms: O_2  and  C_16 
REMARK    2  A    between atoms: O_2  and  C_17 
REMARK    3  A    between atoms: O_4  and  C_12 
REMARK    4  A    between atoms: O_5  and  C_13 
REMARK    5  A    between atoms: O_6  and  C_15 
REMARK    6  A    between atoms: O_6  and  C_22 
REMARK    7  A    between atoms: O_7  and  C_14 
REMARK    8  A    between atoms: O_8  and  C_18 
REMARK    9  A    between atoms: O_9  and  C_19 
REMARK   10  A    between atoms: O_10  and  C_20 
REMARK   11  A    between atoms: C_11  and  C_16 
REMARK   12  A    between atoms: C_22  and  C_23 
REMARK   13  A    between atoms: C_24  and  C_25 
ROOT
HETATM    1  O   UNK     0       5.835  42.874  21.381  0.00  0.00    -0.348 OA
HETATM    2  C   UNK     0       7.064  43.039  20.672  0.00  0.00     0.180 C 
HETATM    3  C   UNK     0       6.910  44.126  19.605  0.00  0.00     0.180 C 
HETATM    4  C   UNK     0       5.749  43.802  18.665  0.00  0.00     0.183 C 
HETATM    5  C   UNK     0       4.484  43.449  19.448  0.00  0.00     0.204 C 
HETATM    6  C   UNK     0       4.776  42.423  20.542  0.00  0.00     0.291 C 
ENDROOT
BRANCH   2   7
HETATM    7  C   UNK     0       8.141  43.397  21.692  0.00  0.00     0.205 C 
BRANCH   7   8
HETATM    8  O   UNK     0       9.397  42.992  21.181  0.00  0.00    -0.356 OA
BRANCH   8   9
HETATM    9  C   UNK     0      10.399  43.981  21.397  0.00  0.00     0.290 C 
HETATM   10  O   UNK     0      10.816  44.599  20.175  0.00  0.00    -0.356 OA
HETATM   11  C   UNK     0      11.505  43.717  19.291  0.00  0.00     0.205 C 
HETATM   12  C   UNK     0      12.770  43.180  19.948  0.00  0.00     0.173 C 
HETATM   13  C   UNK     0      12.435  42.460  21.255  0.00  0.00     0.182 C 
HETATM   14  C   UNK     0      11.587  43.366  22.154  0.00  0.00     0.204 C 
BRANCH  12  15
HETATM   15  O   UNK     0      13.446  42.293  19.069  0.00  0.00    -0.391 OA
HETATM   16  H   UNK     0      13.039  41.414  19.167  0.00  0.00     0.210 HD
ENDBRANCH  12  15
BRANCH  13  17
HETATM   17  O   UNK     0      11.713  41.265  20.963  0.00  0.00    -0.390 OA
HETATM   18  H   UNK     0      10.770  41.499  20.908  0.00  0.00     0.210 HD
ENDBRANCH  13  17
BRANCH  14  19
HETATM   19  O   UNK     0      12.394  44.432  22.648  0.00  0.00    -0.388 OA
HETATM   20  H   UNK     0      11.953  44.817  23.424  0.00  0.00     0.210 HD
ENDBRANCH  14  19
ENDBRANCH   8   9
ENDBRANCH   7   8
ENDBRANCH   2   7
BRANCH   6  21
HETATM   21  O   UNK     0       3.588  42.254  21.314  0.00  0.00    -0.355 OA
BRANCH  21  22
HETATM   22  C   UNK     0       3.583  43.106  22.449  0.00  0.00     0.198 C 
BRANCH  22  23
HETATM   23  C   UNK     0       3.207  42.301  23.652  0.00  0.00     0.000 C 
HETATM   24  C   UNK     0       2.466  41.185  23.589  0.00  0.00     0.009 C 
BRANCH  24  25
HETATM   25  C   UNK     0       2.083  40.353  24.743  0.00  0.00    -0.036 A 
HETATM   26  C   UNK     0       1.253  39.260  24.547  0.00  0.00     0.011 A 
HETATM   27  C   UNK     0       0.891  38.472  25.640  0.00  0.00     0.001 A 
HETATM   28  C   UNK     0       1.364  38.787  26.913  0.00  0.00     0.000 A 
HETATM   29  C   UNK     0       2.199  39.889  27.095  0.00  0.00     0.001 A 
HETATM   30  C   UNK     0       2.561  40.677  26.002  0.00  0.00     0.011 A 
ENDBRANCH  24  25
ENDBRANCH  22  23
ENDBRANCH  21  22
ENDBRANCH   6  21
BRANCH   3  31
HETATM   31  O   UNK     0       8.115  44.222  18.851  0.00  0.00    -0.390 OA
HETATM   32  H   UNK     0       8.267  43.364  18.417  0.00  0.00     0.210 HD
ENDBRANCH   3  31
BRANCH   5  33
HETATM   33  O   UNK     0       3.517  42.894  18.558  0.00  0.00    -0.388 OA
HETATM   34  H   UNK     0       3.766  41.972  18.379  0.00  0.00     0.210 HD
ENDBRANCH   5  33
BRANCH   4  35
HETATM   35  O   UNK     0       5.502  44.954  17.855  0.00  0.00    -0.390 OA
HETATM   36  H   UNK     0       5.828  44.755  16.961  0.00  0.00     0.210 HD
ENDBRANCH   4  35
TORSDOF 13
ENDMDL
