MODEL 1
REMARK VINA RESULT:      -7.5      0.000      0.000
REMARK  13 active torsions:
REMARK  status: ('A' for Active; 'I' for Inactive)
REMARK    1  A    between atoms: O_2  and  C_16 
REMARK    2  A    between atoms: O_2  and  C_17 
REMARK    3  A    between atoms: O_4  and  C_12 
REMARK    4  A    between atoms: O_5  and  C_13 
REMARK    5  A    between atoms: O_6  and  C_15 
REMARK    6  A    between atoms: O_6  and  C_22 
REMARK    7  A    between atoms: O_7  and  C_14 
REMARK    8  A    between atoms: O_8  and  C_18 
REMARK    9  A    between atoms: O_9  and  C_19 
REMARK   10  A    between atoms: O_10  and  C_20 
REMARK   11  A    between atoms: C_11  and  C_16 
REMARK   12  A    between atoms: C_22  and  C_23 
REMARK   13  A    between atoms: C_24  and  C_25 
ROOT
HETATM    1  O   UNK     0       8.552  43.066  23.250  0.00  0.00    -0.348 OA
HETATM    2  C   UNK     0       7.581  43.935  23.836  0.00  0.00     0.180 C 
HETATM    3  C   UNK     0       8.126  45.364  23.897  0.00  0.00     0.180 C 
HETATM    4  C   UNK     0       9.455  45.405  24.651  0.00  0.00     0.183 C 
HETATM    5  C   UNK     0      10.422  44.342  24.129  0.00  0.00     0.204 C 
HETATM    6  C   UNK     0       9.744  42.976  24.026  0.00  0.00     0.291 C 
ENDROOT
BRANCH   2   7
HETATM    7  C   UNK     0       6.315  43.849  22.988  0.00  0.00     0.205 C 
BRANCH   7   8
HETATM    8  O   UNK     0       6.282  44.962  22.114  0.00  0.00    -0.356 OA
BRANCH   8   9
HETATM    9  C   UNK     0       6.363  44.565  20.749  0.00  0.00     0.290 C 
HETATM   10  O   UNK     0       7.652  44.835  20.187  0.00  0.00    -0.356 OA
HETATM   11  C   UNK     0       7.949  46.225  20.073  0.00  0.00     0.205 C 
HETATM   12  C   UNK     0       6.938  46.918  19.169  0.00  0.00     0.173 C 
HETATM   13  C   UNK     0       5.517  46.725  19.701  0.00  0.00     0.182 C 
HETATM   14  C   UNK     0       5.241  45.237  19.942  0.00  0.00     0.204 C 
BRANCH  12  15
HETATM   15  O   UNK     0       7.231  48.304  19.069  0.00  0.00    -0.391 OA
HETATM   16  H   UNK     0       7.409  48.500  18.132  0.00  0.00     0.210 HD
ENDBRANCH  12  15
BRANCH  13  17
HETATM   17  O   UNK     0       5.371  47.442  20.926  0.00  0.00    -0.390 OA
HETATM   18  H   UNK     0       5.139  46.797  21.616  0.00  0.00     0.210 HD
ENDBRANCH  13  17
BRANCH  14  19
HETATM   19  O   UNK     0       5.138  44.566  18.687  0.00  0.00    -0.388 OA
HETATM   20  H   UNK     0       4.217  44.280  18.567  0.00  0.00     0.210 HD
ENDBRANCH  14  19
ENDBRANCH   8   9
ENDBRANCH   7   8
ENDBRANCH   2   7
BRANCH   6  21
HETATM   21  O   UNK     0      10.659  42.077  23.403  0.00  0.00    -0.355 OA
BRANCH  21  22
HETATM   22  C   UNK     0      10.201  41.682  22.119  0.00  0.00     0.198 C 
BRANCH  22  23
HETATM   23  C   UNK     0      11.071  42.317  21.082  0.00  0.00     0.000 C 
HETATM   24  C   UNK     0      10.606  43.153  20.141  0.00  0.00     0.009 C 
BRANCH  24  25
HETATM   25  C   UNK     0      11.426  43.814  19.111  0.00  0.00    -0.036 A 
HETATM   26  C   UNK     0      10.810  44.620  18.167  0.00  0.00     0.011 A 
HETATM   27  C   UNK     0      11.586  45.246  17.191  0.00  0.00     0.001 A 
HETATM   28  C   UNK     0      12.968  45.056  17.172  0.00  0.00     0.000 A 
HETATM   29  C   UNK     0      13.574  44.242  18.129  0.00  0.00     0.001 A 
HETATM   30  C   UNK     0      12.798  43.617  19.105  0.00  0.00     0.011 A 
ENDBRANCH  24  25
ENDBRANCH  22  23
ENDBRANCH  21  22
ENDBRANCH   6  21
BRANCH   3  31
HETATM   31  O   UNK     0       7.182  46.201  24.557  0.00  0.00    -0.390 OA
HETATM   32  H   UNK     0       6.896  45.748  25.370  0.00  0.00     0.210 HD
ENDBRANCH   3  31
BRANCH   5  33
HETATM   33  O   UNK     0      11.527  44.228  25.024  0.00  0.00    -0.388 OA
HETATM   34  H   UNK     0      11.528  45.008  25.604  0.00  0.00     0.210 HD
ENDBRANCH   5  33
BRANCH   4  35
HETATM   35  O   UNK     0      10.027  46.701  24.466  0.00  0.00    -0.390 OA
HETATM   36  H   UNK     0      10.645  46.853  25.201  0.00  0.00     0.210 HD
ENDBRANCH   4  35
TORSDOF 13
ENDMDL
MODEL 2
REMARK VINA RESULT:      -7.3      3.139      7.993
REMARK  13 active torsions:
REMARK  status: ('A' for Active; 'I' for Inactive)
REMARK    1  A    between atoms: O_2  and  C_16 
REMARK    2  A    between atoms: O_2  and  C_17 
REMARK    3  A    between atoms: O_4  and  C_12 
REMARK    4  A    between atoms: O_5  and  C_13 
REMARK    5  A    between atoms: O_6  and  C_15 
REMARK    6  A    between atoms: O_6  and  C_22 
REMARK    7  A    between atoms: O_7  and  C_14 
REMARK    8  A    between atoms: O_8  and  C_18 
REMARK    9  A    between atoms: O_9  and  C_19 
REMARK   10  A    between atoms: O_10  and  C_20 
REMARK   11  A    between atoms: C_11  and  C_16 
REMARK   12  A    between atoms: C_22  and  C_23 
REMARK   13  A    between atoms: C_24  and  C_25 
ROOT
HETATM    1  O   UNK     0       6.965  44.150  21.217  0.00  0.00    -0.348 OA
HETATM    2  C   UNK     0       8.327  44.460  20.917  0.00  0.00     0.180 C 
HETATM    3  C   UNK     0       8.447  45.924  20.486  0.00  0.00     0.180 C 
HETATM    4  C   UNK     0       7.524  46.219  19.305  0.00  0.00     0.183 C 
HETATM    5  C   UNK     0       6.105  45.715  19.572  0.00  0.00     0.204 C 
HETATM    6  C   UNK     0       6.113  44.275  20.081  0.00  0.00     0.291 C 
ENDROOT
BRANCH   2   7
HETATM    7  C   UNK     0       9.151  44.169  22.168  0.00  0.00     0.205 C 
BRANCH   7   8
HETATM    8  O   UNK     0      10.524  44.269  21.835  0.00  0.00    -0.356 OA
BRANCH   8   9
HETATM    9  C   UNK     0      11.238  43.087  22.182  0.00  0.00     0.290 C 
HETATM   10  O   UNK     0      12.516  43.382  22.757  0.00  0.00    -0.356 OA
HETATM   11  C   UNK     0      13.432  43.983  21.844  0.00  0.00     0.205 C 
HETATM   12  C   UNK     0      13.701  43.057  20.665  0.00  0.00     0.173 C 
HETATM   13  C   UNK     0      12.397  42.704  19.948  0.00  0.00     0.182 C 
HETATM   14  C   UNK     0      11.369  42.174  20.952  0.00  0.00     0.204 C 
BRANCH  12  15
HETATM   15  O   UNK     0      14.604  43.665  19.753  0.00  0.00    -0.391 OA
HETATM   16  H   UNK     0      14.308  43.442  18.853  0.00  0.00     0.210 HD
ENDBRANCH  12  15
BRANCH  13  17
HETATM   17  O   UNK     0      11.882  43.870  19.307  0.00  0.00    -0.390 OA
HETATM   18  H   UNK     0      12.091  43.801  18.360  0.00  0.00     0.210 HD
ENDBRANCH  13  17
BRANCH  14  19
HETATM   19  O   UNK     0      11.770  40.882  21.403  0.00  0.00    -0.388 OA
HETATM   20  H   UNK     0      12.360  40.494  20.735  0.00  0.00     0.210 HD
ENDBRANCH  14  19
ENDBRANCH   8   9
ENDBRANCH   7   8
ENDBRANCH   2   7
BRANCH   6  21
HETATM   21  O   UNK     0       4.777  43.927  20.440  0.00  0.00    -0.355 OA
BRANCH  21  22
HETATM   22  C   UNK     0       4.277  44.780  21.459  0.00  0.00     0.198 C 
BRANCH  22  23
HETATM   23  C   UNK     0       3.853  43.941  22.622  0.00  0.00     0.000 C 
HETATM   24  C   UNK     0       3.295  42.728  22.491  0.00  0.00     0.009 C 
BRANCH  24  25
HETATM   25  C   UNK     0       2.876  41.861  23.605  0.00  0.00    -0.036 A 
HETATM   26  C   UNK     0       3.331  42.133  24.886  0.00  0.00     0.011 A 
HETATM   27  C   UNK     0       2.935  41.312  25.942  0.00  0.00     0.001 A 
HETATM   28  C   UNK     0       2.087  40.230  25.703  0.00  0.00     0.000 A 
HETATM   29  C   UNK     0       1.637  39.968  24.409  0.00  0.00     0.001 A 
HETATM   30  C   UNK     0       2.034  40.789  23.353  0.00  0.00     0.011 A 
ENDBRANCH  24  25
ENDBRANCH  22  23
ENDBRANCH  21  22
ENDBRANCH   6  21
BRANCH   3  31
HETATM   31  O   UNK     0       9.795  46.196  20.111  0.00  0.00    -0.390 OA
HETATM   32  H   UNK     0      10.026  47.081  20.443  0.00  0.00     0.210 HD
ENDBRANCH   3  31
BRANCH   5  33
HETATM   33  O   UNK     0       5.352  45.759  18.360  0.00  0.00    -0.388 OA
HETATM   34  H   UNK     0       4.673  46.448  18.451  0.00  0.00     0.210 HD
ENDBRANCH   5  33
BRANCH   4  35
HETATM   35  O   UNK     0       7.497  47.634  19.109  0.00  0.00    -0.390 OA
HETATM   36  H   UNK     0       6.806  47.996  19.690  0.00  0.00     0.210 HD
ENDBRANCH   4  35
TORSDOF 13
ENDMDL
MODEL 3
REMARK VINA RESULT:      -7.2      2.793      7.713
REMARK  13 active torsions:
REMARK  status: ('A' for Active; 'I' for Inactive)
REMARK    1  A    between atoms: O_2  and  C_16 
REMARK    2  A    between atoms: O_2  and  C_17 
REMARK    3  A    between atoms: O_4  and  C_12 
REMARK    4  A    between atoms: O_5  and  C_13 
REMARK    5  A    between atoms: O_6  and  C_15 
REMARK    6  A    between atoms: O_6  and  C_22 
REMARK    7  A    between atoms: O_7  and  C_14 
REMARK    8  A    between atoms: O_8  and  C_18 
REMARK    9  A    between atoms: O_9  and  C_19 
REMARK   10  A    between atoms: O_10  and  C_20 
REMARK   11  A    between atoms: C_11  and  C_16 
REMARK   12  A    between atoms: C_22  and  C_23 
REMARK   13  A    between atoms: C_24  and  C_25 
ROOT
HETATM    1  O   UNK     0       7.382  43.508  20.224  0.00  0.00    -0.348 OA
HETATM    2  C   UNK     0       8.631  43.888  19.645  0.00  0.00     0.180 C 
HETATM    3  C   UNK     0       8.793  45.409  19.705  0.00  0.00     0.180 C 
HETATM    4  C   UNK     0       7.616  46.107  19.027  0.00  0.00     0.183 C 
HETATM    5  C   UNK     0       6.281  45.557  19.530  0.00  0.00     0.204 C 
HETATM    6  C   UNK     0       6.266  44.030  19.508  0.00  0.00     0.291 C 
ENDROOT
BRANCH   2   7
HETATM    7  C   UNK     0       9.734  43.170  20.417  0.00  0.00     0.205 C 
BRANCH   7   8
HETATM    8  O   UNK     0      10.264  44.063  21.380  0.00  0.00    -0.356 OA
BRANCH   8   9
HETATM    9  C   UNK     0      10.338  43.465  22.670  0.00  0.00     0.290 C 
HETATM   10  O   UNK     0       9.047  43.086  23.161  0.00  0.00    -0.356 OA
HETATM   11  C   UNK     0       8.188  44.192  23.433  0.00  0.00     0.205 C 
HETATM   12  C   UNK     0       8.798  45.095  24.497  0.00  0.00     0.173 C 
HETATM   13  C   UNK     0      10.176  45.593  24.057  0.00  0.00     0.182 C 
HETATM   14  C   UNK     0      11.058  44.410  23.644  0.00  0.00     0.204 C 
BRANCH  12  15
HETATM   15  O   UNK     0       7.946  46.201  24.756  0.00  0.00    -0.391 OA
HETATM   16  H   UNK     0       8.444  47.011  24.549  0.00  0.00     0.210 HD
ENDBRANCH  12  15
BRANCH  13  17
HETATM   17  O   UNK     0      10.024  46.484  22.953  0.00  0.00    -0.390 OA
HETATM   18  H   UNK     0       9.694  47.330  23.302  0.00  0.00     0.210 HD
ENDBRANCH  13  17
BRANCH  14  19
HETATM   19  O   UNK     0      11.415  43.660  24.803  0.00  0.00    -0.388 OA
HETATM   20  H   UNK     0      11.607  42.747  24.531  0.00  0.00     0.210 HD
ENDBRANCH  14  19
ENDBRANCH   8   9
ENDBRANCH   7   8
ENDBRANCH   2   7
BRANCH   6  21
HETATM   21  O   UNK     0       5.053  43.593  20.121  0.00  0.00    -0.355 OA
BRANCH  21  22
HETATM   22  C   UNK     0       4.901  44.147  21.419  0.00  0.00     0.198 C 
BRANCH  22  23
HETATM   23  C   UNK     0       4.489  43.060  22.360  0.00  0.00     0.000 C 
HETATM   24  C   UNK     0       3.250  42.951  22.862  0.00  0.00     0.009 C 
BRANCH  24  25
HETATM   25  C   UNK     0       2.794  41.891  23.778  0.00  0.00    -0.036 A 
HETATM   26  C   UNK     0       2.012  40.858  23.286  0.00  0.00     0.011 A 
HETATM   27  C   UNK     0       1.581  39.854  24.154  0.00  0.00     0.001 A 
HETATM   28  C   UNK     0       1.939  39.896  25.501  0.00  0.00     0.000 A 
HETATM   29  C   UNK     0       2.726  40.942  25.982  0.00  0.00     0.001 A 
HETATM   30  C   UNK     0       3.158  41.946  25.114  0.00  0.00     0.011 A 
ENDBRANCH  24  25
ENDBRANCH  22  23
ENDBRANCH  21  22
ENDBRANCH   6  21
BRANCH   3  31
HETATM   31  O   UNK     0      10.004  45.780  19.050  0.00  0.00    -0.390 OA
HETATM   32  H   UNK     0      10.712  45.800  19.718  0.00  0.00     0.210 HD
ENDBRANCH   3  31
BRANCH   5  33
HETATM   33  O   UNK     0       5.228  46.029  18.690  0.00  0.00    -0.388 OA
HETATM   34  H   UNK     0       4.703  46.672  19.195  0.00  0.00     0.210 HD
ENDBRANCH   5  33
BRANCH   4  35
HETATM   35  O   UNK     0       7.699  47.502  19.325  0.00  0.00    -0.390 OA
HETATM   36  H   UNK     0       7.146  47.666  20.107  0.00  0.00     0.210 HD
ENDBRANCH   4  35
TORSDOF 13
ENDMDL
MODEL 4
REMARK VINA RESULT:      -7.2      2.282      7.386
REMARK  13 active torsions:
REMARK  status: ('A' for Active; 'I' for Inactive)
REMARK    1  A    between atoms: O_2  and  C_16 
REMARK    2  A    between atoms: O_2  and  C_17 
REMARK    3  A    between atoms: O_4  and  C_12 
REMARK    4  A    between atoms: O_5  and  C_13 
REMARK    5  A    between atoms: O_6  and  C_15 
REMARK    6  A    between atoms: O_6  and  C_22 
REMARK    7  A    between atoms: O_7  and  C_14 
REMARK    8  A    between atoms: O_8  and  C_18 
REMARK    9  A    between atoms: O_9  and  C_19 
REMARK   10  A    between atoms: O_10  and  C_20 
REMARK   11  A    between atoms: C_11  and  C_16 
REMARK   12  A    between atoms: C_22  and  C_23 
REMARK   13  A    between atoms: C_24  and  C_25 
ROOT
HETATM    1  O   UNK     0       7.999  44.160  21.036  0.00  0.00    -0.348 OA
HETATM    2  C   UNK     0       8.865  43.169  20.479  0.00  0.00     0.180 C 
HETATM    3  C   UNK     0       9.948  43.840  19.631  0.00  0.00     0.180 C 
HETATM    4  C   UNK     0       9.323  44.721  18.551  0.00  0.00     0.183 C 
HETATM    5  C   UNK     0       8.264  45.653  19.141  0.00  0.00     0.204 C 
HETATM    6  C   UNK     0       7.291  44.891  20.039  0.00  0.00     0.291 C 
ENDROOT
BRANCH   2   7
HETATM    7  C   UNK     0       9.463  42.377  21.638  0.00  0.00     0.205 C 
BRANCH   7   8
HETATM    8  O   UNK     0       9.475  43.201  22.789  0.00  0.00    -0.356 OA
BRANCH   8   9
HETATM    9  C   UNK     0      10.758  43.226  23.407  0.00  0.00     0.290 C 
HETATM   10  O   UNK     0      10.674  43.520  24.805  0.00  0.00    -0.356 OA
HETATM   11  C   UNK     0      10.221  44.842  25.089  0.00  0.00     0.205 C 
HETATM   12  C   UNK     0      11.171  45.874  24.495  0.00  0.00     0.173 C 
HETATM   13  C   UNK     0      11.307  45.676  22.984  0.00  0.00     0.182 C 
HETATM   14  C   UNK     0      11.672  44.220  22.674  0.00  0.00     0.204 C 
BRANCH  12  15
HETATM   15  O   UNK     0      10.709  47.189  24.769  0.00  0.00    -0.391 OA
HETATM   16  H   UNK     0      10.328  47.186  25.664  0.00  0.00     0.210 HD
ENDBRANCH  12  15
BRANCH  13  17
HETATM   17  O   UNK     0      10.070  46.003  22.353  0.00  0.00    -0.390 OA
HETATM   18  H   UNK     0      10.231  46.766  21.772  0.00  0.00     0.210 HD
ENDBRANCH  13  17
BRANCH  14  19
HETATM   19  O   UNK     0      13.015  43.971  23.086  0.00  0.00    -0.388 OA
HETATM   20  H   UNK     0      13.367  43.236  22.557  0.00  0.00     0.210 HD
ENDBRANCH  14  19
ENDBRANCH   8   9
ENDBRANCH   7   8
ENDBRANCH   2   7
BRANCH   6  21
HETATM   21  O   UNK     0       6.428  45.842  20.659  0.00  0.00    -0.355 OA
BRANCH  21  22
HETATM   22  C   UNK     0       5.064  45.562  20.380  0.00  0.00     0.198 C 
BRANCH  22  23
HETATM   23  C   UNK     0       4.568  44.557  21.369  0.00  0.00     0.000 C 
HETATM   24  C   UNK     0       4.668  44.719  22.698  0.00  0.00     0.009 C 
BRANCH  24  25
HETATM   25  C   UNK     0       4.181  43.765  23.709  0.00  0.00    -0.036 A 
HETATM   26  C   UNK     0       4.524  43.951  25.039  0.00  0.00     0.011 A 
HETATM   27  C   UNK     0       4.063  43.048  25.997  0.00  0.00     0.001 A 
HETATM   28  C   UNK     0       3.264  41.972  25.612  0.00  0.00     0.000 A 
HETATM   29  C   UNK     0       2.926  41.798  24.270  0.00  0.00     0.001 A 
HETATM   30  C   UNK     0       3.388  42.701  23.312  0.00  0.00     0.011 A 
ENDBRANCH  24  25
ENDBRANCH  22  23
ENDBRANCH  21  22
ENDBRANCH   6  21
BRANCH   3  31
HETATM   31  O   UNK     0      10.753  42.838  19.016  0.00  0.00    -0.390 OA
HETATM   32  H   UNK     0      10.194  42.350  18.386  0.00  0.00     0.210 HD
ENDBRANCH   3  31
BRANCH   5  33
HETATM   33  O   UNK     0       7.519  46.254  18.081  0.00  0.00    -0.388 OA
HETATM   34  H   UNK     0       6.895  46.888  18.472  0.00  0.00     0.210 HD
ENDBRANCH   5  33
BRANCH   4  35
HETATM   35  O   UNK     0      10.365  45.499  17.958  0.00  0.00    -0.390 OA
HETATM   36  H   UNK     0       9.969  46.010  17.231  0.00  0.00     0.210 HD
ENDBRANCH   4  35
TORSDOF 13
ENDMDL
MODEL 5
REMARK VINA RESULT:      -7.2      3.042      5.197
REMARK  13 active torsions:
REMARK  status: ('A' for Active; 'I' for Inactive)
REMARK    1  A    between atoms: O_2  and  C_16 
REMARK    2  A    between atoms: O_2  and  C_17 
REMARK    3  A    between atoms: O_4  and  C_12 
REMARK    4  A    between atoms: O_5  and  C_13 
REMARK    5  A    between atoms: O_6  and  C_15 
REMARK    6  A    between atoms: O_6  and  C_22 
REMARK    7  A    between atoms: O_7  and  C_14 
REMARK    8  A    between atoms: O_8  and  C_18 
REMARK    9  A    between atoms: O_9  and  C_19 
REMARK   10  A    between atoms: O_10  and  C_20 
REMARK   11  A    between atoms: C_11  and  C_16 
REMARK   12  A    between atoms: C_22  and  C_23 
REMARK   13  A    between atoms: C_24  and  C_25 
ROOT
HETATM    1  O   UNK     0       7.969  43.647  19.981  0.00  0.00    -0.348 OA
HETATM    2  C   UNK     0       6.609  44.065  19.859  0.00  0.00     0.180 C 
HETATM    3  C   UNK     0       6.530  45.359  19.046  0.00  0.00     0.180 C 
HETATM    4  C   UNK     0       7.405  46.445  19.669  0.00  0.00     0.183 C 
HETATM    5  C   UNK     0       8.813  45.923  19.961  0.00  0.00     0.204 C 
HETATM    6  C   UNK     0       8.767  44.585  20.697  0.00  0.00     0.291 C 
ENDROOT
BRANCH   2   7
HETATM    7  C   UNK     0       5.836  42.930  19.193  0.00  0.00     0.205 C 
BRANCH   7   8
HETATM    8  O   UNK     0       4.592  42.784  19.853  0.00  0.00    -0.356 OA
BRANCH   8   9
HETATM    9  C   UNK     0       4.702  43.044  21.249  0.00  0.00     0.290 C 
HETATM   10  O   UNK     0       4.937  41.847  22.000  0.00  0.00    -0.356 OA
HETATM   11  C   UNK     0       3.841  40.936  21.988  0.00  0.00     0.205 C 
HETATM   12  C   UNK     0       2.601  41.580  22.595  0.00  0.00     0.173 C 
HETATM   13  C   UNK     0       2.232  42.858  21.839  0.00  0.00     0.182 C 
HETATM   14  C   UNK     0       3.450  43.784  21.743  0.00  0.00     0.204 C 
BRANCH  12  15
HETATM   15  O   UNK     0       1.509  40.673  22.569  0.00  0.00    -0.391 OA
HETATM   16  H   UNK     0       0.965  40.845  23.357  0.00  0.00     0.210 HD
ENDBRANCH  12  15
BRANCH  13  17
HETATM   17  O   UNK     0       1.787  42.517  20.527  0.00  0.00    -0.390 OA
HETATM   18  H   UNK     0       2.492  41.997  20.104  0.00  0.00     0.210 HD
ENDBRANCH  13  17
BRANCH  14  19
HETATM   19  O   UNK     0       3.736  44.323  23.032  0.00  0.00    -0.388 OA
HETATM   20  H   UNK     0       4.536  44.870  22.965  0.00  0.00     0.210 HD
ENDBRANCH  14  19
ENDBRANCH   8   9
ENDBRANCH   7   8
ENDBRANCH   2   7
BRANCH   6  21
HETATM   21  O   UNK     0      10.104  44.098  20.806  0.00  0.00    -0.355 OA
BRANCH  21  22
HETATM   22  C   UNK     0      10.531  43.487  19.598  0.00  0.00     0.198 C 
BRANCH  22  23
HETATM   23  C   UNK     0      11.858  42.837  19.831  0.00  0.00     0.000 C 
HETATM   24  C   UNK     0      12.307  42.497  21.049  0.00  0.00     0.009 C 
BRANCH  24  25
HETATM   25  C   UNK     0      13.598  41.842  21.325  0.00  0.00    -0.036 A 
HETATM   26  C   UNK     0      13.659  40.835  22.274  0.00  0.00     0.011 A 
HETATM   27  C   UNK     0      14.881  40.215  22.537  0.00  0.00     0.001 A 
HETATM   28  C   UNK     0      16.025  40.611  21.845  0.00  0.00     0.000 A 
HETATM   29  C   UNK     0      15.949  41.626  20.892  0.00  0.00     0.001 A 
HETATM   30  C   UNK     0      14.727  42.246  20.630  0.00  0.00     0.011 A 
ENDBRANCH  24  25
ENDBRANCH  22  23
ENDBRANCH  21  22
ENDBRANCH   6  21
BRANCH   3  31
HETATM   31  O   UNK     0       5.178  45.808  19.003  0.00  0.00    -0.390 OA
HETATM   32  H   UNK     0       4.613  45.039  18.811  0.00  0.00     0.210 HD
ENDBRANCH   3  31
BRANCH   5  33
HETATM   33  O   UNK     0       9.505  46.864  20.782  0.00  0.00    -0.388 OA
HETATM   34  H   UNK     0       8.859  47.511  21.110  0.00  0.00     0.210 HD
ENDBRANCH   5  33
BRANCH   4  35
HETATM   35  O   UNK     0       7.483  47.534  18.747  0.00  0.00    -0.390 OA
HETATM   36  H   UNK     0       7.195  48.335  19.217  0.00  0.00     0.210 HD
ENDBRANCH   4  35
TORSDOF 13
ENDMDL
MODEL 6
REMARK VINA RESULT:      -7.0      2.922      8.004
REMARK  13 active torsions:
REMARK  status: ('A' for Active; 'I' for Inactive)
REMARK    1  A    between atoms: O_2  and  C_16 
REMARK    2  A    between atoms: O_2  and  C_17 
REMARK    3  A    between atoms: O_4  and  C_12 
REMARK    4  A    between atoms: O_5  and  C_13 
REMARK    5  A    between atoms: O_6  and  C_15 
REMARK    6  A    between atoms: O_6  and  C_22 
REMARK    7  A    between atoms: O_7  and  C_14 
REMARK    8  A    between atoms: O_8  and  C_18 
REMARK    9  A    between atoms: O_9  and  C_19 
REMARK   10  A    between atoms: O_10  and  C_20 
REMARK   11  A    between atoms: C_11  and  C_16 
REMARK   12  A    between atoms: C_22  and  C_23 
REMARK   13  A    between atoms: C_24  and  C_25 
ROOT
HETATM    1  O   UNK     0       6.816  44.182  21.159  0.00  0.00    -0.348 OA
HETATM    2  C   UNK     0       8.158  44.320  20.690  0.00  0.00     0.180 C 
HETATM    3  C   UNK     0       8.435  45.780  20.321  0.00  0.00     0.180 C 
HETATM    4  C   UNK     0       7.419  46.283  19.296  0.00  0.00     0.183 C 
HETATM    5  C   UNK     0       5.989  45.963  19.731  0.00  0.00     0.204 C 
HETATM    6  C   UNK     0       5.852  44.503  20.160  0.00  0.00     0.291 C 
ENDROOT
BRANCH   2   7
HETATM    7  C   UNK     0       9.086  43.830  21.797  0.00  0.00     0.205 C 
BRANCH   7   8
HETATM    8  O   UNK     0       9.745  44.950  22.360  0.00  0.00    -0.356 OA
BRANCH   8   9
HETATM    9  C   UNK     0       9.324  45.193  23.698  0.00  0.00     0.290 C 
HETATM   10  O   UNK     0      10.021  46.296  24.288  0.00  0.00    -0.356 OA
HETATM   11  C   UNK     0      11.412  46.057  24.490  0.00  0.00     0.205 C 
HETATM   12  C   UNK     0      11.622  44.873  25.426  0.00  0.00     0.173 C 
HETATM   13  C   UNK     0      10.947  43.619  24.870  0.00  0.00     0.182 C 
HETATM   14  C   UNK     0       9.480  43.914  24.535  0.00  0.00     0.204 C 
BRANCH  12  15
HETATM   15  O   UNK     0      13.009  44.631  25.613  0.00  0.00    -0.391 OA
HETATM   16  H   UNK     0      13.483  45.454  25.400  0.00  0.00     0.210 HD
ENDBRANCH  12  15
BRANCH  13  17
HETATM   17  O   UNK     0      11.630  43.199  23.690  0.00  0.00    -0.390 OA
HETATM   18  H   UNK     0      12.561  43.046  23.930  0.00  0.00     0.210 HD
ENDBRANCH  13  17
BRANCH  14  19
HETATM   19  O   UNK     0       8.745  44.086  25.745  0.00  0.00    -0.388 OA
HETATM   20  H   UNK     0       9.141  44.820  26.244  0.00  0.00     0.210 HD
ENDBRANCH  14  19
ENDBRANCH   8   9
ENDBRANCH   7   8
ENDBRANCH   2   7
BRANCH   6  21
HETATM   21  O   UNK     0       4.536  44.320  20.683  0.00  0.00    -0.355 OA
BRANCH  21  22
HETATM   22  C   UNK     0       3.988  43.075  20.278  0.00  0.00     0.198 C 
BRANCH  22  23
HETATM   23  C   UNK     0       3.778  42.226  21.490  0.00  0.00     0.000 C 
HETATM   24  C   UNK     0       2.950  42.563  22.492  0.00  0.00     0.009 C 
BRANCH  24  25
HETATM   25  C   UNK     0       2.700  41.753  23.696  0.00  0.00    -0.036 A 
HETATM   26  C   UNK     0       1.923  40.610  23.597  0.00  0.00     0.011 A 
HETATM   27  C   UNK     0       1.685  39.843  24.737  0.00  0.00     0.001 A 
HETATM   28  C   UNK     0       2.229  40.228  25.962  0.00  0.00     0.000 A 
HETATM   29  C   UNK     0       3.010  41.381  26.047  0.00  0.00     0.001 A 
HETATM   30  C   UNK     0       3.247  42.149  24.907  0.00  0.00     0.011 A 
ENDBRANCH  24  25
ENDBRANCH  22  23
ENDBRANCH  21  22
ENDBRANCH   6  21
BRANCH   3  31
HETATM   31  O   UNK     0       9.748  45.888  19.777  0.00  0.00    -0.390 OA
HETATM   32  H   UNK     0      10.245  46.526  20.319  0.00  0.00     0.210 HD
ENDBRANCH   3  31
BRANCH   5  33
HETATM   33  O   UNK     0       5.099  46.195  18.639  0.00  0.00    -0.388 OA
HETATM   34  H   UNK     0       4.270  46.554  18.997  0.00  0.00     0.210 HD
ENDBRANCH   5  33
BRANCH   4  35
HETATM   35  O   UNK     0       7.576  47.698  19.177  0.00  0.00    -0.390 OA
HETATM   36  H   UNK     0       7.978  47.874  18.310  0.00  0.00     0.210 HD
ENDBRANCH   4  35
TORSDOF 13
ENDMDL
MODEL 7
REMARK VINA RESULT:      -7.0      2.679      7.711
REMARK  13 active torsions:
REMARK  status: ('A' for Active; 'I' for Inactive)
REMARK    1  A    between atoms: O_2  and  C_16 
REMARK    2  A    between atoms: O_2  and  C_17 
REMARK    3  A    between atoms: O_4  and  C_12 
REMARK    4  A    between atoms: O_5  and  C_13 
REMARK    5  A    between atoms: O_6  and  C_15 
REMARK    6  A    between atoms: O_6  and  C_22 
REMARK    7  A    between atoms: O_7  and  C_14 
REMARK    8  A    between atoms: O_8  and  C_18 
REMARK    9  A    between atoms: O_9  and  C_19 
REMARK   10  A    between atoms: O_10  and  C_20 
REMARK   11  A    between atoms: C_11  and  C_16 
REMARK   12  A    between atoms: C_22  and  C_23 
REMARK   13  A    between atoms: C_24  and  C_25 
ROOT
HETATM    1  O   UNK     0       7.069  44.583  21.273  0.00  0.00    -0.348 OA
HETATM    2  C   UNK     0       7.809  44.418  20.062  0.00  0.00     0.180 C 
HETATM    3  C   UNK     0       8.232  45.785  19.518  0.00  0.00     0.180 C 
HETATM    4  C   UNK     0       7.016  46.690  19.322  0.00  0.00     0.183 C 
HETATM    5  C   UNK     0       6.135  46.712  20.571  0.00  0.00     0.204 C 
HETATM    6  C   UNK     0       5.852  45.298  21.076  0.00  0.00     0.291 C 
ENDROOT
BRANCH   2   7
HETATM    7  C   UNK     0       9.015  43.537  20.376  0.00  0.00     0.205 C 
BRANCH   7   8
HETATM    8  O   UNK     0       9.134  43.421  21.782  0.00  0.00    -0.356 OA
BRANCH   8   9
HETATM    9  C   UNK     0      10.463  43.093  22.174  0.00  0.00     0.290 C 
HETATM   10  O   UNK     0      10.547  42.769  23.566  0.00  0.00    -0.356 OA
HETATM   11  C   UNK     0      10.285  43.873  24.430  0.00  0.00     0.205 C 
HETATM   12  C   UNK     0      11.292  44.991  24.192  0.00  0.00     0.173 C 
HETATM   13  C   UNK     0      11.259  45.445  22.732  0.00  0.00     0.182 C 
HETATM   14  C   UNK     0      11.416  44.239  21.801  0.00  0.00     0.204 C 
BRANCH  12  15
HETATM   15  O   UNK     0      11.018  46.093  25.046  0.00  0.00    -0.391 OA
HETATM   16  H   UNK     0      10.113  45.984  25.386  0.00  0.00     0.210 HD
ENDBRANCH  12  15
BRANCH  13  17
HETATM   17  O   UNK     0      10.016  46.094  22.468  0.00  0.00    -0.390 OA
HETATM   18  H   UNK     0      10.089  46.524  21.598  0.00  0.00     0.210 HD
ENDBRANCH  13  17
BRANCH  14  19
HETATM   19  O   UNK     0      12.752  43.746  21.886  0.00  0.00    -0.388 OA
HETATM   20  H   UNK     0      12.950  43.556  22.818  0.00  0.00     0.210 HD
ENDBRANCH  14  19
ENDBRANCH   8   9
ENDBRANCH   7   8
ENDBRANCH   2   7
BRANCH   6  21
HETATM   21  O   UNK     0       5.150  45.405  22.314  0.00  0.00    -0.355 OA
BRANCH  21  22
HETATM   22  C   UNK     0       5.941  44.943  23.398  0.00  0.00     0.198 C 
BRANCH  22  23
HETATM   23  C   UNK     0       5.220  43.822  24.075  0.00  0.00     0.000 C 
HETATM   24  C   UNK     0       4.040  43.342  23.651  0.00  0.00     0.009 C 
BRANCH  24  25
HETATM   25  C   UNK     0       3.301  42.231  24.276  0.00  0.00    -0.036 A 
HETATM   26  C   UNK     0       3.402  42.032  25.643  0.00  0.00     0.011 A 
HETATM   27  C   UNK     0       2.703  40.980  26.235  0.00  0.00     0.001 A 
HETATM   28  C   UNK     0       1.910  40.142  25.451  0.00  0.00     0.000 A 
HETATM   29  C   UNK     0       1.818  40.355  24.076  0.00  0.00     0.001 A 
HETATM   30  C   UNK     0       2.517  41.407  23.484  0.00  0.00     0.011 A 
ENDBRANCH  24  25
ENDBRANCH  22  23
ENDBRANCH  21  22
ENDBRANCH   6  21
BRANCH   3  31
HETATM   31  O   UNK     0       8.896  45.610  18.269  0.00  0.00    -0.390 OA
HETATM   32  H   UNK     0       9.853  45.577  18.441  0.00  0.00     0.210 HD
ENDBRANCH   3  31
BRANCH   5  33
HETATM   33  O   UNK     0       4.889  47.335  20.261  0.00  0.00    -0.388 OA
HETATM   34  H   UNK     0       4.458  47.582  21.096  0.00  0.00     0.210 HD
ENDBRANCH   5  33
BRANCH   4  35
HETATM   35  O   UNK     0       7.489  48.010  19.049  0.00  0.00    -0.390 OA
HETATM   36  H   UNK     0       8.147  47.943  18.337  0.00  0.00     0.210 HD
ENDBRANCH   4  35
TORSDOF 13
ENDMDL
MODEL 8
REMARK VINA RESULT:      -7.0      2.945      8.041
REMARK  13 active torsions:
REMARK  status: ('A' for Active; 'I' for Inactive)
REMARK    1  A    between atoms: O_2  and  C_16 
REMARK    2  A    between atoms: O_2  and  C_17 
REMARK    3  A    between atoms: O_4  and  C_12 
REMARK    4  A    between atoms: O_5  and  C_13 
REMARK    5  A    between atoms: O_6  and  C_15 
REMARK    6  A    between atoms: O_6  and  C_22 
REMARK    7  A    between atoms: O_7  and  C_14 
REMARK    8  A    between atoms: O_8  and  C_18 
REMARK    9  A    between atoms: O_9  and  C_19 
REMARK   10  A    between atoms: O_10  and  C_20 
REMARK   11  A    between atoms: C_11  and  C_16 
REMARK   12  A    between atoms: C_22  and  C_23 
REMARK   13  A    between atoms: C_24  and  C_25 
ROOT
HETATM    1  O   UNK     0       6.480  44.786  21.524  0.00  0.00    -0.348 OA
HETATM    2  C   UNK     0       7.863  45.099  21.353  0.00  0.00     0.180 C 
HETATM    3  C   UNK     0       8.010  46.427  20.606  0.00  0.00     0.180 C 
HETATM    4  C   UNK     0       7.268  46.384  19.271  0.00  0.00     0.183 C 
HETATM    5  C   UNK     0       5.838  45.872  19.449  0.00  0.00     0.204 C 
HETATM    6  C   UNK     0       5.806  44.592  20.284  0.00  0.00     0.291 C 
ENDROOT
BRANCH   2   7
HETATM    7  C   UNK     0       8.498  45.156  22.739  0.00  0.00     0.205 C 
BRANCH   7   8
HETATM    8  O   UNK     0       7.780  44.290  23.599  0.00  0.00    -0.356 OA
BRANCH   8   9
HETATM    9  C   UNK     0       8.523  43.977  24.773  0.00  0.00     0.290 C 
HETATM   10  O   UNK     0       9.751  43.307  24.467  0.00  0.00    -0.356 OA
HETATM   11  C   UNK     0       9.574  42.005  23.915  0.00  0.00     0.205 C 
HETATM   12  C   UNK     0       8.831  41.103  24.893  0.00  0.00     0.173 C 
HETATM   13  C   UNK     0       7.475  41.709  25.261  0.00  0.00     0.182 C 
HETATM   14  C   UNK     0       7.655  43.154  25.737  0.00  0.00     0.204 C 
BRANCH  12  15
HETATM   15  O   UNK     0       8.645  39.812  24.332  0.00  0.00    -0.391 OA
HETATM   16  H   UNK     0       7.816  39.829  23.822  0.00  0.00     0.210 HD
ENDBRANCH  12  15
BRANCH  13  17
HETATM   17  O   UNK     0       6.622  41.686  24.117  0.00  0.00    -0.390 OA
HETATM   18  H   UNK     0       5.905  42.323  24.274  0.00  0.00     0.210 HD
ENDBRANCH  13  17
BRANCH  14  19
HETATM   19  O   UNK     0       8.292  43.156  27.014  0.00  0.00    -0.388 OA
HETATM   20  H   UNK     0       7.912  43.875  27.545  0.00  0.00     0.210 HD
ENDBRANCH  14  19
ENDBRANCH   8   9
ENDBRANCH   7   8
ENDBRANCH   2   7
BRANCH   6  21
HETATM   21  O   UNK     0       4.439  44.259  20.525  0.00  0.00    -0.355 OA
BRANCH  21  22
HETATM   22  C   UNK     0       3.884  45.065  21.552  0.00  0.00     0.198 C 
BRANCH  22  23
HETATM   23  C   UNK     0       3.434  44.178  22.669  0.00  0.00     0.000 C 
HETATM   24  C   UNK     0       3.312  42.847  22.548  0.00  0.00     0.009 C 
BRANCH  24  25
HETATM   25  C   UNK     0       2.887  41.932  23.622  0.00  0.00    -0.036 A 
HETATM   26  C   UNK     0       3.315  42.164  24.920  0.00  0.00     0.011 A 
HETATM   27  C   UNK     0       2.912  41.298  25.937  0.00  0.00     0.001 A 
HETATM   28  C   UNK     0       2.087  40.213  25.643  0.00  0.00     0.000 A 
HETATM   29  C   UNK     0       1.665  39.992  24.332  0.00  0.00     0.001 A 
HETATM   30  C   UNK     0       2.067  40.858  23.315  0.00  0.00     0.011 A 
ENDBRANCH  24  25
ENDBRANCH  22  23
ENDBRANCH  21  22
ENDBRANCH   6  21
BRANCH   3  31
HETATM   31  O   UNK     0       9.392  46.684  20.369  0.00  0.00    -0.390 OA
HETATM   32  H   UNK     0       9.551  47.632  20.519  0.00  0.00     0.210 HD
ENDBRANCH   3  31
BRANCH   5  33
HETATM   33  O   UNK     0       5.274  45.587  18.169  0.00  0.00    -0.388 OA
HETATM   34  H   UNK     0       4.634  44.864  18.276  0.00  0.00     0.210 HD
ENDBRANCH   5  33
BRANCH   4  35
HETATM   35  O   UNK     0       7.236  47.710  18.740  0.00  0.00    -0.390 OA
HETATM   36  H   UNK     0       7.465  47.651  17.797  0.00  0.00     0.210 HD
ENDBRANCH   4  35
TORSDOF 13
ENDMDL
MODEL 9
REMARK VINA RESULT:      -6.9      3.225      5.273
REMARK  13 active torsions:
REMARK  status: ('A' for Active; 'I' for Inactive)
REMARK    1  A    between atoms: O_2  and  C_16 
REMARK    2  A    between atoms: O_2  and  C_17 
REMARK    3  A    between atoms: O_4  and  C_12 
REMARK    4  A    between atoms: O_5  and  C_13 
REMARK    5  A    between atoms: O_6  and  C_15 
REMARK    6  A    between atoms: O_6  and  C_22 
REMARK    7  A    between atoms: O_7  and  C_14 
REMARK    8  A    between atoms: O_8  and  C_18 
REMARK    9  A    between atoms: O_9  and  C_19 
REMARK   10  A    between atoms: O_10  and  C_20 
REMARK   11  A    between atoms: C_11  and  C_16 
REMARK   12  A    between atoms: C_22  and  C_23 
REMARK   13  A    between atoms: C_24  and  C_25 
ROOT
HETATM    1  O   UNK     0       9.519  43.436  20.596  0.00  0.00    -0.348 OA
HETATM    2  C   UNK     0       8.609  44.345  21.218  0.00  0.00     0.180 C 
HETATM    3  C   UNK     0       7.650  44.921  20.172  0.00  0.00     0.180 C 
HETATM    4  C   UNK     0       8.424  45.581  19.032  0.00  0.00     0.183 C 
HETATM    5  C   UNK     0       9.519  44.657  18.498  0.00  0.00     0.204 C 
HETATM    6  C   UNK     0      10.356  44.072  19.635  0.00  0.00     0.291 C 
ENDROOT
BRANCH   2   7
HETATM    7  C   UNK     0       7.864  43.579  22.307  0.00  0.00     0.205 C 
BRANCH   7   8
HETATM    8  O   UNK     0       6.513  43.432  21.910  0.00  0.00    -0.356 OA
BRANCH   8   9
HETATM    9  C   UNK     0       5.665  43.143  23.017  0.00  0.00     0.290 C 
HETATM   10  O   UNK     0       4.912  41.942  22.817  0.00  0.00    -0.356 OA
HETATM   11  C   UNK     0       3.950  42.036  21.769  0.00  0.00     0.205 C 
HETATM   12  C   UNK     0       2.933  43.129  22.069  0.00  0.00     0.173 C 
HETATM   13  C   UNK     0       3.631  44.476  22.264  0.00  0.00     0.182 C 
HETATM   14  C   UNK     0       4.750  44.344  23.303  0.00  0.00     0.204 C 
BRANCH  12  15
HETATM   15  O   UNK     0       1.985  43.227  21.016  0.00  0.00    -0.391 OA
HETATM   16  H   UNK     0       2.162  42.500  20.392  0.00  0.00     0.210 HD
ENDBRANCH  12  15
BRANCH  13  17
HETATM   17  O   UNK     0       4.183  44.906  21.021  0.00  0.00    -0.390 OA
HETATM   18  H   UNK     0       5.111  45.149  21.180  0.00  0.00     0.210 HD
ENDBRANCH  13  17
BRANCH  14  19
HETATM   19  O   UNK     0       4.176  44.163  24.596  0.00  0.00    -0.388 OA
HETATM   20  H   UNK     0       4.440  43.289  24.929  0.00  0.00     0.210 HD
ENDBRANCH  14  19
ENDBRANCH   8   9
ENDBRANCH   7   8
ENDBRANCH   2   7
BRANCH   6  21
HETATM   21  O   UNK     0      11.256  43.118  19.072  0.00  0.00    -0.355 OA
BRANCH  21  22
HETATM   22  C   UNK     0      12.607  43.508  19.261  0.00  0.00     0.198 C 
BRANCH  22  23
HETATM   23  C   UNK     0      13.262  42.537  20.191  0.00  0.00     0.000 C 
HETATM   24  C   UNK     0      14.592  42.391  20.286  0.00  0.00     0.009 C 
BRANCH  24  25
HETATM   25  C   UNK     0      15.282  41.460  21.196  0.00  0.00    -0.036 A 
HETATM   26  C   UNK     0      16.658  41.325  21.114  0.00  0.00     0.011 A 
HETATM   27  C   UNK     0      17.312  40.443  21.976  0.00  0.00     0.001 A 
HETATM   28  C   UNK     0      16.579  39.710  22.909  0.00  0.00     0.000 A 
HETATM   29  C   UNK     0      15.194  39.857  22.981  0.00  0.00     0.001 A 
HETATM   30  C   UNK     0      14.541  40.739  22.119  0.00  0.00     0.011 A 
ENDBRANCH  24  25
ENDBRANCH  22  23
ENDBRANCH  21  22
ENDBRANCH   6  21
BRANCH   3  31
HETATM   31  O   UNK     0       6.804  45.887  20.790  0.00  0.00    -0.390 OA
HETATM   32  H   UNK     0       5.932  45.841  20.360  0.00  0.00     0.210 HD
ENDBRANCH   3  31
BRANCH   5  33
HETATM   33  O   UNK     0      10.385  45.398  17.638  0.00  0.00    -0.388 OA
HETATM   34  H   UNK     0      10.697  46.179  18.125  0.00  0.00     0.210 HD
ENDBRANCH   5  33
BRANCH   4  35
HETATM   35  O   UNK     0       7.499  45.879  17.985  0.00  0.00    -0.390 OA
HETATM   36  H   UNK     0       6.604  45.754  18.343  0.00  0.00     0.210 HD
ENDBRANCH   4  35
TORSDOF 13
ENDMDL
