MODEL 1
REMARK VINA RESULT:    -7.399      0.000      0.000
REMARK INTER + INTRA:         -13.444
REMARK INTER:                 -12.333
REMARK INTRA:                  -1.111
REMARK UNBOUND:                -1.720
REMARK  13 active torsions:
REMARK  status: ('A' for Active; 'I' for Inactive)
REMARK    1  A    between atoms: O_2  and  C_16 
REMARK    2  A    between atoms: O_2  and  C_17 
REMARK    3  A    between atoms: O_4  and  C_12 
REMARK    4  A    between atoms: O_5  and  C_13 
REMARK    5  A    between atoms: O_6  and  C_15 
REMARK    6  A    between atoms: O_6  and  C_22 
REMARK    7  A    between atoms: O_7  and  C_14 
REMARK    8  A    between atoms: O_8  and  C_18 
REMARK    9  A    between atoms: O_9  and  C_19 
REMARK   10  A    between atoms: O_10  and  C_20 
REMARK   11  A    between atoms: C_11  and  C_16 
REMARK   12  A    between atoms: C_22  and  C_23 
REMARK   13  A    between atoms: C_24  and  C_25 
ROOT
HETATM    1  O   UNK     0       7.030  44.127  21.120  0.00  0.00    -0.348 OA
HETATM    2  C   UNK     0       8.377  44.447  20.769  0.00  0.00     0.180 C 
HETATM    3  C   UNK     0       8.481  45.927  20.391  0.00  0.00     0.180 C 
HETATM    4  C   UNK     0       7.504  46.269  19.267  0.00  0.00     0.183 C 
HETATM    5  C   UNK     0       6.098  45.756  19.580  0.00  0.00     0.204 C 
HETATM    6  C   UNK     0       6.127  44.297  20.031  0.00  0.00     0.291 C 
ENDROOT
BRANCH   2   7
HETATM    7  C   UNK     0       9.259  44.107  21.968  0.00  0.00     0.205 C 
BRANCH   7   8
HETATM    8  O   UNK     0      10.611  44.117  21.548  0.00  0.00    -0.356 OA
BRANCH   8   9
HETATM    9  C   UNK     0      11.324  42.987  22.041  0.00  0.00     0.290 C 
HETATM   10  O   UNK     0      12.552  43.362  22.675  0.00  0.00    -0.356 OA
HETATM   11  C   UNK     0      13.517  43.911  21.780  0.00  0.00     0.205 C 
HETATM   12  C   UNK     0      13.887  42.899  20.703  0.00  0.00     0.173 C 
HETATM   13  C   UNK     0      12.644  42.455  19.930  0.00  0.00     0.182 C 
HETATM   14  C   UNK     0      11.559  41.981  20.903  0.00  0.00     0.204 C 
BRANCH  12  15
HETATM   15  O   UNK     0      14.838  43.455  19.807  0.00  0.00    -0.391 OA
HETATM   16  H   UNK     0      14.390  43.601  18.955  0.00  0.00     0.210 HD
ENDBRANCH  12  15
BRANCH  13  17
HETATM   17  O   UNK     0      12.151  43.550  19.161  0.00  0.00    -0.390 OA
HETATM   18  H   UNK     0      12.784  44.283  19.255  0.00  0.00     0.210 HD
ENDBRANCH  13  17
BRANCH  14  19
HETATM   19  O   UNK     0      11.956  40.741  21.486  0.00  0.00    -0.388 OA
HETATM   20  H   UNK     0      11.768  40.776  22.439  0.00  0.00     0.210 HD
ENDBRANCH  14  19
ENDBRANCH   8   9
ENDBRANCH   7   8
ENDBRANCH   2   7
BRANCH   6  21
HETATM   21  O   UNK     0       4.807  43.937  20.439  0.00  0.00    -0.355 OA
BRANCH  21  22
HETATM   22  C   UNK     0       4.332  44.792  21.467  0.00  0.00     0.198 C 
BRANCH  22  23
HETATM   23  C   UNK     0       3.888  43.954  22.622  0.00  0.00     0.000 C 
HETATM   24  C   UNK     0       3.329  42.742  22.481  0.00  0.00     0.009 C 
BRANCH  24  25
HETATM   25  C   UNK     0       2.890  41.875  23.588  0.00  0.00    -0.036 A 
HETATM   26  C   UNK     0       3.328  42.143  24.875  0.00  0.00     0.011 A 
HETATM   27  C   UNK     0       2.912  41.322  25.924  0.00  0.00     0.001 A 
HETATM   28  C   UNK     0       2.063  40.245  25.671  0.00  0.00     0.000 A 
HETATM   29  C   UNK     0       1.631  39.987  24.371  0.00  0.00     0.001 A 
HETATM   30  C   UNK     0       2.047  40.808  23.322  0.00  0.00     0.011 A 
ENDBRANCH  24  25
ENDBRANCH  22  23
ENDBRANCH  21  22
ENDBRANCH   6  21
BRANCH   3  31
HETATM   31  O   UNK     0       9.811  46.212  19.964  0.00  0.00    -0.390 OA
HETATM   32  H   UNK     0       9.766  46.560  19.056  0.00  0.00     0.210 HD
ENDBRANCH   3  31
BRANCH   5  33
HETATM   33  O   UNK     0       5.289  45.847  18.407  0.00  0.00    -0.388 OA
HETATM   34  H   UNK     0       4.395  46.113  18.678  0.00  0.00     0.210 HD
ENDBRANCH   5  33
BRANCH   4  35
HETATM   35  O   UNK     0       7.472  47.691  19.127  0.00  0.00    -0.390 OA
HETATM   36  H   UNK     0       6.543  47.950  19.004  0.00  0.00     0.210 HD
ENDBRANCH   4  35
TORSDOF 13
ENDMDL
MODEL 2
REMARK VINA RESULT:    -7.344      2.342      3.132
REMARK INTER + INTRA:         -13.357
REMARK INTER:                 -12.070
REMARK INTRA:                  -1.287
REMARK UNBOUND:                -1.720
REMARK  13 active torsions:
REMARK  status: ('A' for Active; 'I' for Inactive)
REMARK    1  A    between atoms: O_2  and  C_16 
REMARK    2  A    between atoms: O_2  and  C_17 
REMARK    3  A    between atoms: O_4  and  C_12 
REMARK    4  A    between atoms: O_5  and  C_13 
REMARK    5  A    between atoms: O_6  and  C_15 
REMARK    6  A    between atoms: O_6  and  C_22 
REMARK    7  A    between atoms: O_7  and  C_14 
REMARK    8  A    between atoms: O_8  and  C_18 
REMARK    9  A    between atoms: O_9  and  C_19 
REMARK   10  A    between atoms: O_10  and  C_20 
REMARK   11  A    between atoms: C_11  and  C_16 
REMARK   12  A    between atoms: C_22  and  C_23 
REMARK   13  A    between atoms: C_24  and  C_25 
ROOT
HETATM    1  O   UNK     0       6.418  43.521  20.860  0.00  0.00    -0.348 OA
HETATM    2  C   UNK     0       7.734  43.286  20.356  0.00  0.00     0.180 C 
HETATM    3  C   UNK     0       8.211  44.501  19.555  0.00  0.00     0.180 C 
HETATM    4  C   UNK     0       7.224  44.834  18.437  0.00  0.00     0.183 C 
HETATM    5  C   UNK     0       5.791  44.903  18.965  0.00  0.00     0.204 C 
HETATM    6  C   UNK     0       5.456  43.683  19.822  0.00  0.00     0.291 C 
ENDROOT
BRANCH   2   7
HETATM    7  C   UNK     0       8.642  43.005  21.550  0.00  0.00     0.205 C 
BRANCH   7   8
HETATM    8  O   UNK     0       9.308  44.204  21.901  0.00  0.00    -0.356 OA
BRANCH   8   9
HETATM    9  C   UNK     0       8.765  44.782  23.083  0.00  0.00     0.290 C 
HETATM   10  O   UNK     0       9.134  46.159  23.225  0.00  0.00    -0.356 OA
HETATM   11  C   UNK     0      10.527  46.360  23.451  0.00  0.00     0.205 C 
HETATM   12  C   UNK     0      10.969  45.668  24.734  0.00  0.00     0.173 C 
HETATM   13  C   UNK     0      10.655  44.172  24.676  0.00  0.00     0.182 C 
HETATM   14  C   UNK     0       9.183  43.956  24.309  0.00  0.00     0.204 C 
BRANCH  12  15
HETATM   15  O   UNK     0      12.360  45.861  24.948  0.00  0.00    -0.391 OA
HETATM   16  H   UNK     0      12.727  45.019  25.271  0.00  0.00     0.210 HD
ENDBRANCH  12  15
BRANCH  13  17
HETATM   17  O   UNK     0      11.487  43.554  23.696  0.00  0.00    -0.390 OA
HETATM   18  H   UNK     0      11.009  43.579  22.848  0.00  0.00     0.210 HD
ENDBRANCH  13  17
BRANCH  14  19
HETATM   19  O   UNK     0       8.360  44.347  25.406  0.00  0.00    -0.388 OA
HETATM   20  H   UNK     0       7.509  44.660  25.055  0.00  0.00     0.210 HD
ENDBRANCH  14  19
ENDBRANCH   8   9
ENDBRANCH   7   8
ENDBRANCH   2   7
BRANCH   6  21
HETATM   21  O   UNK     0       4.163  43.887  20.390  0.00  0.00    -0.355 OA
BRANCH  21  22
HETATM   22  C   UNK     0       3.298  42.797  20.110  0.00  0.00     0.198 C 
BRANCH  22  23
HETATM   23  C   UNK     0       3.150  41.970  21.347  0.00  0.00     0.000 C 
HETATM   24  C   UNK     0       2.778  42.479  22.532  0.00  0.00     0.009 C 
BRANCH  24  25
HETATM   25  C   UNK     0       2.604  41.703  23.773  0.00  0.00    -0.036 A 
HETATM   26  C   UNK     0       1.836  40.550  23.750  0.00  0.00     0.011 A 
HETATM   27  C   UNK     0       1.672  39.814  24.925  0.00  0.00     0.001 A 
HETATM   28  C   UNK     0       2.279  40.242  26.105  0.00  0.00     0.000 A 
HETATM   29  C   UNK     0       3.049  41.405  26.112  0.00  0.00     0.001 A 
HETATM   30  C   UNK     0       3.214  42.140  24.938  0.00  0.00     0.011 A 
ENDBRANCH  24  25
ENDBRANCH  22  23
ENDBRANCH  21  22
ENDBRANCH   6  21
BRANCH   3  31
HETATM   31  O   UNK     0       9.489  44.221  18.989  0.00  0.00    -0.390 OA
HETATM   32  H   UNK     0      10.049  45.007  19.110  0.00  0.00     0.210 HD
ENDBRANCH   3  31
BRANCH   5  33
HETATM   33  O   UNK     0       4.882  44.941  17.864  0.00  0.00    -0.388 OA
HETATM   34  H   UNK     0       5.379  44.729  17.056  0.00  0.00     0.210 HD
ENDBRANCH   5  33
BRANCH   4  35
HETATM   35  O   UNK     0       7.590  46.102  17.888  0.00  0.00    -0.390 OA
HETATM   36  H   UNK     0       8.164  46.544  18.536  0.00  0.00     0.210 HD
ENDBRANCH   4  35
TORSDOF 13
ENDMDL
MODEL 3
REMARK VINA RESULT:    -7.240      1.765      2.683
REMARK INTER + INTRA:         -13.193
REMARK INTER:                 -12.110
REMARK INTRA:                  -1.083
REMARK UNBOUND:                -1.720
REMARK  13 active torsions:
REMARK  status: ('A' for Active; 'I' for Inactive)
REMARK    1  A    between atoms: O_2  and  C_16 
REMARK    2  A    between atoms: O_2  and  C_17 
REMARK    3  A    between atoms: O_4  and  C_12 
REMARK    4  A    between atoms: O_5  and  C_13 
REMARK    5  A    between atoms: O_6  and  C_15 
REMARK    6  A    between atoms: O_6  and  C_22 
REMARK    7  A    between atoms: O_7  and  C_14 
REMARK    8  A    between atoms: O_8  and  C_18 
REMARK    9  A    between atoms: O_9  and  C_19 
REMARK   10  A    between atoms: O_10  and  C_20 
REMARK   11  A    between atoms: C_11  and  C_16 
REMARK   12  A    between atoms: C_22  and  C_23 
REMARK   13  A    between atoms: C_24  and  C_25 
ROOT
HETATM    1  O   UNK     0       7.024  44.003  20.974  0.00  0.00    -0.348 OA
HETATM    2  C   UNK     0       8.244  44.711  21.200  0.00  0.00     0.180 C 
HETATM    3  C   UNK     0       8.138  46.129  20.633  0.00  0.00     0.180 C 
HETATM    4  C   UNK     0       7.766  46.094  19.151  0.00  0.00     0.183 C 
HETATM    5  C   UNK     0       6.563  45.183  18.903  0.00  0.00     0.204 C 
HETATM    6  C   UNK     0       6.741  43.829  19.589  0.00  0.00     0.291 C 
ENDROOT
BRANCH   2   7
HETATM    7  C   UNK     0       8.499  44.722  22.704  0.00  0.00     0.205 C 
BRANCH   7   8
HETATM    8  O   UNK     0       9.820  45.178  22.933  0.00  0.00    -0.356 OA
BRANCH   8   9
HETATM    9  C   UNK     0      10.770  44.124  22.816  0.00  0.00     0.290 C 
HETATM   10  O   UNK     0      10.529  43.076  23.761  0.00  0.00    -0.356 OA
HETATM   11  C   UNK     0      10.736  43.466  25.117  0.00  0.00     0.205 C 
HETATM   12  C   UNK     0      12.178  43.908  25.334  0.00  0.00     0.173 C 
HETATM   13  C   UNK     0      12.535  45.060  24.393  0.00  0.00     0.182 C 
HETATM   14  C   UNK     0      12.194  44.686  22.947  0.00  0.00     0.204 C 
BRANCH  12  15
HETATM   15  O   UNK     0      12.376  44.308  26.682  0.00  0.00    -0.391 OA
HETATM   16  H   UNK     0      12.319  45.279  26.712  0.00  0.00     0.210 HD
ENDBRANCH  12  15
BRANCH  13  17
HETATM   17  O   UNK     0      11.800  46.223  24.771  0.00  0.00    -0.390 OA
HETATM   18  H   UNK     0      11.155  45.954  25.448  0.00  0.00     0.210 HD
ENDBRANCH  13  17
BRANCH  14  19
HETATM   19  O   UNK     0      13.106  43.689  22.489  0.00  0.00    -0.388 OA
HETATM   20  H   UNK     0      12.695  43.216  21.746  0.00  0.00     0.210 HD
ENDBRANCH  14  19
ENDBRANCH   8   9
ENDBRANCH   7   8
ENDBRANCH   2   7
BRANCH   6  21
HETATM   21  O   UNK     0       5.528  43.095  19.433  0.00  0.00    -0.355 OA
BRANCH  21  22
HETATM   22  C   UNK     0       4.468  43.685  20.170  0.00  0.00     0.198 C 
BRANCH  22  23
HETATM   23  C   UNK     0       3.992  42.705  21.195  0.00  0.00     0.000 C 
HETATM   24  C   UNK     0       3.506  43.068  22.392  0.00  0.00     0.009 C 
BRANCH  24  25
HETATM   25  C   UNK     0       3.013  42.142  23.425  0.00  0.00    -0.036 A 
HETATM   26  C   UNK     0       3.357  42.356  24.750  0.00  0.00     0.011 A 
HETATM   27  C   UNK     0       2.890  41.478  25.729  0.00  0.00     0.001 A 
HETATM   28  C   UNK     0       2.083  40.399  25.369  0.00  0.00     0.000 A 
HETATM   29  C   UNK     0       1.744  40.196  24.032  0.00  0.00     0.001 A 
HETATM   30  C   UNK     0       2.212  41.074  23.053  0.00  0.00     0.011 A 
ENDBRANCH  24  25
ENDBRANCH  22  23
ENDBRANCH  21  22
ENDBRANCH   6  21
BRANCH   3  31
HETATM   31  O   UNK     0       9.388  46.795  20.790  0.00  0.00    -0.390 OA
HETATM   32  H   UNK     0      10.026  46.154  21.150  0.00  0.00     0.210 HD
ENDBRANCH   3  31
BRANCH   5  33
HETATM   33  O   UNK     0       6.420  44.960  17.500  0.00  0.00    -0.388 OA
HETATM   34  H   UNK     0       6.415  44.001  17.346  0.00  0.00     0.210 HD
ENDBRANCH   5  33
BRANCH   4  35
HETATM   35  O   UNK     0       7.447  47.426  18.744  0.00  0.00    -0.390 OA
HETATM   36  H   UNK     0       6.733  47.366  18.087  0.00  0.00     0.210 HD
ENDBRANCH   4  35
TORSDOF 13
ENDMDL
MODEL 4
REMARK VINA RESULT:    -7.189      2.399      8.431
REMARK INTER + INTRA:         -13.112
REMARK INTER:                 -12.272
REMARK INTRA:                  -0.840
REMARK UNBOUND:                -1.720
REMARK  13 active torsions:
REMARK  status: ('A' for Active; 'I' for Inactive)
REMARK    1  A    between atoms: O_2  and  C_16 
REMARK    2  A    between atoms: O_2  and  C_17 
REMARK    3  A    between atoms: O_4  and  C_12 
REMARK    4  A    between atoms: O_5  and  C_13 
REMARK    5  A    between atoms: O_6  and  C_15 
REMARK    6  A    between atoms: O_6  and  C_22 
REMARK    7  A    between atoms: O_7  and  C_14 
REMARK    8  A    between atoms: O_8  and  C_18 
REMARK    9  A    between atoms: O_9  and  C_19 
REMARK   10  A    between atoms: O_10  and  C_20 
REMARK   11  A    between atoms: C_11  and  C_16 
REMARK   12  A    between atoms: C_22  and  C_23 
REMARK   13  A    between atoms: C_24  and  C_25 
ROOT
HETATM    1  O   UNK     0       6.236  44.472  20.544  0.00  0.00    -0.348 OA
HETATM    2  C   UNK     0       5.546  45.590  21.104  0.00  0.00     0.180 C 
HETATM    3  C   UNK     0       5.650  46.794  20.164  0.00  0.00     0.180 C 
HETATM    4  C   UNK     0       7.112  47.121  19.863  0.00  0.00     0.183 C 
HETATM    5  C   UNK     0       7.883  45.871  19.437  0.00  0.00     0.204 C 
HETATM    6  C   UNK     0       7.634  44.710  20.398  0.00  0.00     0.291 C 
ENDROOT
BRANCH   2   7
HETATM    7  C   UNK     0       4.096  45.171  21.327  0.00  0.00     0.205 C 
BRANCH   7   8
HETATM    8  O   UNK     0       4.006  43.765  21.184  0.00  0.00    -0.356 OA
BRANCH   8   9
HETATM    9  C   UNK     0       4.288  43.091  22.406  0.00  0.00     0.290 C 
HETATM   10  O   UNK     0       4.852  41.794  22.186  0.00  0.00    -0.356 OA
HETATM   11  C   UNK     0       3.951  40.870  21.579  0.00  0.00     0.205 C 
HETATM   12  C   UNK     0       2.728  40.656  22.461  0.00  0.00     0.173 C 
HETATM   13  C   UNK     0       2.019  41.984  22.731  0.00  0.00     0.182 C 
HETATM   14  C   UNK     0       3.017  43.016  23.267  0.00  0.00     0.204 C 
BRANCH  12  15
HETATM   15  O   UNK     0       1.828  39.746  21.846  0.00  0.00    -0.391 OA
HETATM   16  H   UNK     0       1.726  38.984  22.444  0.00  0.00     0.210 HD
ENDBRANCH  12  15
BRANCH  13  17
HETATM   17  O   UNK     0       1.440  42.464  21.519  0.00  0.00    -0.390 OA
HETATM   18  H   UNK     0       0.477  42.343  21.586  0.00  0.00     0.210 HD
ENDBRANCH  13  17
BRANCH  14  19
HETATM   19  O   UNK     0       3.403  42.657  24.592  0.00  0.00    -0.388 OA
HETATM   20  H   UNK     0       3.217  43.409  25.180  0.00  0.00     0.210 HD
ENDBRANCH  14  19
ENDBRANCH   8   9
ENDBRANCH   7   8
ENDBRANCH   2   7
BRANCH   6  21
HETATM   21  O   UNK     0       8.267  43.550  19.860  0.00  0.00    -0.355 OA
BRANCH  21  22
HETATM   22  C   UNK     0       8.859  42.764  20.882  0.00  0.00     0.198 C 
BRANCH  22  23
HETATM   23  C   UNK     0      10.346  42.889  20.785  0.00  0.00     0.000 C 
HETATM   24  C   UNK     0      11.093  43.522  21.702  0.00  0.00     0.009 C 
BRANCH  24  25
HETATM   25  C   UNK     0      12.559  43.658  21.656  0.00  0.00    -0.036 A 
HETATM   26  C   UNK     0      13.222  44.232  22.730  0.00  0.00     0.011 A 
HETATM   27  C   UNK     0      14.611  44.360  22.687  0.00  0.00     0.001 A 
HETATM   28  C   UNK     0      15.318  43.913  21.571  0.00  0.00     0.000 A 
HETATM   29  C   UNK     0      14.637  43.337  20.498  0.00  0.00     0.001 A 
HETATM   30  C   UNK     0      13.249  43.209  20.541  0.00  0.00     0.011 A 
ENDBRANCH  24  25
ENDBRANCH  22  23
ENDBRANCH  21  22
ENDBRANCH   6  21
BRANCH   3  31
HETATM   31  O   UNK     0       5.029  47.923  20.773  0.00  0.00    -0.390 OA
HETATM   32  H   UNK     0       5.025  47.780  21.735  0.00  0.00     0.210 HD
ENDBRANCH   3  31
BRANCH   5  33
HETATM   33  O   UNK     0       9.282  46.158  19.432  0.00  0.00    -0.388 OA
HETATM   34  H   UNK     0       9.460  46.805  20.135  0.00  0.00     0.210 HD
ENDBRANCH   5  33
BRANCH   4  35
HETATM   35  O   UNK     0       7.140  48.082  18.805  0.00  0.00    -0.390 OA
HETATM   36  H   UNK     0       6.246  48.455  18.728  0.00  0.00     0.210 HD
ENDBRANCH   4  35
TORSDOF 13
ENDMDL
MODEL 5
REMARK VINA RESULT:    -7.148      1.995      3.072
REMARK INTER + INTRA:         -13.047
REMARK INTER:                 -11.304
REMARK INTRA:                  -1.743
REMARK UNBOUND:                -1.720
REMARK  13 active torsions:
REMARK  status: ('A' for Active; 'I' for Inactive)
REMARK    1  A    between atoms: O_2  and  C_16 
REMARK    2  A    between atoms: O_2  and  C_17 
REMARK    3  A    between atoms: O_4  and  C_12 
REMARK    4  A    between atoms: O_5  and  C_13 
REMARK    5  A    between atoms: O_6  and  C_15 
REMARK    6  A    between atoms: O_6  and  C_22 
REMARK    7  A    between atoms: O_7  and  C_14 
REMARK    8  A    between atoms: O_8  and  C_18 
REMARK    9  A    between atoms: O_9  and  C_19 
REMARK   10  A    between atoms: O_10  and  C_20 
REMARK   11  A    between atoms: C_11  and  C_16 
REMARK   12  A    between atoms: C_22  and  C_23 
REMARK   13  A    between atoms: C_24  and  C_25 
ROOT
HETATM    1  O   UNK     0       8.105  44.211  21.053  0.00  0.00    -0.348 OA
HETATM    2  C   UNK     0       8.932  43.205  20.467  0.00  0.00     0.180 C 
HETATM    3  C   UNK     0       9.989  43.855  19.570  0.00  0.00     0.180 C 
HETATM    4  C   UNK     0       9.332  44.739  18.511  0.00  0.00     0.183 C 
HETATM    5  C   UNK     0       8.312  45.690  19.138  0.00  0.00     0.204 C 
HETATM    6  C   UNK     0       7.366  44.946  20.081  0.00  0.00     0.291 C 
ENDROOT
BRANCH   2   7
HETATM    7  C   UNK     0       9.567  42.410  21.604  0.00  0.00     0.205 C 
BRANCH   7   8
HETATM    8  O   UNK     0       9.501  43.185  22.787  0.00  0.00    -0.356 OA
BRANCH   8   9
HETATM    9  C   UNK     0      10.742  43.191  23.485  0.00  0.00     0.290 C 
HETATM   10  O   UNK     0      10.579  43.527  24.867  0.00  0.00    -0.356 OA
HETATM   11  C   UNK     0      10.149  44.869  25.086  0.00  0.00     0.205 C 
HETATM   12  C   UNK     0      11.165  45.856  24.527  0.00  0.00     0.173 C 
HETATM   13  C   UNK     0      11.390  45.611  23.034  0.00  0.00     0.182 C 
HETATM   14  C   UNK     0      11.730  44.138  22.786  0.00  0.00     0.204 C 
BRANCH  12  15
HETATM   15  O   UNK     0      10.726  47.191  24.736  0.00  0.00    -0.391 OA
HETATM   16  H   UNK     0      10.281  47.484  23.922  0.00  0.00     0.210 HD
ENDBRANCH  12  15
BRANCH  13  17
HETATM   17  O   UNK     0      10.206  45.956  22.317  0.00  0.00    -0.390 OA
HETATM   18  H   UNK     0       9.477  46.000  22.959  0.00  0.00     0.210 HD
ENDBRANCH  13  17
BRANCH  14  19
HETATM   19  O   UNK     0      13.036  43.863  23.290  0.00  0.00    -0.388 OA
HETATM   20  H   UNK     0      13.669  44.444  22.836  0.00  0.00     0.210 HD
ENDBRANCH  14  19
ENDBRANCH   8   9
ENDBRANCH   7   8
ENDBRANCH   2   7
BRANCH   6  21
HETATM   21  O   UNK     0       6.543  45.914  20.731  0.00  0.00    -0.355 OA
BRANCH  21  22
HETATM   22  C   UNK     0       5.183  45.511  20.743  0.00  0.00     0.198 C 
BRANCH  22  23
HETATM   23  C   UNK     0       4.860  44.948  22.090  0.00  0.00     0.000 C 
HETATM   24  C   UNK     0       4.256  43.762  22.267  0.00  0.00     0.009 C 
BRANCH  24  25
HETATM   25  C   UNK     0       3.932  43.161  23.572  0.00  0.00    -0.036 A 
HETATM   26  C   UNK     0       4.444  43.729  24.728  0.00  0.00     0.011 A 
HETATM   27  C   UNK     0       4.137  43.160  25.964  0.00  0.00     0.001 A 
HETATM   28  C   UNK     0       3.322  42.030  26.028  0.00  0.00     0.000 A 
HETATM   29  C   UNK     0       2.814  41.469  24.857  0.00  0.00     0.001 A 
HETATM   30  C   UNK     0       3.121  42.038  23.620  0.00  0.00     0.011 A 
ENDBRANCH  24  25
ENDBRANCH  22  23
ENDBRANCH  21  22
ENDBRANCH   6  21
BRANCH   3  31
HETATM   31  O   UNK     0      10.753  42.837  18.928  0.00  0.00    -0.390 OA
HETATM   32  H   UNK     0      11.533  42.655  19.480  0.00  0.00     0.210 HD
ENDBRANCH   3  31
BRANCH   5  33
HETATM   33  O   UNK     0       7.532  46.295  18.107  0.00  0.00    -0.388 OA
HETATM   34  H   UNK     0       7.926  47.158  17.899  0.00  0.00     0.210 HD
ENDBRANCH   5  33
BRANCH   4  35
HETATM   35  O   UNK     0      10.359  45.498  17.870  0.00  0.00    -0.390 OA
HETATM   36  H   UNK     0      10.860  45.955  18.567  0.00  0.00     0.210 HD
ENDBRANCH   4  35
TORSDOF 13
ENDMDL
MODEL 6
REMARK VINA RESULT:    -7.142      1.970      8.724
REMARK INTER + INTRA:         -13.038
REMARK INTER:                 -11.881
REMARK INTRA:                  -1.156
REMARK UNBOUND:                -1.720
REMARK  13 active torsions:
REMARK  status: ('A' for Active; 'I' for Inactive)
REMARK    1  A    between atoms: O_2  and  C_16 
REMARK    2  A    between atoms: O_2  and  C_17 
REMARK    3  A    between atoms: O_4  and  C_12 
REMARK    4  A    between atoms: O_5  and  C_13 
REMARK    5  A    between atoms: O_6  and  C_15 
REMARK    6  A    between atoms: O_6  and  C_22 
REMARK    7  A    between atoms: O_7  and  C_14 
REMARK    8  A    between atoms: O_8  and  C_18 
REMARK    9  A    between atoms: O_9  and  C_19 
REMARK   10  A    between atoms: O_10  and  C_20 
REMARK   11  A    between atoms: C_11  and  C_16 
REMARK   12  A    between atoms: C_22  and  C_23 
REMARK   13  A    between atoms: C_24  and  C_25 
ROOT
HETATM    1  O   UNK     0       7.948  43.699  20.091  0.00  0.00    -0.348 OA
HETATM    2  C   UNK     0       6.594  44.136  19.966  0.00  0.00     0.180 C 
HETATM    3  C   UNK     0       6.538  45.439  19.164  0.00  0.00     0.180 C 
HETATM    4  C   UNK     0       7.423  46.508  19.804  0.00  0.00     0.183 C 
HETATM    5  C   UNK     0       8.822  45.965  20.098  0.00  0.00     0.204 C 
HETATM    6  C   UNK     0       8.754  44.620  20.821  0.00  0.00     0.291 C 
ENDROOT
BRANCH   2   7
HETATM    7  C   UNK     0       5.810  43.019  19.283  0.00  0.00     0.205 C 
BRANCH   7   8
HETATM    8  O   UNK     0       4.579  42.854  19.962  0.00  0.00    -0.356 OA
BRANCH   8   9
HETATM    9  C   UNK     0       4.718  43.055  21.365  0.00  0.00     0.290 C 
HETATM   10  O   UNK     0       4.943  41.826  22.063  0.00  0.00    -0.356 OA
HETATM   11  C   UNK     0       3.829  40.937  22.036  0.00  0.00     0.205 C 
HETATM   12  C   UNK     0       2.613  41.579  22.690  0.00  0.00     0.173 C 
HETATM   13  C   UNK     0       2.256  42.892  21.991  0.00  0.00     0.182 C 
HETATM   14  C   UNK     0       3.489  43.799  21.910  0.00  0.00     0.204 C 
BRANCH  12  15
HETATM   15  O   UNK     0       1.503  40.694  22.648  0.00  0.00    -0.391 OA
HETATM   16  H   UNK     0       0.759  41.133  23.097  0.00  0.00     0.210 HD
ENDBRANCH  12  15
BRANCH  13  17
HETATM   17  O   UNK     0       1.781  42.612  20.675  0.00  0.00    -0.390 OA
HETATM   18  H   UNK     0       2.494  42.152  20.199  0.00  0.00     0.210 HD
ENDBRANCH  13  17
BRANCH  14  19
HETATM   19  O   UNK     0       3.808  44.281  23.214  0.00  0.00    -0.388 OA
HETATM   20  H   UNK     0       4.740  44.555  23.220  0.00  0.00     0.210 HD
ENDBRANCH  14  19
ENDBRANCH   8   9
ENDBRANCH   7   8
ENDBRANCH   2   7
BRANCH   6  21
HETATM   21  O   UNK     0      10.084  44.114  20.933  0.00  0.00    -0.355 OA
BRANCH  21  22
HETATM   22  C   UNK     0      10.489  43.459  19.741  0.00  0.00     0.198 C 
BRANCH  22  23
HETATM   23  C   UNK     0      11.665  42.587  20.047  0.00  0.00     0.000 C 
HETATM   24  C   UNK     0      12.661  42.956  20.867  0.00  0.00     0.009 C 
BRANCH  24  25
HETATM   25  C   UNK     0      13.830  42.127  21.210  0.00  0.00    -0.036 A 
HETATM   26  C   UNK     0      13.685  41.094  22.122  0.00  0.00     0.011 A 
HETATM   27  C   UNK     0      14.792  40.309  22.447  0.00  0.00     0.001 A 
HETATM   28  C   UNK     0      16.027  40.567  21.855  0.00  0.00     0.000 A 
HETATM   29  C   UNK     0      16.158  41.610  20.939  0.00  0.00     0.001 A 
HETATM   30  C   UNK     0      15.051  42.396  20.614  0.00  0.00     0.011 A 
ENDBRANCH  24  25
ENDBRANCH  22  23
ENDBRANCH  21  22
ENDBRANCH   6  21
BRANCH   3  31
HETATM   31  O   UNK     0       5.192  45.907  19.118  0.00  0.00    -0.390 OA
HETATM   32  H   UNK     0       4.805  45.793  20.004  0.00  0.00     0.210 HD
ENDBRANCH   3  31
BRANCH   5  33
HETATM   33  O   UNK     0       9.521  46.888  20.933  0.00  0.00    -0.388 OA
HETATM   34  H   UNK     0      10.032  46.378  21.584  0.00  0.00     0.210 HD
ENDBRANCH   5  33
BRANCH   4  35
HETATM   35  O   UNK     0       7.520  47.604  18.892  0.00  0.00    -0.390 OA
HETATM   36  H   UNK     0       7.407  47.247  17.995  0.00  0.00     0.210 HD
ENDBRANCH   4  35
TORSDOF 13
ENDMDL
MODEL 7
REMARK VINA RESULT:    -7.112      2.501      3.889
REMARK INTER + INTRA:         -12.989
REMARK INTER:                 -11.267
REMARK INTRA:                  -1.722
REMARK UNBOUND:                -1.720
REMARK  13 active torsions:
REMARK  status: ('A' for Active; 'I' for Inactive)
REMARK    1  A    between atoms: O_2  and  C_16 
REMARK    2  A    between atoms: O_2  and  C_17 
REMARK    3  A    between atoms: O_4  and  C_12 
REMARK    4  A    between atoms: O_5  and  C_13 
REMARK    5  A    between atoms: O_6  and  C_15 
REMARK    6  A    between atoms: O_6  and  C_22 
REMARK    7  A    between atoms: O_7  and  C_14 
REMARK    8  A    between atoms: O_8  and  C_18 
REMARK    9  A    between atoms: O_9  and  C_19 
REMARK   10  A    between atoms: O_10  and  C_20 
REMARK   11  A    between atoms: C_11  and  C_16 
REMARK   12  A    between atoms: C_22  and  C_23 
REMARK   13  A    between atoms: C_24  and  C_25 
ROOT
HETATM    1  O   UNK     0       6.859  44.505  21.527  0.00  0.00    -0.348 OA
HETATM    2  C   UNK     0       8.215  44.730  21.139  0.00  0.00     0.180 C 
HETATM    3  C   UNK     0       8.363  46.134  20.546  0.00  0.00     0.180 C 
HETATM    4  C   UNK     0       7.397  46.334  19.380  0.00  0.00     0.183 C 
HETATM    5  C   UNK     0       5.976  45.915  19.759  0.00  0.00     0.204 C 
HETATM    6  C   UNK     0       5.961  44.538  20.421  0.00  0.00     0.291 C 
ENDROOT
BRANCH   2   7
HETATM    7  C   UNK     0       9.085  44.545  22.379  0.00  0.00     0.205 C 
BRANCH   7   8
HETATM    8  O   UNK     0       8.987  43.198  22.801  0.00  0.00    -0.356 OA
BRANCH   8   9
HETATM    9  C   UNK     0       9.341  43.047  24.172  0.00  0.00     0.290 C 
HETATM   10  O   UNK     0       9.590  41.679  24.514  0.00  0.00    -0.356 OA
HETATM   11  C   UNK     0       8.432  40.850  24.450  0.00  0.00     0.205 C 
HETATM   12  C   UNK     0       7.365  41.342  25.420  0.00  0.00     0.173 C 
HETATM   13  C   UNK     0       6.991  42.794  25.118  0.00  0.00     0.182 C 
HETATM   14  C   UNK     0       8.252  43.663  25.064  0.00  0.00     0.204 C 
BRANCH  12  15
HETATM   15  O   UNK     0       6.209  40.520  25.342  0.00  0.00    -0.391 OA
HETATM   16  H   UNK     0       6.216  40.084  24.473  0.00  0.00     0.210 HD
ENDBRANCH  12  15
BRANCH  13  17
HETATM   17  O   UNK     0       6.314  42.855  23.864  0.00  0.00    -0.390 OA
HETATM   18  H   UNK     0       6.790  43.494  23.306  0.00  0.00     0.210 HD
ENDBRANCH  13  17
BRANCH  14  19
HETATM   19  O   UNK     0       8.786  43.804  26.379  0.00  0.00    -0.388 OA
HETATM   20  H   UNK     0       8.344  44.554  26.811  0.00  0.00     0.210 HD
ENDBRANCH  14  19
ENDBRANCH   8   9
ENDBRANCH   7   8
ENDBRANCH   2   7
BRANCH   6  21
HETATM   21  O   UNK     0       4.631  44.281  20.871  0.00  0.00    -0.355 OA
BRANCH  21  22
HETATM   22  C   UNK     0       4.158  43.031  20.396  0.00  0.00     0.198 C 
BRANCH  22  23
HETATM   23  C   UNK     0       3.882  42.145  21.569  0.00  0.00     0.000 C 
HETATM   24  C   UNK     0       2.888  42.367  22.442  0.00  0.00     0.009 C 
BRANCH  24  25
HETATM   25  C   UNK     0       2.569  41.516  23.601  0.00  0.00    -0.036 A 
HETATM   26  C   UNK     0       3.036  41.873  24.855  0.00  0.00     0.011 A 
HETATM   27  C   UNK     0       2.735  41.067  25.954  0.00  0.00     0.001 A 
HETATM   28  C   UNK     0       1.969  39.915  25.782  0.00  0.00     0.000 A 
HETATM   29  C   UNK     0       1.505  39.567  24.514  0.00  0.00     0.001 A 
HETATM   30  C   UNK     0       1.806  40.373  23.415  0.00  0.00     0.011 A 
ENDBRANCH  24  25
ENDBRANCH  22  23
ENDBRANCH  21  22
ENDBRANCH   6  21
BRANCH   3  31
HETATM   31  O   UNK     0       9.700  46.314  20.089  0.00  0.00    -0.390 OA
HETATM   32  H   UNK     0       9.744  46.010  19.165  0.00  0.00     0.210 HD
ENDBRANCH   3  31
BRANCH   5  33
HETATM   33  O   UNK     0       5.171  45.856  18.581  0.00  0.00    -0.388 OA
HETATM   34  H   UNK     0       5.199  46.727  18.152  0.00  0.00     0.210 HD
ENDBRANCH   5  33
BRANCH   4  35
HETATM   35  O   UNK     0       7.407  47.720  19.031  0.00  0.00    -0.390 OA
HETATM   36  H   UNK     0       7.746  48.211  19.799  0.00  0.00     0.210 HD
ENDBRANCH   4  35
TORSDOF 13
ENDMDL
MODEL 8
REMARK VINA RESULT:    -7.025      2.412      8.970
REMARK INTER + INTRA:         -12.851
REMARK INTER:                 -11.624
REMARK INTRA:                  -1.227
REMARK UNBOUND:                -1.720
REMARK  13 active torsions:
REMARK  status: ('A' for Active; 'I' for Inactive)
REMARK    1  A    between atoms: O_2  and  C_16 
REMARK    2  A    between atoms: O_2  and  C_17 
REMARK    3  A    between atoms: O_4  and  C_12 
REMARK    4  A    between atoms: O_5  and  C_13 
REMARK    5  A    between atoms: O_6  and  C_15 
REMARK    6  A    between atoms: O_6  and  C_22 
REMARK    7  A    between atoms: O_7  and  C_14 
REMARK    8  A    between atoms: O_8  and  C_18 
REMARK    9  A    between atoms: O_9  and  C_19 
REMARK   10  A    between atoms: O_10  and  C_20 
REMARK   11  A    between atoms: C_11  and  C_16 
REMARK   12  A    between atoms: C_22  and  C_23 
REMARK   13  A    between atoms: C_24  and  C_25 
ROOT
HETATM    1  O   UNK     0       9.624  43.298  20.473  0.00  0.00    -0.348 OA
HETATM    2  C   UNK     0       8.682  44.167  21.103  0.00  0.00     0.180 C 
HETATM    3  C   UNK     0       7.739  44.764  20.055  0.00  0.00     0.180 C 
HETATM    4  C   UNK     0       8.529  45.480  18.961  0.00  0.00     0.183 C 
HETATM    5  C   UNK     0       9.655  44.597  18.422  0.00  0.00     0.204 C 
HETATM    6  C   UNK     0      10.474  43.985  19.558  0.00  0.00     0.291 C 
ENDROOT
BRANCH   2   7
HETATM    7  C   UNK     0       7.924  43.348  22.144  0.00  0.00     0.205 C 
BRANCH   7   8
HETATM    8  O   UNK     0       6.583  43.204  21.713  0.00  0.00    -0.356 OA
BRANCH   8   9
HETATM    9  C   UNK     0       5.696  42.999  22.808  0.00  0.00     0.290 C 
HETATM   10  O   UNK     0       5.006  41.748  22.713  0.00  0.00    -0.356 OA
HETATM   11  C   UNK     0       4.093  41.677  21.620  0.00  0.00     0.205 C 
HETATM   12  C   UNK     0       3.016  42.746  21.750  0.00  0.00     0.173 C 
HETATM   13  C   UNK     0       3.645  44.139  21.821  0.00  0.00     0.182 C 
HETATM   14  C   UNK     0       4.716  44.178  22.916  0.00  0.00     0.204 C 
BRANCH  12  15
HETATM   15  O   UNK     0       2.117  42.679  20.652  0.00  0.00    -0.391 OA
HETATM   16  H   UNK     0       1.972  43.588  20.335  0.00  0.00     0.210 HD
ENDBRANCH  12  15
BRANCH  13  17
HETATM   17  O   UNK     0       4.237  44.454  20.562  0.00  0.00    -0.390 OA
HETATM   18  H   UNK     0       5.127  44.063  20.551  0.00  0.00     0.210 HD
ENDBRANCH  13  17
BRANCH  14  19
HETATM   19  O   UNK     0       4.089  44.114  24.195  0.00  0.00    -0.388 OA
HETATM   20  H   UNK     0       4.781  44.049  24.874  0.00  0.00     0.210 HD
ENDBRANCH  14  19
ENDBRANCH   8   9
ENDBRANCH   7   8
ENDBRANCH   2   7
BRANCH   6  21
HETATM   21  O   UNK     0      11.405  43.069  18.984  0.00  0.00    -0.355 OA
BRANCH  21  22
HETATM   22  C   UNK     0      12.743  43.499  19.185  0.00  0.00     0.198 C 
BRANCH  22  23
HETATM   23  C   UNK     0      13.464  42.467  19.991  0.00  0.00     0.000 C 
HETATM   24  C   UNK     0      14.756  42.573  20.338  0.00  0.00     0.009 C 
BRANCH  24  25
HETATM   25  C   UNK     0      15.503  41.591  21.143  0.00  0.00    -0.036 A 
HETATM   26  C   UNK     0      16.871  41.466  20.964  0.00  0.00     0.011 A 
HETATM   27  C   UNK     0      17.579  40.536  21.725  0.00  0.00     0.001 A 
HETATM   28  C   UNK     0      16.909  39.744  22.657  0.00  0.00     0.000 A 
HETATM   29  C   UNK     0      15.531  39.880  22.826  0.00  0.00     0.001 A 
HETATM   30  C   UNK     0      14.823  40.810  22.065  0.00  0.00     0.011 A 
ENDBRANCH  24  25
ENDBRANCH  22  23
ENDBRANCH  21  22
ENDBRANCH   6  21
BRANCH   3  31
HETATM   31  O   UNK     0       6.859  45.691  20.686  0.00  0.00    -0.390 OA
HETATM   32  H   UNK     0       6.903  46.529  20.193  0.00  0.00     0.210 HD
ENDBRANCH   3  31
BRANCH   5  33
HETATM   33  O   UNK     0      10.529  45.384  17.613  0.00  0.00    -0.388 OA
HETATM   34  H   UNK     0      11.038  44.782  17.045  0.00  0.00     0.210 HD
ENDBRANCH   5  33
BRANCH   4  35
HETATM   35  O   UNK     0       7.626  45.800  17.901  0.00  0.00    -0.390 OA
HETATM   36  H   UNK     0       7.788  46.725  17.650  0.00  0.00     0.210 HD
ENDBRANCH   4  35
TORSDOF 13
ENDMDL
MODEL 9
REMARK VINA RESULT:    -7.007      1.814      5.487
REMARK INTER + INTRA:         -12.823
REMARK INTER:                 -11.103
REMARK INTRA:                  -1.720
REMARK UNBOUND:                -1.720
REMARK  13 active torsions:
REMARK  status: ('A' for Active; 'I' for Inactive)
REMARK    1  A    between atoms: O_2  and  C_16 
REMARK    2  A    between atoms: O_2  and  C_17 
REMARK    3  A    between atoms: O_4  and  C_12 
REMARK    4  A    between atoms: O_5  and  C_13 
REMARK    5  A    between atoms: O_6  and  C_15 
REMARK    6  A    between atoms: O_6  and  C_22 
REMARK    7  A    between atoms: O_7  and  C_14 
REMARK    8  A    between atoms: O_8  and  C_18 
REMARK    9  A    between atoms: O_9  and  C_19 
REMARK   10  A    between atoms: O_10  and  C_20 
REMARK   11  A    between atoms: C_11  and  C_16 
REMARK   12  A    between atoms: C_22  and  C_23 
REMARK   13  A    between atoms: C_24  and  C_25 
ROOT
HETATM    1  O   UNK     0       8.651  45.462  22.597  0.00  0.00    -0.348 OA
HETATM    2  C   UNK     0       9.714  45.439  21.643  0.00  0.00     0.180 C 
HETATM    3  C   UNK     0      10.242  44.011  21.483  0.00  0.00     0.180 C 
HETATM    4  C   UNK     0      10.675  43.438  22.832  0.00  0.00     0.183 C 
HETATM    5  C   UNK     0       9.590  43.635  23.892  0.00  0.00     0.204 C 
HETATM    6  C   UNK     0       9.077  45.075  23.900  0.00  0.00     0.291 C 
ENDROOT
BRANCH   2   7
HETATM    7  C   UNK     0       9.168  45.990  20.330  0.00  0.00     0.205 C 
BRANCH   7   8
HETATM    8  O   UNK     0       7.852  46.462  20.553  0.00  0.00    -0.356 OA
BRANCH   8   9
HETATM    9  C   UNK     0       7.055  46.381  19.376  0.00  0.00     0.290 C 
HETATM   10  O   UNK     0       5.740  46.910  19.580  0.00  0.00    -0.356 OA
HETATM   11  C   UNK     0       4.947  46.147  20.487  0.00  0.00     0.205 C 
HETATM   12  C   UNK     0       4.757  44.727  19.968  0.00  0.00     0.173 C 
HETATM   13  C   UNK     0       6.109  44.047  19.749  0.00  0.00     0.182 C 
HETATM   14  C   UNK     0       7.008  44.929  18.876  0.00  0.00     0.204 C 
BRANCH  12  15
HETATM   15  O   UNK     0       3.978  43.967  20.881  0.00  0.00    -0.391 OA
HETATM   16  H   UNK     0       3.704  44.563  21.601  0.00  0.00     0.210 HD
ENDBRANCH  12  15
BRANCH  13  17
HETATM   17  O   UNK     0       6.737  43.828  21.012  0.00  0.00    -0.390 OA
HETATM   18  H   UNK     0       6.159  43.241  21.528  0.00  0.00     0.210 HD
ENDBRANCH  13  17
BRANCH  14  19
HETATM   19  O   UNK     0       6.507  44.938  17.540  0.00  0.00    -0.388 OA
HETATM   20  H   UNK     0       6.289  45.855  17.301  0.00  0.00     0.210 HD
ENDBRANCH  14  19
ENDBRANCH   8   9
ENDBRANCH   7   8
ENDBRANCH   2   7
BRANCH   6  21
HETATM   21  O   UNK     0       7.978  45.144  24.808  0.00  0.00    -0.355 OA
BRANCH  21  22
HETATM   22  C   UNK     0       6.741  45.217  24.116  0.00  0.00     0.198 C 
BRANCH  22  23
HETATM   23  C   UNK     0       5.943  43.992  24.428  0.00  0.00     0.000 C 
HETATM   24  C   UNK     0       4.602  43.981  24.486  0.00  0.00     0.009 C 
BRANCH  24  25
HETATM   25  C   UNK     0       3.774  42.797  24.774  0.00  0.00    -0.036 A 
HETATM   26  C   UNK     0       3.710  42.312  26.071  0.00  0.00     0.011 A 
HETATM   27  C   UNK     0       2.926  41.191  26.344  0.00  0.00     0.001 A 
HETATM   28  C   UNK     0       2.215  40.571  25.317  0.00  0.00     0.000 A 
HETATM   29  C   UNK     0       2.289  41.070  24.017  0.00  0.00     0.001 A 
HETATM   30  C   UNK     0       3.073  42.191  23.743  0.00  0.00     0.011 A 
ENDBRANCH  24  25
ENDBRANCH  22  23
ENDBRANCH  21  22
ENDBRANCH   6  21
BRANCH   3  31
HETATM   31  O   UNK     0      11.355  44.016  20.593  0.00  0.00    -0.390 OA
HETATM   32  H   UNK     0      11.283  44.805  20.028  0.00  0.00     0.210 HD
ENDBRANCH   3  31
BRANCH   5  33
HETATM   33  O   UNK     0      10.130  43.344  25.181  0.00  0.00    -0.388 OA
HETATM   34  H   UNK     0      10.863  42.716  25.066  0.00  0.00     0.210 HD
ENDBRANCH   5  33
BRANCH   4  35
HETATM   35  O   UNK     0      10.924  42.042  22.660  0.00  0.00    -0.390 OA
HETATM   36  H   UNK     0      10.095  41.572  22.854  0.00  0.00     0.210 HD
ENDBRANCH   4  35
TORSDOF 13
ENDMDL
