REMARK VINA RESULT:      -7.1      0.000      0.000
REMARK SMILES O=C(O[C@@H]1[C@@H](OC(=O)c2cc(O)c(O)c(O)c2)[C@H](O)[C@@H](CO)O[C@H]1O)c1cc(O)c(O)c(O)c1
REMARK SMILES IDX 23 1 5 2 18 3 4 4 20 5 24 6 21 7 22 8 25 10 19 12 3 14 2 15
REMARK SMILES IDX 1 16 26 17 34 18 27 19 32 20 28 21 30 22 33 23 29 25 31 27
REMARK SMILES IDX 6 29 7 30 8 31 9 32 17 33 10 34 15 35 11 36 13 37 16 38
REMARK SMILES IDX 12 40 14 42
REMARK H PARENT 22 9 25 11 19 13 33 24 29 26 31 28 16 39 12 41 14 43
REMARK Flexibility Score: inf
ROOT
ATOM      1  O   UNL     1     187.572 184.971 174.171  1.00  0.00    -0.340 OA
ATOM      2  C   UNL     1     185.397 184.542 172.563  1.00  0.00     0.254 C 
ATOM      3  C   UNL     1     186.208 185.749 172.475  1.00  0.00     0.190 C 
ATOM      4  C   UNL     1     185.540 183.904 173.867  1.00  0.00     0.276 C 
ATOM      5  C   UNL     1     187.577 185.487 172.911  1.00  0.00     0.179 C 
ATOM      6  C   UNL     1     186.942 183.769 174.241  1.00  0.00     0.293 C 
ENDROOT
BRANCH   5   7
ATOM      7  C   UNL     1     188.375 186.702 172.937  1.00  0.00     0.191 C 
BRANCH   7   8
ATOM      8  O   UNL     1     187.924 187.491 173.935  1.00  0.00    -0.394 OA
ATOM      9  H   UNL     1     187.109 187.841 173.661  1.00  0.00     0.210 HD
ENDBRANCH   7   8
ENDBRANCH   5   7
BRANCH   6  10
ATOM     10  O   UNL     1     186.991 183.296 175.516  1.00  0.00    -0.365 OA
ATOM     11  H   UNL     1     186.904 183.208 176.355  1.00  0.00     0.214 HD
ENDBRANCH   6  10
BRANCH   3  12
ATOM     12  O   UNL     1     186.223 186.188 171.189  1.00  0.00    -0.386 OA
ATOM     13  H   UNL     1     186.046 187.099 171.194  1.00  0.00     0.211 HD
ENDBRANCH   3  12
BRANCH   4  14
ATOM     14  O   UNL     1     184.987 182.661 173.825  1.00  0.00    -0.449 OA
BRANCH  14  15
ATOM     15  C   UNL     1     184.061 182.425 174.700  1.00  0.00     0.339 C 
ATOM     16  O   UNL     1     184.210 182.332 175.851  1.00  0.00    -0.246 OA
BRANCH  15  17
ATOM     17  C   UNL     1     182.802 182.286 174.067  1.00  0.00     0.067 A 
ATOM     18  C   UNL     1     182.631 181.364 173.123  1.00  0.00     0.066 A 
ATOM     19  C   UNL     1     181.791 183.076 174.417  1.00  0.00     0.066 A 
ATOM     20  C   UNL     1     181.448 181.233 172.530  1.00  0.00     0.162 A 
ATOM     21  C   UNL     1     180.608 182.945 173.823  1.00  0.00     0.162 A 
ATOM     22  C   UNL     1     180.438 182.023 172.880  1.00  0.00     0.200 A 
BRANCH  20  23
ATOM     23  O   UNL     1     181.292 180.329 171.609  1.00  0.00    -0.504 OA
ATOM     24  H   UNL     1     182.014 179.747 171.632  1.00  0.00     0.293 HD
ENDBRANCH  20  23
BRANCH  21  25
ATOM     25  O   UNL     1     179.629 183.722 174.174  1.00  0.00    -0.504 OA
ATOM     26  H   UNL     1     179.916 184.283 174.854  1.00  0.00     0.293 HD
ENDBRANCH  21  25
BRANCH  22  27
ATOM     27  O   UNL     1     179.280 181.895 172.299  1.00  0.00    -0.502 OA
ATOM     28  H   UNL     1     179.390 181.370 171.541  1.00  0.00     0.293 HD
ENDBRANCH  22  27
ENDBRANCH  15  17
ENDBRANCH  14  15
ENDBRANCH   4  14
BRANCH   2  29
ATOM     29  O   UNL     1     184.096 184.893 172.370  1.00  0.00    -0.452 OA
BRANCH  29  30
ATOM     30  C   UNL     1     183.580 184.548 171.233  1.00  0.00     0.338 C 
ATOM     31  O   UNL     1     184.139 184.025 170.355  1.00  0.00    -0.246 OA
BRANCH  30  32
ATOM     32  C   UNL     1     182.209 184.894 171.183  1.00  0.00     0.067 A 
ATOM     33  C   UNL     1     181.728 185.822 172.006  1.00  0.00     0.066 A 
ATOM     34  C   UNL     1     181.403 184.296 170.313  1.00  0.00     0.066 A 
ATOM     35  C   UNL     1     180.440 186.150 171.958  1.00  0.00     0.162 A 
ATOM     36  C   UNL     1     180.114 184.623 170.264  1.00  0.00     0.162 A 
ATOM     37  C   UNL     1     179.634 185.551 171.087  1.00  0.00     0.200 A 
BRANCH  35  38
ATOM     38  O   UNL     1     179.982 187.059 172.767  1.00  0.00    -0.504 OA
ATOM     39  H   UNL     1     180.545 187.123 173.500  1.00  0.00     0.293 HD
ENDBRANCH  35  38
BRANCH  36  40
ATOM     40  O   UNL     1     179.337 184.031 169.410  1.00  0.00    -0.504 OA
ATOM     41  H   UNL     1     179.758 183.267 169.096  1.00  0.00     0.293 HD
ENDBRANCH  36  40
BRANCH  37  42
ATOM     42  O   UNL     1     178.373 185.870 171.041  1.00  0.00    -0.502 OA
ATOM     43  H   UNL     1     178.309 186.781 170.872  1.00  0.00     0.293 HD
ENDBRANCH  37  42
ENDBRANCH  30  32
ENDBRANCH  29  30
ENDBRANCH   2  29
TORSDOF 16
