REMARK VINA RESULT:      -6.9      1.752      6.472
REMARK SMILES O=C(O[C@@H]1[C@@H](OC(=O)c2cc(O)c(O)c(O)c2)[C@H](O)[C@@H](CO)O[C@H]1O)c1cc(O)c(O)c(O)c1
REMARK SMILES IDX 23 1 5 2 18 3 4 4 20 5 24 6 21 7 22 8 25 10 19 12 3 14 2 15
REMARK SMILES IDX 1 16 26 17 34 18 27 19 32 20 28 21 30 22 33 23 29 25 31 27
REMARK SMILES IDX 6 29 7 30 8 31 9 32 17 33 10 34 15 35 11 36 13 37 16 38
REMARK SMILES IDX 12 40 14 42
REMARK H PARENT 22 9 25 11 19 13 33 24 29 26 31 28 16 39 12 41 14 43
REMARK Flexibility Score: inf
ROOT
ATOM      1  O   UNL     1     180.128 182.715 171.314  1.00  0.00    -0.340 OA
ATOM      2  C   UNL     1     182.243 184.389 171.790  1.00  0.00     0.254 C 
ATOM      3  C   UNL     1     181.680 184.200 170.459  1.00  0.00     0.190 C 
ATOM      4  C   UNL     1     181.932 183.262 172.660  1.00  0.00     0.276 C 
ATOM      5  C   UNL     1     180.270 183.828 170.541  1.00  0.00     0.179 C 
ATOM      6  C   UNL     1     180.516 182.920 172.601  1.00  0.00     0.293 C 
ENDROOT
BRANCH   5   7
ATOM      7  C   UNL     1     179.717 183.525 169.231  1.00  0.00     0.191 C 
BRANCH   7   8
ATOM      8  O   UNL     1     179.226 184.664 168.699  1.00  0.00    -0.394 OA
ATOM      9  H   UNL     1     178.939 184.464 167.839  1.00  0.00     0.210 HD
ENDBRANCH   7   8
ENDBRANCH   5   7
BRANCH   6  10
ATOM     10  O   UNL     1     180.328 181.784 173.325  1.00  0.00    -0.365 OA
ATOM     11  H   UNL     1     180.200 180.978 173.555  1.00  0.00     0.214 HD
ENDBRANCH   6  10
BRANCH   3  12
ATOM     12  O   UNL     1     181.798 185.354 169.753  1.00  0.00    -0.386 OA
ATOM     13  H   UNL     1     181.420 185.220 168.916  1.00  0.00     0.211 HD
ENDBRANCH   3  12
BRANCH   4  14
ATOM     14  O   UNL     1     182.239 183.584 173.946  1.00  0.00    -0.449 OA
BRANCH  14  15
ATOM     15  C   UNL     1     183.091 182.806 174.535  1.00  0.00     0.339 C 
ATOM     16  O   UNL     1     182.892 181.716 174.895  1.00  0.00    -0.246 OA
BRANCH  15  17
ATOM     17  C   UNL     1     184.336 183.462 174.696  1.00  0.00     0.067 A 
ATOM     18  C   UNL     1     185.456 182.871 174.289  1.00  0.00     0.066 A 
ATOM     19  C   UNL     1     184.383 184.669 175.253  1.00  0.00     0.066 A 
ATOM     20  C   UNL     1     186.624 183.489 174.440  1.00  0.00     0.162 A 
ATOM     21  C   UNL     1     185.553 185.285 175.404  1.00  0.00     0.162 A 
ATOM     22  C   UNL     1     186.672 184.695 174.996  1.00  0.00     0.200 A 
BRANCH  20  23
ATOM     23  O   UNL     1     187.713 182.902 174.038  1.00  0.00    -0.504 OA
ATOM     24  H   UNL     1     187.489 182.117 173.598  1.00  0.00     0.293 HD
ENDBRANCH  20  23
BRANCH  21  25
ATOM     25  O   UNL     1     185.586 186.464 175.948  1.00  0.00    -0.504 OA
ATOM     26  H   UNL     1     184.884 186.971 175.616  1.00  0.00     0.293 HD
ENDBRANCH  21  25
BRANCH  22  27
ATOM     27  O   UNL     1     187.816 185.298 175.144  1.00  0.00    -0.502 OA
ATOM     28  H   UNL     1     188.486 184.657 175.149  1.00  0.00     0.293 HD
ENDBRANCH  22  27
ENDBRANCH  15  17
ENDBRANCH  14  15
ENDBRANCH   4  14
BRANCH   2  29
ATOM     29  O   UNL     1     183.594 184.505 171.664  1.00  0.00    -0.452 OA
BRANCH  29  30
ATOM     30  C   UNL     1     184.076 185.697 171.824  1.00  0.00     0.338 C 
ATOM     31  O   UNL     1     183.473 186.648 172.121  1.00  0.00    -0.246 OA
BRANCH  30  32
ATOM     32  C   UNL     1     185.471 185.705 171.585  1.00  0.00     0.067 A 
ATOM     33  C   UNL     1     186.056 184.647 171.029  1.00  0.00     0.066 A 
ATOM     34  C   UNL     1     186.196 186.769 171.912  1.00  0.00     0.066 A 
ATOM     35  C   UNL     1     187.366 184.655 170.802  1.00  0.00     0.162 A 
ATOM     36  C   UNL     1     187.507 186.778 171.686  1.00  0.00     0.162 A 
ATOM     37  C   UNL     1     188.091 185.721 171.130  1.00  0.00     0.200 A 
BRANCH  35  38
ATOM     38  O   UNL     1     187.926 183.616 170.258  1.00  0.00    -0.504 OA
ATOM     39  H   UNL     1     188.248 183.849 169.421  1.00  0.00     0.293 HD
ENDBRANCH  35  38
BRANCH  36  40
ATOM     40  O   UNL     1     188.203 187.824 172.010  1.00  0.00    -0.504 OA
ATOM     41  H   UNL     1     189.102 187.649 171.859  1.00  0.00     0.293 HD
ENDBRANCH  36  40
BRANCH  37  42
ATOM     42  O   UNL     1     189.373 185.728 170.910  1.00  0.00    -0.502 OA
ATOM     43  H   UNL     1     189.779 186.250 171.562  1.00  0.00     0.293 HD
ENDBRANCH  37  42
ENDBRANCH  30  32
ENDBRANCH  29  30
ENDBRANCH   2  29
TORSDOF 16
