REMARK VINA RESULT:      -6.8      2.596      5.015
REMARK SMILES O=C(O[C@@H]1[C@@H](OC(=O)c2cc(O)c(O)c(O)c2)[C@H](O)[C@@H](CO)O[C@H]1O)c1cc(O)c(O)c(O)c1
REMARK SMILES IDX 23 1 5 2 18 3 4 4 20 5 24 6 21 7 22 8 25 10 19 12 3 14 2 15
REMARK SMILES IDX 1 16 26 17 34 18 27 19 32 20 28 21 30 22 33 23 29 25 31 27
REMARK SMILES IDX 6 29 7 30 8 31 9 32 17 33 10 34 15 35 11 36 13 37 16 38
REMARK SMILES IDX 12 40 14 42
REMARK H PARENT 22 9 25 11 19 13 33 24 29 26 31 28 16 39 12 41 14 43
REMARK Flexibility Score: inf
ROOT
ATOM      1  O   UNL     1     186.632 188.641 170.234  1.00  0.00    -0.340 OA
ATOM      2  C   UNL     1     184.284 187.240 170.070  1.00  0.00     0.254 C 
ATOM      3  C   UNL     1     184.537 188.437 169.278  1.00  0.00     0.190 C 
ATOM      4  C   UNL     1     185.131 187.203 171.256  1.00  0.00     0.276 C 
ATOM      5  C   UNL     1     185.968 188.610 169.045  1.00  0.00     0.179 C 
ATOM      6  C   UNL     1     186.524 187.473 170.922  1.00  0.00     0.293 C 
ENDROOT
BRANCH   5   7
ATOM      7  C   UNL     1     186.253 189.857 168.352  1.00  0.00     0.191 C 
BRANCH   7   8
ATOM      8  O   UNL     1     187.377 190.391 168.874  1.00  0.00    -0.394 OA
ATOM      9  H   UNL     1     187.467 191.244 168.519  1.00  0.00     0.210 HD
ENDBRANCH   7   8
ENDBRANCH   5   7
BRANCH   6  10
ATOM     10  O   UNL     1     187.225 187.557 172.084  1.00  0.00    -0.365 OA
ATOM     11  H   UNL     1     187.591 187.378 172.828  1.00  0.00     0.214 HD
ENDBRANCH   6  10
BRANCH   3  12
ATOM     12  O   UNL     1     183.898 188.329 168.084  1.00  0.00    -0.386 OA
ATOM     13  H   UNL     1     184.181 189.027 167.542  1.00  0.00     0.211 HD
ENDBRANCH   3  12
BRANCH   4  14
ATOM     14  O   UNL     1     185.060 185.969 171.824  1.00  0.00    -0.449 OA
BRANCH  14  15
ATOM     15  C   UNL     1     184.614 185.932 173.040  1.00  0.00     0.339 C 
ATOM     16  O   UNL     1     183.580 186.322 173.406  1.00  0.00    -0.246 OA
BRANCH  15  17
ATOM     17  C   UNL     1     185.570 185.340 173.902  1.00  0.00     0.067 A 
ATOM     18  C   UNL     1     186.324 184.334 173.468  1.00  0.00     0.066 A 
ATOM     19  C   UNL     1     185.714 185.792 175.145  1.00  0.00     0.066 A 
ATOM     20  C   UNL     1     187.222 183.780 174.277  1.00  0.00     0.162 A 
ATOM     21  C   UNL     1     186.612 185.237 175.954  1.00  0.00     0.162 A 
ATOM     22  C   UNL     1     187.366 184.231 175.519  1.00  0.00     0.200 A 
BRANCH  20  23
ATOM     23  O   UNL     1     187.954 182.798 173.841  1.00  0.00    -0.504 OA
ATOM     24  H   UNL     1     188.812 182.886 174.181  1.00  0.00     0.293 HD
ENDBRANCH  20  23
BRANCH  21  25
ATOM     25  O   UNL     1     186.744 185.688 177.165  1.00  0.00    -0.504 OA
ATOM     26  H   UNL     1     186.204 185.192 177.733  1.00  0.00     0.293 HD
ENDBRANCH  21  25
BRANCH  22  27
ATOM     27  O   UNL     1     188.244 183.689 176.311  1.00  0.00    -0.502 OA
ATOM     28  H   UNL     1     188.763 183.101 175.814  1.00  0.00     0.293 HD
ENDBRANCH  22  27
ENDBRANCH  15  17
ENDBRANCH  14  15
ENDBRANCH   4  14
BRANCH   2  29
ATOM     29  O   UNL     1     182.976 187.254 170.448  1.00  0.00    -0.452 OA
BRANCH  29  30
ATOM     30  C   UNL     1     182.213 186.377 169.876  1.00  0.00     0.338 C 
ATOM     31  O   UNL     1     182.032 186.266 168.731  1.00  0.00    -0.246 OA
BRANCH  30  32
ATOM     32  C   UNL     1     181.605 185.542 170.843  1.00  0.00     0.067 A 
ATOM     33  C   UNL     1     182.038 184.296 171.012  1.00  0.00     0.066 A 
ATOM     34  C   UNL     1     180.602 186.003 171.583  1.00  0.00     0.066 A 
ATOM     35  C   UNL     1     181.469 183.511 171.922  1.00  0.00     0.162 A 
ATOM     36  C   UNL     1     180.031 185.218 172.494  1.00  0.00     0.162 A 
ATOM     37  C   UNL     1     180.465 183.973 172.663  1.00  0.00     0.200 A 
BRANCH  35  38
ATOM     38  O   UNL     1     181.902 182.296 172.079  1.00  0.00    -0.504 OA
ATOM     39  H   UNL     1     182.515 182.105 171.411  1.00  0.00     0.293 HD
ENDBRANCH  35  38
BRANCH  36  40
ATOM     40  O   UNL     1     179.052 185.680 173.211  1.00  0.00    -0.504 OA
ATOM     41  H   UNL     1     178.301 185.155 173.073  1.00  0.00     0.293 HD
ENDBRANCH  36  40
BRANCH  37  42
ATOM     42  O   UNL     1     179.906 183.205 173.552  1.00  0.00    -0.502 OA
ATOM     43  H   UNL     1     178.989 183.214 173.410  1.00  0.00     0.293 HD
ENDBRANCH  37  42
ENDBRANCH  30  32
ENDBRANCH  29  30
ENDBRANCH   2  29
TORSDOF 16
