REMARK VINA RESULT:      -6.8      2.080      6.693
REMARK SMILES O=C(O[C@@H]1[C@@H](OC(=O)c2cc(O)c(O)c(O)c2)[C@H](O)[C@@H](CO)O[C@H]1O)c1cc(O)c(O)c(O)c1
REMARK SMILES IDX 23 1 5 2 18 3 4 4 20 5 24 6 21 7 22 8 25 10 19 12 3 14 2 15
REMARK SMILES IDX 1 16 26 17 34 18 27 19 32 20 28 21 30 22 33 23 29 25 31 27
REMARK SMILES IDX 6 29 7 30 8 31 9 32 17 33 10 34 15 35 11 36 13 37 16 38
REMARK SMILES IDX 12 40 14 42
REMARK H PARENT 22 9 25 11 19 13 33 24 29 26 31 28 16 39 12 41 14 43
REMARK Flexibility Score: inf
ROOT
ATOM      1  O   UNL     1     179.480 185.719 171.526  1.00  0.00    -0.340 OA
ATOM      2  C   UNL     1     182.097 186.426 171.140  1.00  0.00     0.254 C 
ATOM      3  C   UNL     1     181.062 186.689 170.148  1.00  0.00     0.190 C 
ATOM      4  C   UNL     1     181.708 185.345 172.036  1.00  0.00     0.276 C 
ATOM      5  C   UNL     1     179.757 186.828 170.787  1.00  0.00     0.179 C 
ATOM      6  C   UNL     1     180.358 185.541 172.549  1.00  0.00     0.293 C 
ENDROOT
BRANCH   5   7
ATOM      7  C   UNL     1     178.692 186.979 169.808  1.00  0.00     0.191 C 
BRANCH   7   8
ATOM      8  O   UNL     1     178.436 188.296 169.652  1.00  0.00    -0.394 OA
ATOM      9  H   UNL     1     179.215 188.754 169.863  1.00  0.00     0.210 HD
ENDBRANCH   7   8
ENDBRANCH   5   7
BRANCH   6  10
ATOM     10  O   UNL     1     180.016 184.434 173.262  1.00  0.00    -0.365 OA
ATOM     11  H   UNL     1     179.581 183.839 173.683  1.00  0.00     0.214 HD
ENDBRANCH   6  10
BRANCH   3  12
ATOM     12  O   UNL     1     181.359 187.833 169.480  1.00  0.00    -0.386 OA
ATOM     13  H   UNL     1     182.051 187.650 168.889  1.00  0.00     0.211 HD
ENDBRANCH   3  12
BRANCH   4  14
ATOM     14  O   UNL     1     182.564 185.303 173.093  1.00  0.00    -0.449 OA
BRANCH  14  15
ATOM     15  C   UNL     1     183.083 184.144 173.354  1.00  0.00     0.339 C 
ATOM     16  O   UNL     1     182.663 183.111 173.018  1.00  0.00    -0.246 OA
BRANCH  15  17
ATOM     17  C   UNL     1     184.261 184.290 174.127  1.00  0.00     0.067 A 
ATOM     18  C   UNL     1     184.349 185.265 175.028  1.00  0.00     0.066 A 
ATOM     19  C   UNL     1     185.277 183.450 173.953  1.00  0.00     0.066 A 
ATOM     20  C   UNL     1     185.454 185.400 175.754  1.00  0.00     0.162 A 
ATOM     21  C   UNL     1     186.383 183.586 174.680  1.00  0.00     0.162 A 
ATOM     22  C   UNL     1     186.471 184.561 175.580  1.00  0.00     0.200 A 
BRANCH  20  23
ATOM     23  O   UNL     1     185.529 186.357 176.631  1.00  0.00    -0.504 OA
ATOM     24  H   UNL     1     186.339 186.796 176.531  1.00  0.00     0.293 HD
ENDBRANCH  20  23
BRANCH  21  25
ATOM     25  O   UNL     1     187.369 182.759 174.501  1.00  0.00    -0.504 OA
ATOM     26  H   UNL     1     187.062 182.018 174.037  1.00  0.00     0.293 HD
ENDBRANCH  21  25
BRANCH  22  27
ATOM     27  O   UNL     1     187.553 184.694 176.290  1.00  0.00    -0.502 OA
ATOM     28  H   UNL     1     187.308 184.842 177.173  1.00  0.00     0.293 HD
ENDBRANCH  22  27
ENDBRANCH  15  17
ENDBRANCH  14  15
ENDBRANCH   4  14
BRANCH   2  29
ATOM     29  O   UNL     1     183.236 186.079 170.479  1.00  0.00    -0.452 OA
BRANCH  29  30
ATOM     30  C   UNL     1     184.163 186.983 170.436  1.00  0.00     0.338 C 
ATOM     31  O   UNL     1     184.075 188.035 169.944  1.00  0.00    -0.246 OA
BRANCH  30  32
ATOM     32  C   UNL     1     185.335 186.523 171.082  1.00  0.00     0.067 A 
ATOM     33  C   UNL     1     185.974 185.453 170.617  1.00  0.00     0.066 A 
ATOM     34  C   UNL     1     185.801 187.162 172.150  1.00  0.00     0.066 A 
ATOM     35  C   UNL     1     187.077 185.021 171.221  1.00  0.00     0.162 A 
ATOM     36  C   UNL     1     186.904 186.731 172.756  1.00  0.00     0.162 A 
ATOM     37  C   UNL     1     187.542 185.661 172.290  1.00  0.00     0.200 A 
BRANCH  35  38
ATOM     38  O   UNL     1     187.692 183.975 170.756  1.00  0.00    -0.504 OA
ATOM     39  H   UNL     1     187.065 183.339 170.511  1.00  0.00     0.293 HD
ENDBRANCH  35  38
BRANCH  36  40
ATOM     40  O   UNL     1     187.348 187.364 173.799  1.00  0.00    -0.504 OA
ATOM     41  H   UNL     1     187.909 188.049 173.522  1.00  0.00     0.293 HD
ENDBRANCH  36  40
BRANCH  37  42
ATOM     42  O   UNL     1     188.621 185.239 172.883  1.00  0.00    -0.502 OA
ATOM     43  H   UNL     1     188.456 184.388 173.217  1.00  0.00     0.293 HD
ENDBRANCH  37  42
ENDBRANCH  30  32
ENDBRANCH  29  30
ENDBRANCH   2  29
TORSDOF 16
