REMARK VINA RESULT:      -7.0      1.925      7.287
REMARK SMILES O=C(O[C@@H]1[C@@H](OC(=O)c2cc(O)c(O)c(O)c2)[C@H](O)[C@@H](CO)O[C@H]1O)c1cc(O)c(O)c(O)c1
REMARK SMILES IDX 23 1 5 2 18 3 4 4 20 5 24 6 21 7 22 8 25 10 19 12 3 14 2 15
REMARK SMILES IDX 1 16 26 17 34 18 27 19 32 20 28 21 30 22 33 23 29 25 31 27
REMARK SMILES IDX 6 29 7 30 8 31 9 32 17 33 10 34 15 35 11 36 13 37 16 38
REMARK SMILES IDX 12 40 14 42
REMARK H PARENT 22 9 25 11 19 13 33 24 29 26 31 28 16 39 12 41 14 43
REMARK Flexibility Score: inf
ROOT
ATOM      1  O   UNL     1     180.893 183.175 170.094  1.00  0.00    -0.340 OA
ATOM      2  C   UNL     1     182.270 182.852 172.439  1.00  0.00     0.254 C 
ATOM      3  C   UNL     1     180.901 182.384 172.266  1.00  0.00     0.190 C 
ATOM      4  C   UNL     1     182.591 183.908 171.487  1.00  0.00     0.276 C 
ATOM      5  C   UNL     1     180.631 182.082 170.863  1.00  0.00     0.179 C 
ATOM      6  C   UNL     1     182.202 183.538 170.132  1.00  0.00     0.293 C 
ENDROOT
BRANCH   5   7
ATOM      7  C   UNL     1     179.239 181.720 170.650  1.00  0.00     0.191 C 
BRANCH   7   8
ATOM      8  O   UNL     1     178.569 182.815 170.231  1.00  0.00    -0.394 OA
ATOM      9  H   UNL     1     178.164 182.598 169.425  1.00  0.00     0.210 HD
ENDBRANCH   7   8
ENDBRANCH   5   7
BRANCH   6  10
ATOM     10  O   UNL     1     182.405 184.617 169.328  1.00  0.00    -0.365 OA
ATOM     11  H   UNL     1     182.595 185.391 169.038  1.00  0.00     0.214 HD
ENDBRANCH   6  10
BRANCH   3  12
ATOM     12  O   UNL     1     180.711 181.264 173.010  1.00  0.00    -0.386 OA
ATOM     13  H   UNL     1     180.068 180.744 172.590  1.00  0.00     0.211 HD
ENDBRANCH   3  12
BRANCH   4  14
ATOM     14  O   UNL     1     183.933 184.135 171.499  1.00  0.00    -0.449 OA
BRANCH  14  15
ATOM     15  C   UNL     1     184.295 185.373 171.624  1.00  0.00     0.339 C 
ATOM     16  O   UNL     1     183.595 186.275 171.852  1.00  0.00    -0.246 OA
BRANCH  15  17
ATOM     17  C   UNL     1     185.693 185.503 171.440  1.00  0.00     0.067 A 
ATOM     18  C   UNL     1     186.385 184.515 170.878  1.00  0.00     0.066 A 
ATOM     19  C   UNL     1     186.315 186.613 171.828  1.00  0.00     0.066 A 
ATOM     20  C   UNL     1     187.697 184.638 170.704  1.00  0.00     0.162 A 
ATOM     21  C   UNL     1     187.628 186.735 171.654  1.00  0.00     0.162 A 
ATOM     22  C   UNL     1     188.318 185.748 171.092  1.00  0.00     0.200 A 
BRANCH  20  23
ATOM     23  O   UNL     1     188.362 183.666 170.154  1.00  0.00    -0.504 OA
ATOM     24  H   UNL     1     189.102 184.015 169.716  1.00  0.00     0.293 HD
ENDBRANCH  20  23
BRANCH  21  25
ATOM     25  O   UNL     1     188.222 187.825 172.036  1.00  0.00    -0.504 OA
ATOM     26  H   UNL     1     189.089 187.829 171.707  1.00  0.00     0.293 HD
ENDBRANCH  21  25
BRANCH  22  27
ATOM     27  O   UNL     1     189.603 185.868 170.923  1.00  0.00    -0.502 OA
ATOM     28  H   UNL     1     190.019 185.141 171.323  1.00  0.00     0.293 HD
ENDBRANCH  22  27
ENDBRANCH  15  17
ENDBRANCH  14  15
ENDBRANCH   4  14
BRANCH   2  29
ATOM     29  O   UNL     1     182.394 183.332 173.708  1.00  0.00    -0.452 OA
BRANCH  29  30
ATOM     30  C   UNL     1     183.192 182.672 174.486  1.00  0.00     0.338 C 
ATOM     31  O   UNL     1     182.963 181.653 175.001  1.00  0.00    -0.246 OA
BRANCH  30  32
ATOM     32  C   UNL     1     184.418 183.361 174.640  1.00  0.00     0.067 A 
ATOM     33  C   UNL     1     185.555 182.793 174.247  1.00  0.00     0.066 A 
ATOM     34  C   UNL     1     184.434 184.578 175.176  1.00  0.00     0.066 A 
ATOM     35  C   UNL     1     186.707 183.442 174.390  1.00  0.00     0.162 A 
ATOM     36  C   UNL     1     185.587 185.227 175.320  1.00  0.00     0.162 A 
ATOM     37  C   UNL     1     186.722 184.659 174.926  1.00  0.00     0.200 A 
BRANCH  35  38
ATOM     38  O   UNL     1     187.810 182.876 174.000  1.00  0.00    -0.504 OA
ATOM     39  H   UNL     1     188.056 182.232 174.620  1.00  0.00     0.293 HD
ENDBRANCH  35  38
BRANCH  36  40
ATOM     40  O   UNL     1     185.589 186.415 175.844  1.00  0.00    -0.504 OA
ATOM     41  H   UNL     1     184.814 186.859 175.593  1.00  0.00     0.293 HD
ENDBRANCH  36  40
BRANCH  37  42
ATOM     42  O   UNL     1     187.850 185.293 175.067  1.00  0.00    -0.502 OA
ATOM     43  H   UNL     1     187.904 185.943 174.407  1.00  0.00     0.293 HD
ENDBRANCH  37  42
ENDBRANCH  30  32
ENDBRANCH  29  30
ENDBRANCH   2  29
TORSDOF 16
