REMARK VINA RESULT:      -6.9      1.754      6.476
REMARK SMILES O=C(O[C@@H]1[C@@H](OC(=O)c2cc(O)c(O)c(O)c2)[C@H](O)[C@@H](CO)O[C@H]1O)c1cc(O)c(O)c(O)c1
REMARK SMILES IDX 23 1 5 2 18 3 4 4 20 5 24 6 21 7 22 8 25 10 19 12 3 14 2 15
REMARK SMILES IDX 1 16 26 17 34 18 27 19 32 20 28 21 30 22 33 23 29 25 31 27
REMARK SMILES IDX 6 29 7 30 8 31 9 32 17 33 10 34 15 35 11 36 13 37 16 38
REMARK SMILES IDX 12 40 14 42
REMARK H PARENT 22 9 25 11 19 13 33 24 29 26 31 28 16 39 12 41 14 43
REMARK Flexibility Score: inf
ROOT
ATOM      1  O   UNL     1     180.025 182.956 171.385  1.00  0.00    -0.340 OA
ATOM      2  C   UNL     1     182.211 184.526 171.889  1.00  0.00     0.254 C 
ATOM      3  C   UNL     1     181.607 184.429 170.567  1.00  0.00     0.190 C 
ATOM      4  C   UNL     1     181.882 183.364 172.706  1.00  0.00     0.276 C 
ATOM      5  C   UNL     1     180.188 184.103 170.669  1.00  0.00     0.179 C 
ATOM      6  C   UNL     1     180.453 183.077 172.669  1.00  0.00     0.293 C 
ENDROOT
BRANCH   5   7
ATOM      7  C   UNL     1     179.589 183.892 169.361  1.00  0.00     0.191 C 
BRANCH   7   8
ATOM      8  O   UNL     1     179.071 185.062 168.931  1.00  0.00    -0.394 OA
ATOM      9  H   UNL     1     179.750 185.693 168.969  1.00  0.00     0.210 HD
ENDBRANCH   7   8
ENDBRANCH   5   7
BRANCH   6  10
ATOM     10  O   UNL     1     180.243 181.911 173.337  1.00  0.00    -0.365 OA
ATOM     11  H   UNL     1     180.172 181.090 173.537  1.00  0.00     0.214 HD
ENDBRANCH   6  10
BRANCH   3  12
ATOM     12  O   UNL     1     181.750 185.615 169.920  1.00  0.00    -0.386 OA
ATOM     13  H   UNL     1     181.003 186.135 170.103  1.00  0.00     0.211 HD
ENDBRANCH   3  12
BRANCH   4  14
ATOM     14  O   UNL     1     182.235 183.605 173.998  1.00  0.00    -0.449 OA
BRANCH  14  15
ATOM     15  C   UNL     1     183.098 182.785 174.510  1.00  0.00     0.339 C 
ATOM     16  O   UNL     1     182.905 181.672 174.792  1.00  0.00    -0.246 OA
BRANCH  15  17
ATOM     17  C   UNL     1     184.346 183.428 174.695  1.00  0.00     0.067 A 
ATOM     18  C   UNL     1     184.403 184.605 175.312  1.00  0.00     0.066 A 
ATOM     19  C   UNL     1     185.461 182.854 174.252  1.00  0.00     0.066 A 
ATOM     20  C   UNL     1     185.575 185.207 175.487  1.00  0.00     0.162 A 
ATOM     21  C   UNL     1     186.634 183.458 174.427  1.00  0.00     0.162 A 
ATOM     22  C   UNL     1     186.690 184.634 175.044  1.00  0.00     0.200 A 
BRANCH  20  23
ATOM     23  O   UNL     1     185.618 186.357 176.091  1.00  0.00    -0.504 OA
ATOM     24  H   UNL     1     185.991 186.986 175.521  1.00  0.00     0.293 HD
ENDBRANCH  20  23
BRANCH  21  25
ATOM     25  O   UNL     1     187.715 182.887 173.991  1.00  0.00    -0.504 OA
ATOM     26  H   UNL     1     187.669 181.977 174.163  1.00  0.00     0.293 HD
ENDBRANCH  21  25
BRANCH  22  27
ATOM     27  O   UNL     1     187.837 185.224 175.214  1.00  0.00    -0.502 OA
ATOM     28  H   UNL     1     188.508 184.588 175.135  1.00  0.00     0.293 HD
ENDBRANCH  22  27
ENDBRANCH  15  17
ENDBRANCH  14  15
ENDBRANCH   4  14
BRANCH   2  29
ATOM     29  O   UNL     1     183.562 184.600 171.731  1.00  0.00    -0.452 OA
BRANCH  29  30
ATOM     30  C   UNL     1     184.097 185.753 171.981  1.00  0.00     0.338 C 
ATOM     31  O   UNL     1     183.549 186.687 172.410  1.00  0.00    -0.246 OA
BRANCH  30  32
ATOM     32  C   UNL     1     185.475 185.741 171.658  1.00  0.00     0.067 A 
ATOM     33  C   UNL     1     186.256 186.748 172.039  1.00  0.00     0.066 A 
ATOM     34  C   UNL     1     185.990 184.723 170.977  1.00  0.00     0.066 A 
ATOM     35  C   UNL     1     187.551 186.737 171.739  1.00  0.00     0.162 A 
ATOM     36  C   UNL     1     187.286 184.710 170.675  1.00  0.00     0.162 A 
ATOM     37  C   UNL     1     188.066 185.718 171.057  1.00  0.00     0.200 A 
BRANCH  35  38
ATOM     38  O   UNL     1     188.303 187.727 172.118  1.00  0.00    -0.504 OA
ATOM     39  H   UNL     1     188.570 188.207 171.371  1.00  0.00     0.293 HD
ENDBRANCH  35  38
BRANCH  36  40
ATOM     40  O   UNL     1     187.777 183.710 170.010  1.00  0.00    -0.504 OA
ATOM     41  H   UNL     1     188.533 183.397 170.446  1.00  0.00     0.293 HD
ENDBRANCH  36  40
BRANCH  37  42
ATOM     42  O   UNL     1     189.333 185.707 170.761  1.00  0.00    -0.502 OA
ATOM     43  H   UNL     1     189.814 185.899 171.531  1.00  0.00     0.293 HD
ENDBRANCH  37  42
ENDBRANCH  30  32
ENDBRANCH  29  30
ENDBRANCH   2  29
TORSDOF 16
