REMARK VINA RESULT:      -6.9      1.880      7.397
REMARK SMILES O=C(O[C@@H]1[C@@H](OC(=O)c2cc(O)c(O)c(O)c2)[C@H](O)[C@@H](CO)O[C@H]1O)c1cc(O)c(O)c(O)c1
REMARK SMILES IDX 23 1 5 2 18 3 4 4 20 5 24 6 21 7 22 8 25 10 19 12 3 14 2 15
REMARK SMILES IDX 1 16 26 17 34 18 27 19 32 20 28 21 30 22 33 23 29 25 31 27
REMARK SMILES IDX 6 29 7 30 8 31 9 32 17 33 10 34 15 35 11 36 13 37 16 38
REMARK SMILES IDX 12 40 14 42
REMARK H PARENT 22 9 25 11 19 13 33 24 29 26 31 28 16 39 12 41 14 43
REMARK Flexibility Score: inf
ROOT
ATOM      1  O   UNL     1     180.833 183.433 170.061  1.00  0.00    -0.340 OA
ATOM      2  C   UNL     1     182.214 182.952 172.377  1.00  0.00     0.254 C 
ATOM      3  C   UNL     1     180.832 182.529 172.189  1.00  0.00     0.190 C 
ATOM      4  C   UNL     1     182.557 184.048 171.479  1.00  0.00     0.276 C 
ATOM      5  C   UNL     1     180.547 182.308 170.774  1.00  0.00     0.179 C 
ATOM      6  C   UNL     1     182.152 183.759 170.109  1.00  0.00     0.293 C 
ENDROOT
BRANCH   5   7
ATOM      7  C   UNL     1     179.144 181.994 170.551  1.00  0.00     0.191 C 
BRANCH   7   8
ATOM      8  O   UNL     1     178.503 183.124 170.185  1.00  0.00    -0.394 OA
ATOM      9  H   UNL     1     179.009 183.522 169.517  1.00  0.00     0.210 HD
ENDBRANCH   7   8
ENDBRANCH   5   7
BRANCH   6  10
ATOM     10  O   UNL     1     182.378 184.873 169.361  1.00  0.00    -0.365 OA
ATOM     11  H   UNL     1     182.568 185.401 168.725  1.00  0.00     0.214 HD
ENDBRANCH   6  10
BRANCH   3  12
ATOM     12  O   UNL     1     180.618 181.377 172.875  1.00  0.00    -0.386 OA
ATOM     13  H   UNL     1     179.949 180.903 172.440  1.00  0.00     0.211 HD
ENDBRANCH   3  12
BRANCH   4  14
ATOM     14  O   UNL     1     183.905 184.240 171.493  1.00  0.00    -0.449 OA
BRANCH  14  15
ATOM     15  C   UNL     1     184.299 185.462 171.669  1.00  0.00     0.339 C 
ATOM     16  O   UNL     1     183.625 186.369 171.948  1.00  0.00    -0.246 OA
BRANCH  15  17
ATOM     17  C   UNL     1     185.698 185.565 171.473  1.00  0.00     0.067 A 
ATOM     18  C   UNL     1     186.347 186.655 171.874  1.00  0.00     0.066 A 
ATOM     19  C   UNL     1     186.363 184.572 170.890  1.00  0.00     0.066 A 
ATOM     20  C   UNL     1     187.660 186.751 171.691  1.00  0.00     0.162 A 
ATOM     21  C   UNL     1     187.677 184.669 170.708  1.00  0.00     0.162 A 
ATOM     22  C   UNL     1     188.325 185.759 171.109  1.00  0.00     0.200 A 
BRANCH  20  23
ATOM     23  O   UNL     1     188.283 187.822 172.087  1.00  0.00    -0.504 OA
ATOM     24  H   UNL     1     189.196 187.658 172.089  1.00  0.00     0.293 HD
ENDBRANCH  20  23
BRANCH  21  25
ATOM     25  O   UNL     1     188.315 183.691 170.138  1.00  0.00    -0.504 OA
ATOM     26  H   UNL     1     188.411 183.877 169.235  1.00  0.00     0.293 HD
ENDBRANCH  21  25
BRANCH  22  27
ATOM     27  O   UNL     1     189.610 185.853 170.929  1.00  0.00    -0.502 OA
ATOM     28  H   UNL     1     189.930 186.545 171.458  1.00  0.00     0.293 HD
ENDBRANCH  22  27
ENDBRANCH  15  17
ENDBRANCH  14  15
ENDBRANCH   4  14
BRANCH   2  29
ATOM     29  O   UNL     1     182.358 183.362 173.667  1.00  0.00    -0.452 OA
BRANCH  29  30
ATOM     30  C   UNL     1     183.161 182.656 174.398  1.00  0.00     0.338 C 
ATOM     31  O   UNL     1     182.942 181.600 174.838  1.00  0.00    -0.246 OA
BRANCH  30  32
ATOM     32  C   UNL     1     184.379 183.346 174.605  1.00  0.00     0.067 A 
ATOM     33  C   UNL     1     185.529 182.791 174.232  1.00  0.00     0.066 A 
ATOM     34  C   UNL     1     184.375 184.549 175.171  1.00  0.00     0.066 A 
ATOM     35  C   UNL     1     186.674 183.440 174.424  1.00  0.00     0.162 A 
ATOM     36  C   UNL     1     185.520 185.199 175.364  1.00  0.00     0.162 A 
ATOM     37  C   UNL     1     186.669 184.644 174.990  1.00  0.00     0.200 A 
BRANCH  35  38
ATOM     38  O   UNL     1     187.791 182.888 174.053  1.00  0.00    -0.504 OA
ATOM     39  H   UNL     1     188.346 182.805 174.790  1.00  0.00     0.293 HD
ENDBRANCH  35  38
BRANCH  36  40
ATOM     40  O   UNL     1     185.502 186.373 175.917  1.00  0.00    -0.504 OA
ATOM     41  H   UNL     1     186.368 186.616 176.141  1.00  0.00     0.293 HD
ENDBRANCH  36  40
BRANCH  37  42
ATOM     42  O   UNL     1     187.789 185.278 175.180  1.00  0.00    -0.502 OA
ATOM     43  H   UNL     1     187.743 185.712 175.999  1.00  0.00     0.293 HD
ENDBRANCH  37  42
ENDBRANCH  30  32
ENDBRANCH  29  30
ENDBRANCH   2  29
TORSDOF 16
