MODEL 1
REMARK VINA RESULT:     -12.2      0.000      0.000
REMARK  11 active torsions:
REMARK  status: ('A' for Active; 'I' for Inactive)
REMARK    1  A    between atoms: O_2  and  C_16 
REMARK    2  A    between atoms: O_2  and  C_18 
REMARK    3  A    between atoms: O_3  and  C_12 
REMARK    4  A    between atoms: O_4  and  C_13 
REMARK    5  A    between atoms: O_5  and  C_14 
REMARK    6  A    between atoms: O_6  and  C_17 
REMARK    7  A    between atoms: O_8  and  C_23 
REMARK    8  A    between atoms: O_10  and  C_30 
REMARK    9  A    between atoms: O_11  and  C_32 
REMARK   10  A    between atoms: C_15  and  C_17 
REMARK   11  A    between atoms: C_25  and  C_27 
ROOT
HETATM    1  O   UNK     0      32.653  20.932  92.473  0.00  0.00    -0.348 OA
HETATM    2  C   UNK     0      34.517  23.086  92.843  0.00  0.00     0.183 C 
HETATM    3  C   UNK     0      34.571  21.802  93.672  0.00  0.00     0.180 C 
HETATM    4  C   UNK     0      33.124  23.304  92.251  0.00  0.00     0.205 C 
HETATM    5  C   UNK     0      33.985  20.625  92.890  0.00  0.00     0.179 C 
HETATM    6  C   UNK     0      32.603  22.037  91.573  0.00  0.00     0.298 C 
ENDROOT
BRANCH   5   7
HETATM    7  C   UNK     0      33.921  19.360  93.739  0.00  0.00     0.198 C 
BRANCH   7   8
HETATM    8  O   UNK     0      35.229  18.829  93.855  0.00  0.00    -0.398 OA
HETATM    9  H   UNK     0      35.782  19.499  94.293  0.00  0.00     0.209 HD
ENDBRANCH   7   8
ENDBRANCH   5   7
BRANCH   6  10
HETATM   10  O   UNK     0      31.253  22.274  91.176  0.00  0.00    -0.318 OA
BRANCH  10  11
HETATM   11  C   UNK     0      30.689  21.351  90.346  0.00  0.00     0.077 A 
HETATM   12  C   UNK     0      30.805  19.991  90.638  0.00  0.00     0.075 A 
HETATM   13  C   UNK     0      30.228  19.048  89.787  0.00  0.00     0.095 A 
HETATM   14  O   UNK     0      30.374  17.726  90.125  0.00  0.00    -0.309 OA
HETATM   15  C   UNK     0      29.539  19.465  88.649  0.00  0.00     0.081 A 
HETATM   16  C   UNK     0      29.806  16.767  89.301  0.00  0.00     0.090 A 
HETATM   17  C   UNK     0      29.126  17.043  88.177  0.00  0.00     0.094 A 
HETATM   18  C   UNK     0      28.942  18.450  87.768  0.00  0.00     0.190 A 
HETATM   19  O   UNK     0      28.328  18.745  86.753  0.00  0.00    -0.287 OA
HETATM   20  C   UNK     0      29.422  20.826  88.353  0.00  0.00     0.085 A 
HETATM   21  C   UNK     0      30.000  21.767  89.207  0.00  0.00     0.074 A 
BRANCH  16  22
HETATM   22  C   UNK     0      30.028  15.379  89.755  0.00  0.00     0.001 A 
HETATM   23  C   UNK     0      30.769  15.130  90.912  0.00  0.00     0.053 A 
HETATM   24  C   UNK     0      30.978  13.819  91.341  0.00  0.00     0.099 A 
HETATM   25  C   UNK     0      30.447  12.754  90.614  0.00  0.00     0.098 A 
HETATM   26  C   UNK     0      29.705  13.000  89.458  0.00  0.00     0.040 A 
HETATM   27  C   UNK     0      29.496  14.310  89.029  0.00  0.00     0.017 A 
BRANCH  24  28
HETATM   28  O   UNK     0      31.706  13.590  92.470  0.00  0.00    -0.358 OA
HETATM   29  H   UNK     0      32.536  13.153  92.215  0.00  0.00     0.217 HD
ENDBRANCH  24  28
BRANCH  25  30
HETATM   30  O   UNK     0      30.643  11.470  91.023  0.00  0.00    -0.358 OA
HETATM   31  H   UNK     0      31.056  11.477  91.904  0.00  0.00     0.217 HD
ENDBRANCH  25  30
ENDBRANCH  16  22
BRANCH  20  32
HETATM   32  O   UNK     0      28.760  21.283  87.255  0.00  0.00    -0.360 OA
HETATM   33  H   UNK     0      28.333  22.133  87.442  0.00  0.00     0.217 HD
ENDBRANCH  20  32
ENDBRANCH  10  11
ENDBRANCH   6  10
BRANCH   3  34
HETATM   34  O   UNK     0      35.927  21.517  94.009  0.00  0.00    -0.390 OA
HETATM   35  H   UNK     0      36.054  21.734  94.948  0.00  0.00     0.210 HD
ENDBRANCH   3  34
BRANCH   4  36
HETATM   36  O   UNK     0      33.182  24.343  91.274  0.00  0.00    -0.388 OA
HETATM   37  H   UNK     0      32.271  24.620  91.075  0.00  0.00     0.210 HD
ENDBRANCH   4  36
BRANCH   2  38
HETATM   38  O   UNK     0      34.847  24.181  93.699  0.00  0.00    -0.390 OA
HETATM   39  H   UNK     0      34.886  24.980  93.146  0.00  0.00     0.210 HD
ENDBRANCH   2  38
TORSDOF 11
ENDMDL
MODEL 2
REMARK VINA RESULT:     -11.9     29.763     33.220
REMARK  11 active torsions:
REMARK  status: ('A' for Active; 'I' for Inactive)
REMARK    1  A    between atoms: O_2  and  C_16 
REMARK    2  A    between atoms: O_2  and  C_18 
REMARK    3  A    between atoms: O_3  and  C_12 
REMARK    4  A    between atoms: O_4  and  C_13 
REMARK    5  A    between atoms: O_5  and  C_14 
REMARK    6  A    between atoms: O_6  and  C_17 
REMARK    7  A    between atoms: O_8  and  C_23 
REMARK    8  A    between atoms: O_10  and  C_30 
REMARK    9  A    between atoms: O_11  and  C_32 
REMARK   10  A    between atoms: C_15  and  C_17 
REMARK   11  A    between atoms: C_25  and  C_27 
ROOT
HETATM    1  O   UNK     0       8.714  37.943  86.382  0.00  0.00    -0.348 OA
HETATM    2  C   UNK     0       7.120  36.415  84.544  0.00  0.00     0.183 C 
HETATM    3  C   UNK     0       6.850  36.431  86.049  0.00  0.00     0.180 C 
HETATM    4  C   UNK     0       8.565  36.811  84.238  0.00  0.00     0.205 C 
HETATM    5  C   UNK     0       7.329  37.743  86.674  0.00  0.00     0.179 C 
HETATM    6  C   UNK     0       8.963  38.084  84.984  0.00  0.00     0.298 C 
ENDROOT
BRANCH   5   7
HETATM    7  C   UNK     0       7.176  37.734  88.191  0.00  0.00     0.198 C 
BRANCH   7   8
HETATM    8  O   UNK     0       7.274  36.397  88.646  0.00  0.00    -0.398 OA
HETATM    9  H   UNK     0       8.047  35.993  88.214  0.00  0.00     0.209 HD
ENDBRANCH   7   8
ENDBRANCH   5   7
BRANCH   6  10
HETATM   10  O   UNK     0      10.355  38.307  84.763  0.00  0.00    -0.318 OA
BRANCH  10  11
HETATM   11  C   UNK     0      10.697  39.476  84.149  0.00  0.00     0.077 A 
HETATM   12  C   UNK     0      10.095  40.671  84.546  0.00  0.00     0.075 A 
HETATM   13  C   UNK     0      10.446  41.865  83.917  0.00  0.00     0.095 A 
HETATM   14  O   UNK     0       9.822  43.008  84.348  0.00  0.00    -0.309 OA
HETATM   15  C   UNK     0      11.394  41.862  82.894  0.00  0.00     0.081 A 
HETATM   16  C   UNK     0      10.155  44.211  83.745  0.00  0.00     0.090 A 
HETATM   17  C   UNK     0      11.046  44.335  82.749  0.00  0.00     0.094 A 
HETATM   18  C   UNK     0      11.743  43.135  82.246  0.00  0.00     0.190 A 
HETATM   19  O   UNK     0      12.563  43.204  81.341  0.00  0.00    -0.287 OA
HETATM   20  C   UNK     0      11.998  40.667  82.494  0.00  0.00     0.085 A 
HETATM   21  C   UNK     0      11.645  39.474  83.127  0.00  0.00     0.074 A 
BRANCH  16  22
HETATM   22  C   UNK     0       9.421  45.375  84.282  0.00  0.00     0.001 A 
HETATM   23  C   UNK     0       8.619  45.235  85.416  0.00  0.00     0.053 A 
HETATM   24  C   UNK     0       7.927  46.335  85.924  0.00  0.00     0.099 A 
HETATM   25  C   UNK     0       8.034  47.576  85.298  0.00  0.00     0.098 A 
HETATM   26  C   UNK     0       8.835  47.719  84.165  0.00  0.00     0.040 A 
HETATM   27  C   UNK     0       9.528  46.621  83.657  0.00  0.00     0.017 A 
BRANCH  24  28
HETATM   28  O   UNK     0       7.145  46.184  87.030  0.00  0.00    -0.358 OA
HETATM   29  H   UNK     0       7.483  45.429  87.542  0.00  0.00     0.217 HD
ENDBRANCH  24  28
BRANCH  25  30
HETATM   30  O   UNK     0       7.364  48.658  85.785  0.00  0.00    -0.358 OA
HETATM   31  H   UNK     0       7.872  49.463  85.583  0.00  0.00     0.217 HD
ENDBRANCH  25  30
ENDBRANCH  16  22
BRANCH  20  32
HETATM   32  O   UNK     0      12.928  40.612  81.501  0.00  0.00    -0.360 OA
HETATM   33  H   UNK     0      13.190  41.504  81.229  0.00  0.00     0.217 HD
ENDBRANCH  20  32
ENDBRANCH  10  11
ENDBRANCH   6  10
BRANCH   3  34
HETATM   34  O   UNK     0       5.449  36.285  86.277  0.00  0.00    -0.390 OA
HETATM   35  H   UNK     0       5.033  37.154  86.148  0.00  0.00     0.210 HD
ENDBRANCH   3  34
BRANCH   4  36
HETATM   36  O   UNK     0       8.704  37.051  82.838  0.00  0.00    -0.388 OA
HETATM   37  H   UNK     0       8.246  36.336  82.363  0.00  0.00     0.210 HD
ENDBRANCH   4  36
BRANCH   2  38
HETATM   38  O   UNK     0       6.878  35.091  84.065  0.00  0.00    -0.390 OA
HETATM   39  H   UNK     0       7.652  34.551  84.301  0.00  0.00     0.210 HD
ENDBRANCH   2  38
TORSDOF 11
ENDMDL
MODEL 3
REMARK VINA RESULT:     -11.5      2.948      7.520
REMARK  11 active torsions:
REMARK  status: ('A' for Active; 'I' for Inactive)
REMARK    1  A    between atoms: O_2  and  C_16 
REMARK    2  A    between atoms: O_2  and  C_18 
REMARK    3  A    between atoms: O_3  and  C_12 
REMARK    4  A    between atoms: O_4  and  C_13 
REMARK    5  A    between atoms: O_5  and  C_14 
REMARK    6  A    between atoms: O_6  and  C_17 
REMARK    7  A    between atoms: O_8  and  C_23 
REMARK    8  A    between atoms: O_10  and  C_30 
REMARK    9  A    between atoms: O_11  and  C_32 
REMARK   10  A    between atoms: C_15  and  C_17 
REMARK   11  A    between atoms: C_25  and  C_27 
ROOT
HETATM    1  O   UNK     0      32.657  18.163  94.024  0.00  0.00    -0.348 OA
HETATM    2  C   UNK     0      34.060  15.661  94.165  0.00  0.00     0.183 C 
HETATM    3  C   UNK     0      32.538  15.755  94.273  0.00  0.00     0.180 C 
HETATM    4  C   UNK     0      34.724  16.991  94.525  0.00  0.00     0.205 C 
HETATM    5  C   UNK     0      32.016  16.985  93.528  0.00  0.00     0.179 C 
HETATM    6  C   UNK     0      34.064  18.158  93.791  0.00  0.00     0.298 C 
ENDROOT
BRANCH   5   7
HETATM    7  C   UNK     0      30.513  17.165  93.720  0.00  0.00     0.198 C 
BRANCH   7   8
HETATM    8  O   UNK     0      30.213  17.012  95.095  0.00  0.00    -0.398 OA
HETATM    9  H   UNK     0      30.684  16.223  95.415  0.00  0.00     0.209 HD
ENDBRANCH   7   8
ENDBRANCH   5   7
BRANCH   6  10
HETATM   10  O   UNK     0      34.638  19.368  94.284  0.00  0.00    -0.318 OA
BRANCH  10  11
HETATM   11  C   UNK     0      34.287  20.517  93.639  0.00  0.00     0.077 A 
HETATM   12  C   UNK     0      33.321  20.483  92.632  0.00  0.00     0.075 A 
HETATM   13  C   UNK     0      32.963  21.659  91.975  0.00  0.00     0.095 A 
HETATM   14  O   UNK     0      32.008  21.563  90.994  0.00  0.00    -0.309 OA
HETATM   15  C   UNK     0      33.572  22.865  92.322  0.00  0.00     0.081 A 
HETATM   16  C   UNK     0      31.629  22.718  90.327  0.00  0.00     0.090 A 
HETATM   17  C   UNK     0      32.145  23.933  90.566  0.00  0.00     0.094 A 
HETATM   18  C   UNK     0      33.178  24.090  91.610  0.00  0.00     0.190 A 
HETATM   19  O   UNK     0      33.672  25.180  91.861  0.00  0.00    -0.287 OA
HETATM   20  C   UNK     0      34.540  22.903  93.329  0.00  0.00     0.085 A 
HETATM   21  C   UNK     0      34.894  21.724  93.986  0.00  0.00     0.074 A 
BRANCH  16  22
HETATM   22  C   UNK     0      30.600  22.500  89.289  0.00  0.00     0.001 A 
HETATM   23  C   UNK     0      30.684  23.171  88.067  0.00  0.00     0.053 A 
HETATM   24  C   UNK     0      29.713  22.964  87.087  0.00  0.00     0.099 A 
HETATM   25  C   UNK     0      28.656  22.088  87.326  0.00  0.00     0.098 A 
HETATM   26  C   UNK     0      28.570  21.416  88.546  0.00  0.00     0.040 A 
HETATM   27  C   UNK     0      29.539  21.622  89.526  0.00  0.00     0.017 A 
BRANCH  24  28
HETATM   28  O   UNK     0      29.806  23.628  85.900  0.00  0.00    -0.358 OA
HETATM   29  H   UNK     0      29.913  24.576  86.088  0.00  0.00     0.217 HD
ENDBRANCH  24  28
BRANCH  25  30
HETATM   30  O   UNK     0      27.702  21.877  86.377  0.00  0.00    -0.358 OA
HETATM   31  H   UNK     0      27.333  20.985  86.491  0.00  0.00     0.217 HD
ENDBRANCH  25  30
ENDBRANCH  16  22
BRANCH  20  32
HETATM   32  O   UNK     0      35.162  24.054  93.704  0.00  0.00    -0.360 OA
HETATM   33  H   UNK     0      35.265  24.649  92.946  0.00  0.00     0.217 HD
ENDBRANCH  20  32
ENDBRANCH  10  11
ENDBRANCH   6  10
BRANCH   3  34
HETATM   34  O   UNK     0      31.953  14.582  93.713  0.00  0.00    -0.390 OA
HETATM   35  H   UNK     0      32.614  14.163  93.136  0.00  0.00     0.210 HD
ENDBRANCH   3  34
BRANCH   4  36
HETATM   36  O   UNK     0      36.101  16.949  94.152  0.00  0.00    -0.388 OA
HETATM   37  H   UNK     0      36.189  16.349  93.391  0.00  0.00     0.210 HD
ENDBRANCH   4  36
BRANCH   2  38
HETATM   38  O   UNK     0      34.507  14.647  95.068  0.00  0.00    -0.390 OA
HETATM   39  H   UNK     0      35.382  14.916  95.396  0.00  0.00     0.210 HD
ENDBRANCH   2  38
TORSDOF 11
ENDMDL
MODEL 4
REMARK VINA RESULT:     -10.9      2.278      3.884
REMARK  11 active torsions:
REMARK  status: ('A' for Active; 'I' for Inactive)
REMARK    1  A    between atoms: O_2  and  C_16 
REMARK    2  A    between atoms: O_2  and  C_18 
REMARK    3  A    between atoms: O_3  and  C_12 
REMARK    4  A    between atoms: O_4  and  C_13 
REMARK    5  A    between atoms: O_5  and  C_14 
REMARK    6  A    between atoms: O_6  and  C_17 
REMARK    7  A    between atoms: O_8  and  C_23 
REMARK    8  A    between atoms: O_10  and  C_30 
REMARK    9  A    between atoms: O_11  and  C_32 
REMARK   10  A    between atoms: C_15  and  C_17 
REMARK   11  A    between atoms: C_25  and  C_27 
ROOT
HETATM    1  O   UNK     0      30.780  22.753  88.895  0.00  0.00    -0.348 OA
HETATM    2  C   UNK     0      33.638  22.642  89.161  0.00  0.00     0.183 C 
HETATM    3  C   UNK     0      32.951  23.175  87.904  0.00  0.00     0.180 C 
HETATM    4  C   UNK     0      32.707  21.720  89.951  0.00  0.00     0.205 C 
HETATM    5  C   UNK     0      31.571  23.746  88.239  0.00  0.00     0.179 C 
HETATM    6  C   UNK     0      31.331  22.355  90.149  0.00  0.00     0.298 C 
ENDROOT
BRANCH   5   7
HETATM    7  C   UNK     0      30.820  24.178  86.984  0.00  0.00     0.198 C 
BRANCH   7   8
HETATM    8  O   UNK     0      31.471  25.309  86.435  0.00  0.00    -0.398 OA
HETATM    9  H   UNK     0      31.000  26.101  86.746  0.00  0.00     0.209 HD
ENDBRANCH   7   8
ENDBRANCH   5   7
BRANCH   6  10
HETATM   10  O   UNK     0      30.483  21.385  90.762  0.00  0.00    -0.318 OA
BRANCH  10  11
HETATM   11  C   UNK     0      30.015  20.388  89.958  0.00  0.00     0.077 A 
HETATM   12  C   UNK     0      30.302  19.057  90.264  0.00  0.00     0.075 A 
HETATM   13  C   UNK     0      29.823  18.038  89.441  0.00  0.00     0.095 A 
HETATM   14  O   UNK     0      30.137  16.749  89.792  0.00  0.00    -0.309 OA
HETATM   15  C   UNK     0      29.060  18.351  88.316  0.00  0.00     0.081 A 
HETATM   16  C   UNK     0      29.669  15.715  88.995  0.00  0.00     0.090 A 
HETATM   17  C   UNK     0      28.933  15.889  87.886  0.00  0.00     0.094 A 
HETATM   18  C   UNK     0      28.570  17.257  87.464  0.00  0.00     0.190 A 
HETATM   19  O   UNK     0      27.899  17.460  86.462  0.00  0.00    -0.287 OA
HETATM   20  C   UNK     0      28.772  19.683  88.007  0.00  0.00     0.085 A 
HETATM   21  C   UNK     0      29.252  20.700  88.833  0.00  0.00     0.074 A 
BRANCH  16  22
HETATM   22  C   UNK     0      30.069  14.371  89.460  0.00  0.00     0.001 A 
HETATM   23  C   UNK     0      30.041  13.288  88.578  0.00  0.00     0.053 A 
HETATM   24  C   UNK     0      30.421  12.019  89.018  0.00  0.00     0.099 A 
HETATM   25  C   UNK     0      30.828  11.830  90.337  0.00  0.00     0.098 A 
HETATM   26  C   UNK     0      30.858  12.911  91.219  0.00  0.00     0.040 A 
HETATM   27  C   UNK     0      30.479  14.179  90.782  0.00  0.00     0.017 A 
BRANCH  24  28
HETATM   28  O   UNK     0      30.386  10.970  88.148  0.00  0.00    -0.358 OA
HETATM   29  H   UNK     0      29.815  11.213  87.400  0.00  0.00     0.217 HD
ENDBRANCH  24  28
BRANCH  25  30
HETATM   30  O   UNK     0      31.202  10.597  90.777  0.00  0.00    -0.358 OA
HETATM   31  H   UNK     0      30.409  10.104  91.052  0.00  0.00     0.217 HD
ENDBRANCH  25  30
ENDBRANCH  16  22
BRANCH  20  32
HETATM   32  O   UNK     0      28.032  20.039  86.921  0.00  0.00    -0.360 OA
HETATM   33  H   UNK     0      27.302  20.621  87.181  0.00  0.00     0.217 HD
ENDBRANCH  20  32
ENDBRANCH  10  11
ENDBRANCH   6  10
BRANCH   3  34
HETATM   34  O   UNK     0      33.757  24.200  87.326  0.00  0.00    -0.390 OA
HETATM   35  H   UNK     0      34.400  24.490  87.996  0.00  0.00     0.210 HD
ENDBRANCH   3  34
BRANCH   4  36
HETATM   36  O   UNK     0      33.272  21.466  91.237  0.00  0.00    -0.388 OA
HETATM   37  H   UNK     0      33.199  20.512  91.415  0.00  0.00     0.210 HD
ENDBRANCH   4  36
BRANCH   2  38
HETATM   38  O   UNK     0      34.798  21.913  88.757  0.00  0.00    -0.390 OA
HETATM   39  H   UNK     0      35.574  22.454  88.984  0.00  0.00     0.210 HD
ENDBRANCH   2  38
TORSDOF 11
ENDMDL
MODEL 5
REMARK VINA RESULT:     -10.9      2.233      4.436
REMARK  11 active torsions:
REMARK  status: ('A' for Active; 'I' for Inactive)
REMARK    1  A    between atoms: O_2  and  C_16 
REMARK    2  A    between atoms: O_2  and  C_18 
REMARK    3  A    between atoms: O_3  and  C_12 
REMARK    4  A    between atoms: O_4  and  C_13 
REMARK    5  A    between atoms: O_5  and  C_14 
REMARK    6  A    between atoms: O_6  and  C_17 
REMARK    7  A    between atoms: O_8  and  C_23 
REMARK    8  A    between atoms: O_10  and  C_30 
REMARK    9  A    between atoms: O_11  and  C_32 
REMARK   10  A    between atoms: C_15  and  C_17 
REMARK   11  A    between atoms: C_25  and  C_27 
ROOT
HETATM    1  O   UNK     0      30.794  21.730  89.579  0.00  0.00    -0.348 OA
HETATM    2  C   UNK     0      31.545  23.565  87.501  0.00  0.00     0.183 C 
HETATM    3  C   UNK     0      31.989  23.743  88.953  0.00  0.00     0.180 C 
HETATM    4  C   UNK     0      30.289  22.697  87.410  0.00  0.00     0.205 C 
HETATM    5  C   UNK     0      32.057  22.392  89.670  0.00  0.00     0.179 C 
HETATM    6  C   UNK     0      30.435  21.419  88.234  0.00  0.00     0.298 C 
ENDROOT
BRANCH   5   7
HETATM    7  C   UNK     0      32.385  22.556  91.151  0.00  0.00     0.198 C 
BRANCH   7   8
HETATM    8  O   UNK     0      33.739  22.949  91.271  0.00  0.00    -0.398 OA
HETATM    9  H   UNK     0      33.757  23.912  91.404  0.00  0.00     0.209 HD
ENDBRANCH   7   8
ENDBRANCH   5   7
BRANCH   6  10
HETATM   10  O   UNK     0      29.181  20.737  88.215  0.00  0.00    -0.318 OA
BRANCH  10  11
HETATM   11  C   UNK     0      29.216  19.388  88.409  0.00  0.00     0.077 A 
HETATM   12  C   UNK     0      29.881  18.862  89.517  0.00  0.00     0.075 A 
HETATM   13  C   UNK     0      29.916  17.481  89.713  0.00  0.00     0.095 A 
HETATM   14  O   UNK     0      30.585  17.022  90.820  0.00  0.00    -0.309 OA
HETATM   15  C   UNK     0      29.289  16.632  88.803  0.00  0.00     0.081 A 
HETATM   16  C   UNK     0      30.631  15.655  91.044  0.00  0.00     0.090 A 
HETATM   17  C   UNK     0      30.072  14.738  90.238  0.00  0.00     0.094 A 
HETATM   18  C   UNK     0      29.343  15.180  89.032  0.00  0.00     0.190 A 
HETATM   19  O   UNK     0      28.818  14.378  88.273  0.00  0.00    -0.287 OA
HETATM   20  C   UNK     0      28.623  17.155  87.691  0.00  0.00     0.085 A 
HETATM   21  C   UNK     0      28.589  18.537  87.499  0.00  0.00     0.074 A 
BRANCH  16  22
HETATM   22  C   UNK     0      31.379  15.270  92.258  0.00  0.00     0.001 A 
HETATM   23  C   UNK     0      32.020  14.031  92.323  0.00  0.00     0.053 A 
HETATM   24  C   UNK     0      32.728  13.669  93.470  0.00  0.00     0.099 A 
HETATM   25  C   UNK     0      32.795  14.544  94.553  0.00  0.00     0.098 A 
HETATM   26  C   UNK     0      32.156  15.782  94.491  0.00  0.00     0.040 A 
HETATM   27  C   UNK     0      31.449  16.145  93.345  0.00  0.00     0.017 A 
BRANCH  24  28
HETATM   28  O   UNK     0      33.347  12.456  93.520  0.00  0.00    -0.358 OA
HETATM   29  H   UNK     0      34.248  12.587  93.863  0.00  0.00     0.217 HD
ENDBRANCH  24  28
BRANCH  25  30
HETATM   30  O   UNK     0      33.484  14.202  95.678  0.00  0.00    -0.358 OA
HETATM   31  H   UNK     0      33.351  14.890  96.352  0.00  0.00     0.217 HD
ENDBRANCH  25  30
ENDBRANCH  16  22
BRANCH  20  32
HETATM   32  O   UNK     0      27.996  16.368  86.775  0.00  0.00    -0.360 OA
HETATM   33  H   UNK     0      28.617  15.734  86.387  0.00  0.00     0.217 HD
ENDBRANCH  20  32
ENDBRANCH  10  11
ENDBRANCH   6  10
BRANCH   3  34
HETATM   34  O   UNK     0      33.277  24.355  88.980  0.00  0.00    -0.390 OA
HETATM   35  H   UNK     0      33.667  24.271  88.093  0.00  0.00     0.210 HD
ENDBRANCH   3  34
BRANCH   4  36
HETATM   36  O   UNK     0      30.066  22.329  86.049  0.00  0.00    -0.388 OA
HETATM   37  H   UNK     0      29.543  21.509  86.040  0.00  0.00     0.210 HD
ENDBRANCH   4  36
BRANCH   2  38
HETATM   38  O   UNK     0      31.270  24.859  86.961  0.00  0.00    -0.390 OA
HETATM   39  H   UNK     0      31.254  24.772  85.992  0.00  0.00     0.210 HD
ENDBRANCH   2  38
TORSDOF 11
ENDMDL
MODEL 6
REMARK VINA RESULT:     -10.7      3.636      8.735
REMARK  11 active torsions:
REMARK  status: ('A' for Active; 'I' for Inactive)
REMARK    1  A    between atoms: O_2  and  C_16 
REMARK    2  A    between atoms: O_2  and  C_18 
REMARK    3  A    between atoms: O_3  and  C_12 
REMARK    4  A    between atoms: O_4  and  C_13 
REMARK    5  A    between atoms: O_5  and  C_14 
REMARK    6  A    between atoms: O_6  and  C_17 
REMARK    7  A    between atoms: O_8  and  C_23 
REMARK    8  A    between atoms: O_10  and  C_30 
REMARK    9  A    between atoms: O_11  and  C_32 
REMARK   10  A    between atoms: C_15  and  C_17 
REMARK   11  A    between atoms: C_25  and  C_27 
ROOT
HETATM    1  O   UNK     0      34.667  16.531  94.044  0.00  0.00    -0.348 OA
HETATM    2  C   UNK     0      33.747  13.831  94.379  0.00  0.00     0.183 C 
HETATM    3  C   UNK     0      35.228  14.205  94.430  0.00  0.00     0.180 C 
HETATM    4  C   UNK     0      32.936  14.881  93.618  0.00  0.00     0.205 C 
HETATM    5  C   UNK     0      35.407  15.652  94.894  0.00  0.00     0.179 C 
HETATM    6  C   UNK     0      33.261  16.293  94.104  0.00  0.00     0.298 C 
ENDROOT
BRANCH   5   7
HETATM    7  C   UNK     0      36.869  16.085  94.840  0.00  0.00     0.198 C 
BRANCH   7   8
HETATM    8  O   UNK     0      37.540  15.288  93.881  0.00  0.00    -0.398 OA
HETATM    9  H   UNK     0      37.051  15.361  93.043  0.00  0.00     0.209 HD
ENDBRANCH   7   8
ENDBRANCH   5   7
BRANCH   6  10
HETATM   10  O   UNK     0      32.580  17.218  93.257  0.00  0.00    -0.318 OA
BRANCH  10  11
HETATM   11  C   UNK     0      33.057  18.495  93.237  0.00  0.00     0.077 A 
HETATM   12  C   UNK     0      32.771  19.328  92.155  0.00  0.00     0.075 A 
HETATM   13  C   UNK     0      33.260  20.634  92.137  0.00  0.00     0.095 A 
HETATM   14  O   UNK     0      32.946  21.406  91.047  0.00  0.00    -0.309 OA
HETATM   15  C   UNK     0      34.034  21.103  93.198  0.00  0.00     0.081 A 
HETATM   16  C   UNK     0      33.414  22.710  91.005  0.00  0.00     0.090 A 
HETATM   17  C   UNK     0      34.171  23.273  91.960  0.00  0.00     0.094 A 
HETATM   18  C   UNK     0      34.539  22.483  93.152  0.00  0.00     0.190 A 
HETATM   19  O   UNK     0      35.225  22.958  94.046  0.00  0.00    -0.287 OA
HETATM   20  C   UNK     0      34.323  20.271  94.283  0.00  0.00     0.085 A 
HETATM   21  C   UNK     0      33.831  18.965  94.298  0.00  0.00     0.074 A 
BRANCH  16  22
HETATM   22  C   UNK     0      33.022  23.449  89.787  0.00  0.00     0.001 A 
HETATM   23  C   UNK     0      33.372  24.793  89.640  0.00  0.00     0.053 A 
HETATM   24  C   UNK     0      33.003  25.490  88.489  0.00  0.00     0.099 A 
HETATM   25  C   UNK     0      32.284  24.846  87.483  0.00  0.00     0.098 A 
HETATM   26  C   UNK     0      31.935  23.502  87.627  0.00  0.00     0.040 A 
HETATM   27  C   UNK     0      32.303  22.805  88.777  0.00  0.00     0.017 A 
BRANCH  24  28
HETATM   28  O   UNK     0      33.348  26.802  88.360  0.00  0.00    -0.358 OA
HETATM   29  H   UNK     0      32.888  27.164  87.584  0.00  0.00     0.217 HD
ENDBRANCH  24  28
BRANCH  25  30
HETATM   30  O   UNK     0      31.919  25.515  86.355  0.00  0.00    -0.358 OA
HETATM   31  H   UNK     0      31.224  26.157  86.578  0.00  0.00     0.217 HD
ENDBRANCH  25  30
ENDBRANCH  16  22
BRANCH  20  32
HETATM   32  O   UNK     0      35.074  20.682  95.342  0.00  0.00    -0.360 OA
HETATM   33  H   UNK     0      35.129  21.650  95.366  0.00  0.00     0.217 HD
ENDBRANCH  20  32
ENDBRANCH  10  11
ENDBRANCH   6  10
BRANCH   3  34
HETATM   34  O   UNK     0      35.903  13.333  95.334  0.00  0.00    -0.390 OA
HETATM   35  H   UNK     0      35.571  13.515  96.230  0.00  0.00     0.210 HD
ENDBRANCH   3  34
BRANCH   4  36
HETATM   36  O   UNK     0      31.544  14.646  93.826  0.00  0.00    -0.388 OA
HETATM   37  H   UNK     0      31.057  15.430  93.519  0.00  0.00     0.210 HD
ENDBRANCH   4  36
BRANCH   2  38
HETATM   38  O   UNK     0      33.631  12.570  93.718  0.00  0.00    -0.390 OA
HETATM   39  H   UNK     0      33.660  12.740  92.760  0.00  0.00     0.210 HD
ENDBRANCH   2  38
TORSDOF 11
ENDMDL
MODEL 7
REMARK VINA RESULT:     -10.5      2.433      6.969
REMARK  11 active torsions:
REMARK  status: ('A' for Active; 'I' for Inactive)
REMARK    1  A    between atoms: O_2  and  C_16 
REMARK    2  A    between atoms: O_2  and  C_18 
REMARK    3  A    between atoms: O_3  and  C_12 
REMARK    4  A    between atoms: O_4  and  C_13 
REMARK    5  A    between atoms: O_5  and  C_14 
REMARK    6  A    between atoms: O_6  and  C_17 
REMARK    7  A    between atoms: O_8  and  C_23 
REMARK    8  A    between atoms: O_10  and  C_30 
REMARK    9  A    between atoms: O_11  and  C_32 
REMARK   10  A    between atoms: C_15  and  C_17 
REMARK   11  A    between atoms: C_25  and  C_27 
ROOT
HETATM    1  O   UNK     0      33.437  16.887  94.509  0.00  0.00    -0.348 OA
HETATM    2  C   UNK     0      35.304  14.709  94.360  0.00  0.00     0.183 C 
HETATM    3  C   UNK     0      33.828  14.503  94.702  0.00  0.00     0.180 C 
HETATM    4  C   UNK     0      35.745  16.144  94.654  0.00  0.00     0.205 C 
HETATM    5  C   UNK     0      32.968  15.607  94.082  0.00  0.00     0.179 C 
HETATM    6  C   UNK     0      34.765  17.159  94.065  0.00  0.00     0.298 C 
ENDROOT
BRANCH   5   7
HETATM    7  C   UNK     0      31.507  15.488  94.506  0.00  0.00     0.198 C 
BRANCH   7   8
HETATM    8  O   UNK     0      30.954  14.335  93.898  0.00  0.00    -0.398 OA
HETATM    9  H   UNK     0      31.262  14.311  92.975  0.00  0.00     0.209 HD
ENDBRANCH   7   8
ENDBRANCH   5   7
BRANCH   6  10
HETATM   10  O   UNK     0      35.163  18.458  94.500  0.00  0.00    -0.318 OA
BRANCH  10  11
HETATM   11  C   UNK     0      34.597  19.518  93.855  0.00  0.00     0.077 A 
HETATM   12  C   UNK     0      33.625  19.299  92.877  0.00  0.00     0.075 A 
HETATM   13  C   UNK     0      33.048  20.384  92.219  0.00  0.00     0.095 A 
HETATM   14  O   UNK     0      32.099  20.108  91.267  0.00  0.00    -0.309 OA
HETATM   15  C   UNK     0      33.444  21.683  92.536  0.00  0.00     0.081 A 
HETATM   16  C   UNK     0      31.504  21.167  90.601  0.00  0.00     0.090 A 
HETATM   17  C   UNK     0      31.804  22.458  90.813  0.00  0.00     0.094 A 
HETATM   18  C   UNK     0      32.821  22.809  91.825  0.00  0.00     0.190 A 
HETATM   19  O   UNK     0      33.122  23.973  92.051  0.00  0.00    -0.287 OA
HETATM   20  C   UNK     0      34.417  21.906  93.514  0.00  0.00     0.085 A 
HETATM   21  C   UNK     0      34.992  20.817  94.172  0.00  0.00     0.074 A 
BRANCH  16  22
HETATM   22  C   UNK     0      30.502  20.757  89.595  0.00  0.00     0.001 A 
HETATM   23  C   UNK     0      30.377  19.412  89.240  0.00  0.00     0.053 A 
HETATM   24  C   UNK     0      29.429  19.025  88.291  0.00  0.00     0.099 A 
HETATM   25  C   UNK     0      28.606  19.980  87.697  0.00  0.00     0.098 A 
HETATM   26  C   UNK     0      28.729  21.324  88.051  0.00  0.00     0.040 A 
HETATM   27  C   UNK     0      29.675  21.712  88.999  0.00  0.00     0.017 A 
BRANCH  24  28
HETATM   28  O   UNK     0      29.319  17.710  87.952  0.00  0.00    -0.358 OA
HETATM   29  H   UNK     0      28.550  17.338  88.415  0.00  0.00     0.217 HD
ENDBRANCH  24  28
BRANCH  25  30
HETATM   30  O   UNK     0      27.677  19.614  86.771  0.00  0.00    -0.358 OA
HETATM   31  H   UNK     0      27.102  18.928  87.152  0.00  0.00     0.217 HD
ENDBRANCH  25  30
ENDBRANCH  16  22
BRANCH  20  32
HETATM   32  O   UNK     0      34.836  23.154  93.860  0.00  0.00    -0.360 OA
HETATM   33  H   UNK     0      35.021  23.683  93.069  0.00  0.00     0.217 HD
ENDBRANCH  20  32
ENDBRANCH  10  11
ENDBRANCH   6  10
BRANCH   3  34
HETATM   34  O   UNK     0      33.402  13.237  94.203  0.00  0.00    -0.390 OA
HETATM   35  H   UNK     0      32.747  13.397  93.502  0.00  0.00     0.210 HD
ENDBRANCH   3  34
BRANCH   4  36
HETATM   36  O   UNK     0      37.029  16.373  94.075  0.00  0.00    -0.388 OA
HETATM   37  H   UNK     0      37.679  16.430  94.796  0.00  0.00     0.210 HD
ENDBRANCH   4  36
BRANCH   2  38
HETATM   38  O   UNK     0      36.073  13.804  95.154  0.00  0.00    -0.390 OA
HETATM   39  H   UNK     0      36.748  14.327  95.620  0.00  0.00     0.210 HD
ENDBRANCH   2  38
TORSDOF 11
ENDMDL
MODEL 8
REMARK VINA RESULT:     -10.2      2.708      7.839
REMARK  11 active torsions:
REMARK  status: ('A' for Active; 'I' for Inactive)
REMARK    1  A    between atoms: O_2  and  C_16 
REMARK    2  A    between atoms: O_2  and  C_18 
REMARK    3  A    between atoms: O_3  and  C_12 
REMARK    4  A    between atoms: O_4  and  C_13 
REMARK    5  A    between atoms: O_5  and  C_14 
REMARK    6  A    between atoms: O_6  and  C_17 
REMARK    7  A    between atoms: O_8  and  C_23 
REMARK    8  A    between atoms: O_10  and  C_30 
REMARK    9  A    between atoms: O_11  and  C_32 
REMARK   10  A    between atoms: C_15  and  C_17 
REMARK   11  A    between atoms: C_25  and  C_27 
ROOT
HETATM    1  O   UNK     0      30.955  14.810  92.338  0.00  0.00    -0.348 OA
HETATM    2  C   UNK     0      33.134  14.915  94.207  0.00  0.00     0.183 C 
HETATM    3  C   UNK     0      32.546  13.596  93.705  0.00  0.00     0.180 C 
HETATM    4  C   UNK     0      32.132  16.060  94.056  0.00  0.00     0.205 C 
HETATM    5  C   UNK     0      31.933  13.768  92.314  0.00  0.00     0.179 C 
HETATM    6  C   UNK     0      31.518  16.081  92.656  0.00  0.00     0.298 C 
ENDROOT
BRANCH   5   7
HETATM    7  C   UNK     0      31.238  12.495  91.842  0.00  0.00     0.198 C 
BRANCH   7   8
HETATM    8  O   UNK     0      32.227  11.561  91.450  0.00  0.00    -0.398 OA
HETATM    9  H   UNK     0      31.871  10.670  91.610  0.00  0.00     0.209 HD
ENDBRANCH   7   8
ENDBRANCH   5   7
BRANCH   6  10
HETATM   10  O   UNK     0      30.498  17.078  92.638  0.00  0.00    -0.318 OA
BRANCH  10  11
HETATM   11  C   UNK     0      30.292  17.721  91.453  0.00  0.00     0.077 A 
HETATM   12  C   UNK     0      30.837  18.989  91.246  0.00  0.00     0.075 A 
HETATM   13  C   UNK     0      30.626  19.644  90.033  0.00  0.00     0.095 A 
HETATM   14  O   UNK     0      31.186  20.889  89.887  0.00  0.00    -0.309 OA
HETATM   15  C   UNK     0      29.871  19.033  89.032  0.00  0.00     0.081 A 
HETATM   16  C   UNK     0      30.997  21.561  88.690  0.00  0.00     0.090 A 
HETATM   17  C   UNK     0      30.287  21.081  87.657  0.00  0.00     0.094 A 
HETATM   18  C   UNK     0      29.662  19.748  87.764  0.00  0.00     0.190 A 
HETATM   19  O   UNK     0      29.009  19.273  86.846  0.00  0.00    -0.287 OA
HETATM   20  C   UNK     0      29.324  17.764  89.236  0.00  0.00     0.085 A 
HETATM   21  C   UNK     0      29.538  17.110  90.451  0.00  0.00     0.074 A 
BRANCH  16  22
HETATM   22  C   UNK     0      31.637  22.892  88.642  0.00  0.00     0.001 A 
HETATM   23  C   UNK     0      31.633  23.630  87.456  0.00  0.00     0.053 A 
HETATM   24  C   UNK     0      32.236  24.887  87.412  0.00  0.00     0.099 A 
HETATM   25  C   UNK     0      32.845  25.409  88.552  0.00  0.00     0.098 A 
HETATM   26  C   UNK     0      32.850  24.675  89.739  0.00  0.00     0.040 A 
HETATM   27  C   UNK     0      32.247  23.418  89.784  0.00  0.00     0.017 A 
BRANCH  24  28
HETATM   28  O   UNK     0      32.227  25.595  86.247  0.00  0.00    -0.358 OA
HETATM   29  H   UNK     0      32.123  26.537  86.463  0.00  0.00     0.217 HD
ENDBRANCH  24  28
BRANCH  25  30
HETATM   30  O   UNK     0      33.436  26.636  88.522  0.00  0.00    -0.358 OA
HETATM   31  H   UNK     0      32.895  27.262  89.033  0.00  0.00     0.217 HD
ENDBRANCH  25  30
ENDBRANCH  16  22
BRANCH  20  32
HETATM   32  O   UNK     0      28.580  17.126  88.291  0.00  0.00    -0.360 OA
HETATM   33  H   UNK     0      27.720  17.560  88.183  0.00  0.00     0.217 HD
ENDBRANCH  20  32
ENDBRANCH  10  11
ENDBRANCH   6  10
BRANCH   3  34
HETATM   34  O   UNK     0      33.577  12.613  93.648  0.00  0.00    -0.390 OA
HETATM   35  H   UNK     0      34.241  12.835  94.322  0.00  0.00     0.210 HD
ENDBRANCH   3  34
BRANCH   4  36
HETATM   36  O   UNK     0      32.798  17.304  94.271  0.00  0.00    -0.388 OA
HETATM   37  H   UNK     0      32.128  17.968  94.507  0.00  0.00     0.210 HD
ENDBRANCH   4  36
BRANCH   2  38
HETATM   38  O   UNK     0      33.468  14.755  95.587  0.00  0.00    -0.390 OA
HETATM   39  H   UNK     0      32.703  15.055  96.107  0.00  0.00     0.210 HD
ENDBRANCH   2  38
TORSDOF 11
ENDMDL
MODEL 9
REMARK VINA RESULT:      -9.9     19.268     21.576
REMARK  11 active torsions:
REMARK  status: ('A' for Active; 'I' for Inactive)
REMARK    1  A    between atoms: O_2  and  C_16 
REMARK    2  A    between atoms: O_2  and  C_18 
REMARK    3  A    between atoms: O_3  and  C_12 
REMARK    4  A    between atoms: O_4  and  C_13 
REMARK    5  A    between atoms: O_5  and  C_14 
REMARK    6  A    between atoms: O_6  and  C_17 
REMARK    7  A    between atoms: O_8  and  C_23 
REMARK    8  A    between atoms: O_10  and  C_30 
REMARK    9  A    between atoms: O_11  and  C_32 
REMARK   10  A    between atoms: C_15  and  C_17 
REMARK   11  A    between atoms: C_25  and  C_27 
ROOT
HETATM    1  O   UNK     0      20.797  35.873 100.969  0.00  0.00    -0.348 OA
HETATM    2  C   UNK     0      19.001  37.243  99.195  0.00  0.00     0.183 C 
HETATM    3  C   UNK     0      20.507  37.173  98.944  0.00  0.00     0.180 C 
HETATM    4  C   UNK     0      18.675  37.016 100.671  0.00  0.00     0.205 C 
HETATM    5  C   UNK     0      21.105  35.913  99.574  0.00  0.00     0.179 C 
HETATM    6  C   UNK     0      19.395  35.783 101.217  0.00  0.00     0.298 C 
ENDROOT
BRANCH   5   7
HETATM    7  C   UNK     0      22.624  35.880  99.437  0.00  0.00     0.198 C 
BRANCH   7   8
HETATM    8  O   UNK     0      23.076  37.184  99.123  0.00  0.00    -0.398 OA
HETATM    9  H   UNK     0      22.294  37.758  99.049  0.00  0.00     0.209 HD
ENDBRANCH   7   8
ENDBRANCH   5   7
BRANCH   6  10
HETATM   10  O   UNK     0      19.158  35.720 102.622  0.00  0.00    -0.318 OA
BRANCH  10  11
HETATM   11  C   UNK     0      19.244  34.490 103.202  0.00  0.00     0.077 A 
HETATM   12  C   UNK     0      19.254  33.344 102.405  0.00  0.00     0.075 A 
HETATM   13  C   UNK     0      19.342  32.086 103.000  0.00  0.00     0.095 A 
HETATM   14  O   UNK     0      19.347  30.997 102.166  0.00  0.00    -0.309 OA
HETATM   15  C   UNK     0      19.420  31.976 104.388  0.00  0.00     0.081 A 
HETATM   16  C   UNK     0      19.440  29.734 102.730  0.00  0.00     0.090 A 
HETATM   17  C   UNK     0      19.514  29.498 104.049  0.00  0.00     0.094 A 
HETATM   18  C   UNK     0      19.511  30.637 104.990  0.00  0.00     0.190 A 
HETATM   19  O   UNK     0      19.579  30.467 106.199  0.00  0.00    -0.287 OA
HETATM   20  C   UNK     0      19.411  33.120 105.190  0.00  0.00     0.085 A 
HETATM   21  C   UNK     0      19.323  34.378 104.590  0.00  0.00     0.074 A 
BRANCH  16  22
HETATM   22  C   UNK     0      19.431  28.634 101.743  0.00  0.00     0.001 A 
HETATM   23  C   UNK     0      20.218  27.499 101.951  0.00  0.00     0.053 A 
HETATM   24  C   UNK     0      20.208  26.460 101.020  0.00  0.00     0.099 A 
HETATM   25  C   UNK     0      19.413  26.554  99.878  0.00  0.00     0.098 A 
HETATM   26  C   UNK     0      18.625  27.687  99.669  0.00  0.00     0.040 A 
HETATM   27  C   UNK     0      18.634  28.725 100.599  0.00  0.00     0.017 A 
BRANCH  24  28
HETATM   28  O   UNK     0      20.983  25.360 101.234  0.00  0.00    -0.358 OA
HETATM   29  H   UNK     0      20.427  24.569 101.126  0.00  0.00     0.217 HD
ENDBRANCH  24  28
BRANCH  25  30
HETATM   30  O   UNK     0      19.394  25.547  98.962  0.00  0.00    -0.358 OA
HETATM   31  H   UNK     0      18.477  25.402  98.669  0.00  0.00     0.217 HD
ENDBRANCH  25  30
ENDBRANCH  16  22
BRANCH  20  32
HETATM   32  O   UNK     0      19.485  33.064 106.548  0.00  0.00    -0.360 OA
HETATM   33  H   UNK     0      18.765  33.574 106.950  0.00  0.00     0.217 HD
ENDBRANCH  20  32
ENDBRANCH  10  11
ENDBRANCH   6  10
BRANCH   3  34
HETATM   34  O   UNK     0      20.751  37.158  97.539  0.00  0.00    -0.390 OA
HETATM   35  H   UNK     0      19.898  37.036  97.088  0.00  0.00     0.210 HD
ENDBRANCH   3  34
BRANCH   4  36
HETATM   36  O   UNK     0      17.269  36.815 100.820  0.00  0.00    -0.388 OA
HETATM   37  H   UNK     0      17.022  36.025 100.310  0.00  0.00     0.210 HD
ENDBRANCH   4  36
BRANCH   2  38
HETATM   38  O   UNK     0      18.546  38.539  98.801  0.00  0.00    -0.390 OA
HETATM   39  H   UNK     0      18.847  38.688  97.888  0.00  0.00     0.210 HD
ENDBRANCH   2  38
TORSDOF 11
ENDMDL
