MODEL 1
REMARK VINA RESULT:     -12.1      0.000      0.000
REMARK  11 active torsions:
REMARK  status: ('A' for Active; 'I' for Inactive)
REMARK    1  A    between atoms: O_2  and  C_16 
REMARK    2  A    between atoms: O_2  and  C_18 
REMARK    3  A    between atoms: O_3  and  C_12 
REMARK    4  A    between atoms: O_4  and  C_13 
REMARK    5  A    between atoms: O_5  and  C_14 
REMARK    6  A    between atoms: O_6  and  C_17 
REMARK    7  A    between atoms: O_8  and  C_23 
REMARK    8  A    between atoms: O_10  and  C_30 
REMARK    9  A    between atoms: O_11  and  C_32 
REMARK   10  A    between atoms: C_15  and  C_17 
REMARK   11  A    between atoms: C_25  and  C_27 
ROOT
HETATM    1  O   UNK     0       9.928  20.197  22.957  0.00  0.00    -0.348 OA
HETATM    2  C   UNK     0       8.178  22.469  22.810  0.00  0.00     0.183 C 
HETATM    3  C   UNK     0       8.013  21.247  21.908  0.00  0.00     0.180 C 
HETATM    4  C   UNK     0       9.607  22.572  23.346  0.00  0.00     0.205 C 
HETATM    5  C   UNK     0       8.563  19.991  22.587  0.00  0.00     0.179 C 
HETATM    6  C   UNK     0      10.083  21.238  23.920  0.00  0.00     0.298 C 
ENDROOT
BRANCH   5   7
HETATM    7  C   UNK     0       8.515  18.781  21.660  0.00  0.00     0.198 C 
BRANCH   7   8
HETATM    8  O   UNK     0       7.162  18.406  21.478  0.00  0.00    -0.398 OA
HETATM    9  H   UNK     0       6.649  19.218  21.324  0.00  0.00     0.209 HD
ENDBRANCH   7   8
ENDBRANCH   5   7
BRANCH   6  10
HETATM   10  O   UNK     0      11.461  21.373  24.265  0.00  0.00    -0.318 OA
BRANCH  10  11
HETATM   11  C   UNK     0      11.979  20.424  25.095  0.00  0.00     0.077 A 
HETATM   12  C   UNK     0      11.801  19.071  24.802  0.00  0.00     0.075 A 
HETATM   13  C   UNK     0      12.332  18.103  25.653  0.00  0.00     0.095 A 
HETATM   14  O   UNK     0      12.125  16.789  25.313  0.00  0.00    -0.309 OA
HETATM   15  C   UNK     0      13.037  18.486  26.793  0.00  0.00     0.081 A 
HETATM   16  C   UNK     0      12.647  15.804  26.137  0.00  0.00     0.090 A 
HETATM   17  C   UNK     0      13.336  16.047  27.263  0.00  0.00     0.094 A 
HETATM   18  C   UNK     0      13.584  17.444  27.674  0.00  0.00     0.190 A 
HETATM   19  O   UNK     0      14.209  17.709  28.691  0.00  0.00    -0.287 OA
HETATM   20  C   UNK     0      13.216  19.840  27.090  0.00  0.00     0.085 A 
HETATM   21  C   UNK     0      12.684  20.807  26.236  0.00  0.00     0.074 A 
BRANCH  16  22
HETATM   22  C   UNK     0      12.361  14.428  25.682  0.00  0.00     0.001 A 
HETATM   23  C   UNK     0      11.689  14.214  24.477  0.00  0.00     0.053 A 
HETATM   24  C   UNK     0      11.421  12.914  24.047  0.00  0.00     0.099 A 
HETATM   25  C   UNK     0      11.823  11.826  24.820  0.00  0.00     0.098 A 
HETATM   26  C   UNK     0      12.496  12.037  26.023  0.00  0.00     0.040 A 
HETATM   27  C   UNK     0      12.765  13.335  26.454  0.00  0.00     0.017 A 
BRANCH  24  28
HETATM   28  O   UNK     0      10.761  12.720  22.870  0.00  0.00    -0.358 OA
HETATM   29  H   UNK     0      11.410  12.754  22.147  0.00  0.00     0.217 HD
ENDBRANCH  24  28
BRANCH  25  30
HETATM   30  O   UNK     0      11.568  10.553  24.409  0.00  0.00    -0.358 OA
HETATM   31  H   UNK     0      11.154  10.580  23.530  0.00  0.00     0.217 HD
ENDBRANCH  25  30
ENDBRANCH  16  22
BRANCH  20  32
HETATM   32  O   UNK     0      13.896  20.265  28.191  0.00  0.00    -0.360 OA
HETATM   33  H   UNK     0      14.762  19.834  28.244  0.00  0.00     0.217 HD
ENDBRANCH  20  32
ENDBRANCH  10  11
ENDBRANCH   6  10
BRANCH   3  34
HETATM   34  O   UNK     0       6.629  21.058  21.619  0.00  0.00    -0.390 OA
HETATM   35  H   UNK     0       6.557  20.683  20.725  0.00  0.00     0.210 HD
ENDBRANCH   3  34
BRANCH   4  36
HETATM   36  O   UNK     0       9.653  23.548  24.386  0.00  0.00    -0.388 OA
HETATM   37  H   UNK     0       9.651  23.080  25.239  0.00  0.00     0.210 HD
ENDBRANCH   4  36
BRANCH   2  38
HETATM   38  O   UNK     0       7.875  23.633  22.040  0.00  0.00    -0.390 OA
HETATM   39  H   UNK     0       7.720  23.343  21.124  0.00  0.00     0.210 HD
ENDBRANCH   2  38
TORSDOF 11
ENDMDL
MODEL 2
REMARK VINA RESULT:     -11.5      3.030      7.655
REMARK  11 active torsions:
REMARK  status: ('A' for Active; 'I' for Inactive)
REMARK    1  A    between atoms: O_2  and  C_16 
REMARK    2  A    between atoms: O_2  and  C_18 
REMARK    3  A    between atoms: O_3  and  C_12 
REMARK    4  A    between atoms: O_4  and  C_13 
REMARK    5  A    between atoms: O_5  and  C_14 
REMARK    6  A    between atoms: O_6  and  C_17 
REMARK    7  A    between atoms: O_8  and  C_23 
REMARK    8  A    between atoms: O_10  and  C_30 
REMARK    9  A    between atoms: O_11  and  C_32 
REMARK   10  A    between atoms: C_15  and  C_17 
REMARK   11  A    between atoms: C_25  and  C_27 
ROOT
HETATM    1  O   UNK     0       9.877  17.137  21.105  0.00  0.00    -0.348 OA
HETATM    2  C   UNK     0       8.532  14.600  21.184  0.00  0.00     0.183 C 
HETATM    3  C   UNK     0      10.022  14.729  20.868  0.00  0.00     0.180 C 
HETATM    4  C   UNK     0       7.792  15.909  20.904  0.00  0.00     0.205 C 
HETATM    5  C   UNK     0      10.610  15.982  21.521  0.00  0.00     0.179 C 
HETATM    6  C   UNK     0       8.515  17.102  21.527  0.00  0.00     0.298 C 
ENDROOT
BRANCH   5   7
HETATM    7  C   UNK     0      12.067  16.195  21.124  0.00  0.00     0.198 C 
BRANCH   7   8
HETATM    8  O   UNK     0      12.112  16.569  19.760  0.00  0.00    -0.398 OA
HETATM    9  H   UNK     0      12.864  17.176  19.645  0.00  0.00     0.209 HD
ENDBRANCH   7   8
ENDBRANCH   5   7
BRANCH   6  10
HETATM   10  O   UNK     0       7.849  18.291  21.105  0.00  0.00    -0.318 OA
BRANCH  10  11
HETATM   11  C   UNK     0       8.174  19.440  21.763  0.00  0.00     0.077 A 
HETATM   12  C   UNK     0       9.159  19.421  22.751  0.00  0.00     0.075 A 
HETATM   13  C   UNK     0       9.489  20.597  23.423  0.00  0.00     0.095 A 
HETATM   14  O   UNK     0      10.465  20.517  24.385  0.00  0.00    -0.309 OA
HETATM   15  C   UNK     0       8.835  21.788  23.107  0.00  0.00     0.081 A 
HETATM   16  C   UNK     0      10.818  21.672  25.065  0.00  0.00     0.090 A 
HETATM   17  C   UNK     0      10.258  22.874  24.855  0.00  0.00     0.094 A 
HETATM   18  C   UNK     0       9.202  23.013  23.833  0.00  0.00     0.190 A 
HETATM   19  O   UNK     0       8.667  24.090  23.609  0.00  0.00    -0.287 OA
HETATM   20  C   UNK     0       7.848  21.811  22.118  0.00  0.00     0.085 A 
HETATM   21  C   UNK     0       7.521  20.631  21.447  0.00  0.00     0.074 A 
BRANCH  16  22
HETATM   22  C   UNK     0      11.872  21.472  26.081  0.00  0.00     0.001 A 
HETATM   23  C   UNK     0      11.796  22.131  27.309  0.00  0.00     0.053 A 
HETATM   24  C   UNK     0      12.791  21.941  28.269  0.00  0.00     0.099 A 
HETATM   25  C   UNK     0      13.864  21.092  28.001  0.00  0.00     0.098 A 
HETATM   26  C   UNK     0      13.942  20.431  26.775  0.00  0.00     0.040 A 
HETATM   27  C   UNK     0      12.948  20.621  25.816  0.00  0.00     0.017 A 
BRANCH  24  28
HETATM   28  O   UNK     0      12.705  22.593  29.462  0.00  0.00    -0.358 OA
HETATM   29  H   UNK     0      11.830  23.012  29.519  0.00  0.00     0.217 HD
ENDBRANCH  24  28
BRANCH  25  30
HETATM   30  O   UNK     0      14.841  20.897  28.930  0.00  0.00    -0.358 OA
HETATM   31  H   UNK     0      15.701  21.130  28.539  0.00  0.00     0.217 HD
ENDBRANCH  25  30
ENDBRANCH  16  22
BRANCH  20  32
HETATM   32  O   UNK     0       7.182  22.947  21.774  0.00  0.00    -0.360 OA
HETATM   33  H   UNK     0       7.780  23.576  21.344  0.00  0.00     0.217 HD
ENDBRANCH  20  32
ENDBRANCH  10  11
ENDBRANCH   6  10
BRANCH   3  34
HETATM   34  O   UNK     0      10.708  13.578  21.356  0.00  0.00    -0.390 OA
HETATM   35  H   UNK     0      10.988  13.761  22.269  0.00  0.00     0.210 HD
ENDBRANCH   3  34
BRANCH   4  36
HETATM   36  O   UNK     0       6.480  15.839  21.461  0.00  0.00    -0.388 OA
HETATM   37  H   UNK     0       6.206  16.741  21.700  0.00  0.00     0.210 HD
ENDBRANCH   4  36
BRANCH   2  38
HETATM   38  O   UNK     0       7.993  13.564  20.362  0.00  0.00    -0.390 OA
HETATM   39  H   UNK     0       7.163  13.898  19.980  0.00  0.00     0.210 HD
ENDBRANCH   2  38
TORSDOF 11
ENDMDL
MODEL 3
REMARK VINA RESULT:     -10.8      2.405      7.911
REMARK  11 active torsions:
REMARK  status: ('A' for Active; 'I' for Inactive)
REMARK    1  A    between atoms: O_2  and  C_16 
REMARK    2  A    between atoms: O_2  and  C_18 
REMARK    3  A    between atoms: O_3  and  C_12 
REMARK    4  A    between atoms: O_4  and  C_13 
REMARK    5  A    between atoms: O_5  and  C_14 
REMARK    6  A    between atoms: O_6  and  C_17 
REMARK    7  A    between atoms: O_8  and  C_23 
REMARK    8  A    between atoms: O_10  and  C_30 
REMARK    9  A    between atoms: O_11  and  C_32 
REMARK   10  A    between atoms: C_15  and  C_17 
REMARK   11  A    between atoms: C_25  and  C_27 
ROOT
HETATM    1  O   UNK     0      10.108  14.638  21.612  0.00  0.00    -0.348 OA
HETATM    2  C   UNK     0       7.578  13.374  21.108  0.00  0.00     0.183 C 
HETATM    3  C   UNK     0       8.845  12.578  21.423  0.00  0.00     0.180 C 
HETATM    4  C   UNK     0       7.918  14.764  20.569  0.00  0.00     0.205 C 
HETATM    5  C   UNK     0       9.810  13.407  22.274  0.00  0.00     0.179 C 
HETATM    6  C   UNK     0       8.956  15.463  21.447  0.00  0.00     0.298 C 
ENDROOT
BRANCH   5   7
HETATM    7  C   UNK     0      11.129  12.676  22.503  0.00  0.00     0.198 C 
BRANCH   7   8
HETATM    8  O   UNK     0      11.512  12.851  23.855  0.00  0.00    -0.398 OA
HETATM    9  H   UNK     0      12.096  12.111  24.095  0.00  0.00     0.209 HD
ENDBRANCH   7   8
ENDBRANCH   5   7
BRANCH   6  10
HETATM   10  O   UNK     0       9.325  16.683  20.807  0.00  0.00    -0.318 OA
BRANCH  10  11
HETATM   11  C   UNK     0       9.193  17.823  21.542  0.00  0.00     0.077 A 
HETATM   12  C   UNK     0      10.115  18.112  22.550  0.00  0.00     0.075 A 
HETATM   13  C   UNK     0       9.978  19.278  23.301  0.00  0.00     0.095 A 
HETATM   14  O   UNK     0      10.914  19.508  24.278  0.00  0.00    -0.309 OA
HETATM   15  C   UNK     0       8.922  20.152  23.045  0.00  0.00     0.081 A 
HETATM   16  C   UNK     0      10.806  20.664  25.036  0.00  0.00     0.090 A 
HETATM   17  C   UNK     0       9.833  21.576  24.890  0.00  0.00     0.094 A 
HETATM   18  C   UNK     0       8.800  21.374  23.854  0.00  0.00     0.190 A 
HETATM   19  O   UNK     0       7.898  22.182  23.686  0.00  0.00    -0.287 OA
HETATM   20  C   UNK     0       7.997  19.867  22.038  0.00  0.00     0.085 A 
HETATM   21  C   UNK     0       8.137  18.698  21.287  0.00  0.00     0.074 A 
BRANCH  16  22
HETATM   22  C   UNK     0      11.861  20.809  26.061  0.00  0.00     0.001 A 
HETATM   23  C   UNK     0      11.691  21.705  27.119  0.00  0.00     0.053 A 
HETATM   24  C   UNK     0      12.687  21.840  28.087  0.00  0.00     0.099 A 
HETATM   25  C   UNK     0      13.853  21.082  27.999  0.00  0.00     0.098 A 
HETATM   26  C   UNK     0      14.025  20.186  26.944  0.00  0.00     0.040 A 
HETATM   27  C   UNK     0      13.031  20.049  25.976  0.00  0.00     0.017 A 
BRANCH  24  28
HETATM   28  O   UNK     0      12.510  22.721  29.112  0.00  0.00    -0.358 OA
HETATM   29  H   UNK     0      11.555  22.841  29.250  0.00  0.00     0.217 HD
ENDBRANCH  24  28
BRANCH  25  30
HETATM   30  O   UNK     0      14.832  21.205  28.939  0.00  0.00    -0.358 OA
HETATM   31  H   UNK     0      15.150  22.124  28.947  0.00  0.00     0.217 HD
ENDBRANCH  25  30
ENDBRANCH  16  22
BRANCH  20  32
HETATM   32  O   UNK     0       6.950  20.688  21.750  0.00  0.00    -0.360 OA
HETATM   33  H   UNK     0       6.493  20.391  20.949  0.00  0.00     0.217 HD
ENDBRANCH  20  32
ENDBRANCH  10  11
ENDBRANCH   6  10
BRANCH   3  34
HETATM   34  O   UNK     0       8.491  11.392  22.132  0.00  0.00    -0.390 OA
HETATM   35  H   UNK     0       8.987  11.384  22.969  0.00  0.00     0.210 HD
ENDBRANCH   3  34
BRANCH   4  36
HETATM   36  O   UNK     0       6.737  15.565  20.548  0.00  0.00    -0.388 OA
HETATM   37  H   UNK     0       6.263  15.381  19.718  0.00  0.00     0.210 HD
ENDBRANCH   4  36
BRANCH   2  38
HETATM   38  O   UNK     0       6.835  12.652  20.125  0.00  0.00    -0.390 OA
HETATM   39  H   UNK     0       7.426  11.975  19.752  0.00  0.00     0.210 HD
ENDBRANCH   2  38
TORSDOF 11
ENDMDL
MODEL 4
REMARK VINA RESULT:     -10.7     19.552     21.923
REMARK  11 active torsions:
REMARK  status: ('A' for Active; 'I' for Inactive)
REMARK    1  A    between atoms: O_2  and  C_16 
REMARK    2  A    between atoms: O_2  and  C_18 
REMARK    3  A    between atoms: O_3  and  C_12 
REMARK    4  A    between atoms: O_4  and  C_13 
REMARK    5  A    between atoms: O_5  and  C_14 
REMARK    6  A    between atoms: O_6  and  C_17 
REMARK    7  A    between atoms: O_8  and  C_23 
REMARK    8  A    between atoms: O_10  and  C_30 
REMARK    9  A    between atoms: O_11  and  C_32 
REMARK   10  A    between atoms: C_15  and  C_17 
REMARK   11  A    between atoms: C_25  and  C_27 
ROOT
HETATM    1  O   UNK     0      23.510  35.566  12.729  0.00  0.00    -0.348 OA
HETATM    2  C   UNK     0      22.569  37.122  14.952  0.00  0.00     0.183 C 
HETATM    3  C   UNK     0      23.267  37.752  13.746  0.00  0.00     0.180 C 
HETATM    4  C   UNK     0      22.923  35.640  15.084  0.00  0.00     0.205 C 
HETATM    5  C   UNK     0      23.058  36.900  12.492  0.00  0.00     0.179 C 
HETATM    6  C   UNK     0      22.763  34.909  13.751  0.00  0.00     0.298 C 
ENDROOT
BRANCH   5   7
HETATM    7  C   UNK     0      23.842  37.447  11.303  0.00  0.00     0.198 C 
BRANCH   7   8
HETATM    8  O   UNK     0      23.159  37.095  10.113  0.00  0.00    -0.398 OA
HETATM    9  H   UNK     0      23.007  36.134  10.133  0.00  0.00     0.209 HD
ENDBRANCH   7   8
ENDBRANCH   5   7
BRANCH   6  10
HETATM   10  O   UNK     0      23.245  33.577  13.920  0.00  0.00    -0.318 OA
BRANCH  10  11
HETATM   11  C   UNK     0      23.009  32.708  12.896  0.00  0.00     0.077 A 
HETATM   12  C   UNK     0      22.607  31.400  13.172  0.00  0.00     0.075 A 
HETATM   13  C   UNK     0      22.366  30.513  12.124  0.00  0.00     0.095 A 
HETATM   14  O   UNK     0      21.973  29.241  12.456  0.00  0.00    -0.309 OA
HETATM   15  C   UNK     0      22.530  30.933  10.804  0.00  0.00     0.081 A 
HETATM   16  C   UNK     0      21.721  28.339  11.434  0.00  0.00     0.090 A 
HETATM   17  C   UNK     0      21.849  28.622  10.128  0.00  0.00     0.094 A 
HETATM   18  C   UNK     0      22.272  29.976   9.717  0.00  0.00     0.190 A 
HETATM   19  O   UNK     0      22.399  30.275   8.539  0.00  0.00    -0.287 OA
HETATM   20  C   UNK     0      22.934  32.241  10.524  0.00  0.00     0.085 A 
HETATM   21  C   UNK     0      23.172  33.126  11.576  0.00  0.00     0.074 A 
BRANCH  16  22
HETATM   22  C   UNK     0      21.310  27.000  11.903  0.00  0.00     0.001 A 
HETATM   23  C   UNK     0      20.370  26.875  12.928  0.00  0.00     0.053 A 
HETATM   24  C   UNK     0      19.981  25.610  13.370  0.00  0.00     0.099 A 
HETATM   25  C   UNK     0      20.532  24.468  12.790  0.00  0.00     0.098 A 
HETATM   26  C   UNK     0      21.470  24.590  11.765  0.00  0.00     0.040 A 
HETATM   27  C   UNK     0      21.860  25.854  11.323  0.00  0.00     0.017 A 
BRANCH  24  28
HETATM   28  O   UNK     0      19.064  25.503  14.373  0.00  0.00    -0.358 OA
HETATM   29  H   UNK     0      18.178  25.622  13.991  0.00  0.00     0.217 HD
ENDBRANCH  24  28
BRANCH  25  30
HETATM   30  O   UNK     0      20.159  23.228  13.212  0.00  0.00    -0.358 OA
HETATM   31  H   UNK     0      20.433  22.572  12.549  0.00  0.00     0.217 HD
ENDBRANCH  25  30
ENDBRANCH  16  22
BRANCH  20  32
HETATM   32  O   UNK     0      23.107  32.698   9.253  0.00  0.00    -0.360 OA
HETATM   33  H   UNK     0      22.323  32.513   8.714  0.00  0.00     0.217 HD
ENDBRANCH  20  32
ENDBRANCH  10  11
ENDBRANCH   6  10
BRANCH   3  34
HETATM   34  O   UNK     0      22.736  39.056  13.524  0.00  0.00    -0.390 OA
HETATM   35  H   UNK     0      22.863  39.275  12.584  0.00  0.00     0.210 HD
ENDBRANCH   3  34
BRANCH   4  36
HETATM   36  O   UNK     0      22.053  35.029  16.037  0.00  0.00    -0.388 OA
HETATM   37  H   UNK     0      22.188  35.469  16.894  0.00  0.00     0.210 HD
ENDBRANCH   4  36
BRANCH   2  38
HETATM   38  O   UNK     0      22.995  37.819  16.124  0.00  0.00    -0.390 OA
HETATM   39  H   UNK     0      23.483  37.185  16.677  0.00  0.00     0.210 HD
ENDBRANCH   2  38
TORSDOF 11
ENDMDL
MODEL 5
REMARK VINA RESULT:     -10.7      2.847      6.996
REMARK  11 active torsions:
REMARK  status: ('A' for Active; 'I' for Inactive)
REMARK    1  A    between atoms: O_2  and  C_16 
REMARK    2  A    between atoms: O_2  and  C_18 
REMARK    3  A    between atoms: O_3  and  C_12 
REMARK    4  A    between atoms: O_4  and  C_13 
REMARK    5  A    between atoms: O_5  and  C_14 
REMARK    6  A    between atoms: O_6  and  C_17 
REMARK    7  A    between atoms: O_8  and  C_23 
REMARK    8  A    between atoms: O_10  and  C_30 
REMARK    9  A    between atoms: O_11  and  C_32 
REMARK   10  A    between atoms: C_15  and  C_17 
REMARK   11  A    between atoms: C_25  and  C_27 
ROOT
HETATM    1  O   UNK     0       9.706  14.968  21.420  0.00  0.00    -0.348 OA
HETATM    2  C   UNK     0       6.954  15.103  20.610  0.00  0.00     0.183 C 
HETATM    3  C   UNK     0       7.625  16.209  21.426  0.00  0.00     0.180 C 
HETATM    4  C   UNK     0       7.695  13.775  20.764  0.00  0.00     0.205 C 
HETATM    5  C   UNK     0       9.130  16.248  21.153  0.00  0.00     0.179 C 
HETATM    6  C   UNK     0       9.200  13.950  20.559  0.00  0.00     0.298 C 
ENDROOT
BRANCH   5   7
HETATM    7  C   UNK     0       9.837  17.266  22.043  0.00  0.00     0.198 C 
BRANCH   7   8
HETATM    8  O   UNK     0       8.877  17.867  22.891  0.00  0.00    -0.398 OA
HETATM    9  H   UNK     0       8.691  17.245  23.615  0.00  0.00     0.209 HD
ENDBRANCH   7   8
ENDBRANCH   5   7
BRANCH   6  10
HETATM   10  O   UNK     0       9.833  12.707  20.858  0.00  0.00    -0.318 OA
BRANCH  10  11
HETATM   11  C   UNK     0      10.388  12.587  22.098  0.00  0.00     0.077 A 
HETATM   12  C   UNK     0      10.849  13.722  22.767  0.00  0.00     0.075 A 
HETATM   13  C   UNK     0      11.416  13.597  24.034  0.00  0.00     0.095 A 
HETATM   14  O   UNK     0      11.851  14.747  24.642  0.00  0.00    -0.309 OA
HETATM   15  C   UNK     0      11.523  12.340  24.629  0.00  0.00     0.081 A 
HETATM   16  C   UNK     0      12.415  14.654  25.905  0.00  0.00     0.090 A 
HETATM   17  C   UNK     0      12.577  13.504  26.577  0.00  0.00     0.094 A 
HETATM   18  C   UNK     0      12.128  12.237  25.966  0.00  0.00     0.190 A 
HETATM   19  O   UNK     0      12.256  11.167  26.545  0.00  0.00    -0.287 OA
HETATM   20  C   UNK     0      11.063  11.202  23.963  0.00  0.00     0.085 A 
HETATM   21  C   UNK     0      10.495  11.331  22.694  0.00  0.00     0.074 A 
BRANCH  16  22
HETATM   22  C   UNK     0      12.853  15.950  26.464  0.00  0.00     0.001 A 
HETATM   23  C   UNK     0      13.719  15.983  27.559  0.00  0.00     0.053 A 
HETATM   24  C   UNK     0      14.134  17.208  28.085  0.00  0.00     0.099 A 
HETATM   25  C   UNK     0      13.684  18.399  27.519  0.00  0.00     0.098 A 
HETATM   26  C   UNK     0      12.820  18.368  26.424  0.00  0.00     0.040 A 
HETATM   27  C   UNK     0      12.405  17.146  25.897  0.00  0.00     0.017 A 
BRANCH  24  28
HETATM   28  O   UNK     0      14.977  17.226  29.156  0.00  0.00    -0.358 OA
HETATM   29  H   UNK     0      15.883  17.080  28.835  0.00  0.00     0.217 HD
ENDBRANCH  24  28
BRANCH  25  30
HETATM   30  O   UNK     0      14.083  19.600  28.023  0.00  0.00    -0.358 OA
HETATM   31  H   UNK     0      13.448  19.885  28.703  0.00  0.00     0.217 HD
ENDBRANCH  25  30
ENDBRANCH  16  22
BRANCH  20  32
HETATM   32  O   UNK     0      11.145   9.954  24.501  0.00  0.00    -0.360 OA
HETATM   33  H   UNK     0      11.406  10.001  25.434  0.00  0.00     0.217 HD
ENDBRANCH  20  32
ENDBRANCH  10  11
ENDBRANCH   6  10
BRANCH   3  34
HETATM   34  O   UNK     0       7.050  17.466  21.076  0.00  0.00    -0.390 OA
HETATM   35  H   UNK     0       7.596  18.166  21.473  0.00  0.00     0.210 HD
ENDBRANCH   3  34
BRANCH   4  36
HETATM   36  O   UNK     0       7.216  12.849  19.790  0.00  0.00    -0.388 OA
HETATM   37  H   UNK     0       7.983  12.392  19.405  0.00  0.00     0.210 HD
ENDBRANCH   4  36
BRANCH   2  38
HETATM   38  O   UNK     0       5.613  14.957  21.080  0.00  0.00    -0.390 OA
HETATM   39  H   UNK     0       5.558  15.403  21.943  0.00  0.00     0.210 HD
ENDBRANCH   2  38
TORSDOF 11
ENDMDL
MODEL 6
REMARK VINA RESULT:     -10.6      1.754      2.849
REMARK  11 active torsions:
REMARK  status: ('A' for Active; 'I' for Inactive)
REMARK    1  A    between atoms: O_2  and  C_16 
REMARK    2  A    between atoms: O_2  and  C_18 
REMARK    3  A    between atoms: O_3  and  C_12 
REMARK    4  A    between atoms: O_4  and  C_13 
REMARK    5  A    between atoms: O_5  and  C_14 
REMARK    6  A    between atoms: O_6  and  C_17 
REMARK    7  A    between atoms: O_8  and  C_23 
REMARK    8  A    between atoms: O_10  and  C_30 
REMARK    9  A    between atoms: O_11  and  C_32 
REMARK   10  A    between atoms: C_15  and  C_17 
REMARK   11  A    between atoms: C_25  and  C_27 
ROOT
HETATM    1  O   UNK     0      10.874  20.675  24.942  0.00  0.00    -0.348 OA
HETATM    2  C   UNK     0       9.458  22.706  26.398  0.00  0.00     0.183 C 
HETATM    3  C   UNK     0       9.176  22.404  24.926  0.00  0.00     0.180 C 
HETATM    4  C   UNK     0      10.857  22.238  26.800  0.00  0.00     0.205 C 
HETATM    5  C   UNK     0       9.515  20.949  24.595  0.00  0.00     0.179 C 
HETATM    6  C   UNK     0      11.118  20.804  26.341  0.00  0.00     0.298 C 
ENDROOT
BRANCH   5   7
HETATM    7  C   UNK     0       9.353  20.657  23.107  0.00  0.00     0.198 C 
BRANCH   7   8
HETATM    8  O   UNK     0       9.180  21.884  22.423  0.00  0.00    -0.398 OA
HETATM    9  H   UNK     0       9.746  21.864  21.632  0.00  0.00     0.209 HD
ENDBRANCH   7   8
ENDBRANCH   5   7
BRANCH   6  10
HETATM   10  O   UNK     0      12.481  20.492  26.624  0.00  0.00    -0.318 OA
BRANCH  10  11
HETATM   11  C   UNK     0      12.790  19.172  26.760  0.00  0.00     0.077 A 
HETATM   12  C   UNK     0      12.243  18.235  25.882  0.00  0.00     0.075 A 
HETATM   13  C   UNK     0      12.561  16.884  26.023  0.00  0.00     0.095 A 
HETATM   14  O   UNK     0      11.993  16.010  25.131  0.00  0.00    -0.309 OA
HETATM   15  C   UNK     0      13.422  16.473  27.040  0.00  0.00     0.081 A 
HETATM   16  C   UNK     0      12.295  14.662  25.244  0.00  0.00     0.090 A 
HETATM   17  C   UNK     0      13.103  14.145  26.182  0.00  0.00     0.094 A 
HETATM   18  C   UNK     0      13.738  15.043  27.168  0.00  0.00     0.190 A 
HETATM   19  O   UNK     0      14.482  14.613  28.038  0.00  0.00    -0.287 OA
HETATM   20  C   UNK     0      13.971  17.408  27.922  0.00  0.00     0.085 A 
HETATM   21  C   UNK     0      13.652  18.759  27.777  0.00  0.00     0.074 A 
BRANCH  16  22
HETATM   22  C   UNK     0      11.627  13.811  24.238  0.00  0.00     0.001 A 
HETATM   23  C   UNK     0      10.948  14.395  23.166  0.00  0.00     0.053 A 
HETATM   24  C   UNK     0      10.318  13.591  22.215  0.00  0.00     0.099 A 
HETATM   25  C   UNK     0      10.364  12.203  22.335  0.00  0.00     0.098 A 
HETATM   26  C   UNK     0      11.042  11.617  23.405  0.00  0.00     0.040 A 
HETATM   27  C   UNK     0      11.672  12.419  24.355  0.00  0.00     0.017 A 
BRANCH  24  28
HETATM   28  O   UNK     0       9.657  14.174  21.176  0.00  0.00    -0.358 OA
HETATM   29  H   UNK     0       8.706  14.171  21.378  0.00  0.00     0.217 HD
ENDBRANCH  24  28
BRANCH  25  30
HETATM   30  O   UNK     0       9.753  11.408  21.413  0.00  0.00    -0.358 OA
HETATM   31  H   UNK     0      10.379  11.220  20.692  0.00  0.00     0.217 HD
ENDBRANCH  25  30
ENDBRANCH  16  22
BRANCH  20  32
HETATM   32  O   UNK     0      14.816  17.057  28.930  0.00  0.00    -0.360 OA
HETATM   33  H   UNK     0      14.317  16.751  29.702  0.00  0.00     0.217 HD
ENDBRANCH  20  32
ENDBRANCH  10  11
ENDBRANCH   6  10
BRANCH   3  34
HETATM   34  O   UNK     0       7.796  22.640  24.653  0.00  0.00    -0.390 OA
HETATM   35  H   UNK     0       7.717  22.906  23.721  0.00  0.00     0.210 HD
ENDBRANCH   3  34
BRANCH   4  36
HETATM   36  O   UNK     0      10.980  22.283  28.222  0.00  0.00    -0.388 OA
HETATM   37  H   UNK     0      10.297  22.884  28.565  0.00  0.00     0.210 HD
ENDBRANCH   4  36
BRANCH   2  38
HETATM   38  O   UNK     0       9.355  24.118  26.588  0.00  0.00    -0.390 OA
HETATM   39  H   UNK     0       8.745  24.267  27.331  0.00  0.00     0.210 HD
ENDBRANCH   2  38
TORSDOF 11
ENDMDL
MODEL 7
REMARK VINA RESULT:     -10.3     14.944     17.098
REMARK  11 active torsions:
REMARK  status: ('A' for Active; 'I' for Inactive)
REMARK    1  A    between atoms: O_2  and  C_16 
REMARK    2  A    between atoms: O_2  and  C_18 
REMARK    3  A    between atoms: O_3  and  C_12 
REMARK    4  A    between atoms: O_4  and  C_13 
REMARK    5  A    between atoms: O_5  and  C_14 
REMARK    6  A    between atoms: O_6  and  C_17 
REMARK    7  A    between atoms: O_8  and  C_23 
REMARK    8  A    between atoms: O_10  and  C_30 
REMARK    9  A    between atoms: O_11  and  C_32 
REMARK   10  A    between atoms: C_15  and  C_17 
REMARK   11  A    between atoms: C_25  and  C_27 
ROOT
HETATM    1  O   UNK     0      26.651  23.925  23.997  0.00  0.00    -0.348 OA
HETATM    2  C   UNK     0      24.928  25.871  25.218  0.00  0.00     0.183 C 
HETATM    3  C   UNK     0      26.449  25.917  25.362  0.00  0.00     0.180 C 
HETATM    4  C   UNK     0      24.448  24.463  24.866  0.00  0.00     0.205 C 
HETATM    5  C   UNK     0      27.128  25.262  24.157  0.00  0.00     0.179 C 
HETATM    6  C   UNK     0      25.255  23.873  23.709  0.00  0.00     0.298 C 
ENDROOT
BRANCH   5   7
HETATM    7  C   UNK     0      28.642  25.192  24.332  0.00  0.00     0.198 C 
BRANCH   7   8
HETATM    8  O   UNK     0      29.227  26.279  23.638  0.00  0.00    -0.398 OA
HETATM    9  H   UNK     0      28.585  26.585  22.974  0.00  0.00     0.209 HD
ENDBRANCH   7   8
ENDBRANCH   5   7
BRANCH   6  10
HETATM   10  O   UNK     0      24.848  22.517  23.535  0.00  0.00    -0.318 OA
BRANCH  10  11
HETATM   11  C   UNK     0      25.812  21.565  23.693  0.00  0.00     0.077 A 
HETATM   12  C   UNK     0      26.084  21.054  24.963  0.00  0.00     0.075 A 
HETATM   13  C   UNK     0      27.070  20.081  25.122  0.00  0.00     0.095 A 
HETATM   14  O   UNK     0      27.293  19.617  26.394  0.00  0.00    -0.309 OA
HETATM   15  C   UNK     0      27.782  19.623  24.014  0.00  0.00     0.081 A 
HETATM   16  C   UNK     0      28.263  18.645  26.581  0.00  0.00     0.090 A 
HETATM   17  C   UNK     0      29.017  18.130  25.597  0.00  0.00     0.094 A 
HETATM   18  C   UNK     0      28.818  18.598  24.211  0.00  0.00     0.190 A 
HETATM   19  O   UNK     0      29.482  18.153  23.285  0.00  0.00    -0.287 OA
HETATM   20  C   UNK     0      27.513  20.132  22.741  0.00  0.00     0.085 A 
HETATM   21  C   UNK     0      26.524  21.105  22.585  0.00  0.00     0.074 A 
BRANCH  16  22
HETATM   22  C   UNK     0      28.425  18.222  27.987  0.00  0.00     0.001 A 
HETATM   23  C   UNK     0      27.519  18.656  28.958  0.00  0.00     0.053 A 
HETATM   24  C   UNK     0      27.671  18.254  30.286  0.00  0.00     0.099 A 
HETATM   25  C   UNK     0      28.728  17.420  30.646  0.00  0.00     0.098 A 
HETATM   26  C   UNK     0      29.633  16.985  29.678  0.00  0.00     0.040 A 
HETATM   27  C   UNK     0      29.483  17.385  28.351  0.00  0.00     0.017 A 
BRANCH  24  28
HETATM   28  O   UNK     0      26.781  18.687  31.223  0.00  0.00    -0.358 OA
HETATM   29  H   UNK     0      26.137  17.977  31.384  0.00  0.00     0.217 HD
ENDBRANCH  24  28
BRANCH  25  30
HETATM   30  O   UNK     0      28.886  17.021  31.939  0.00  0.00    -0.358 OA
HETATM   31  H   UNK     0      28.907  17.806  32.513  0.00  0.00     0.217 HD
ENDBRANCH  25  30
ENDBRANCH  16  22
BRANCH  20  32
HETATM   32  O   UNK     0      28.180  19.717  21.630  0.00  0.00    -0.360 OA
HETATM   33  H   UNK     0      28.196  20.417  20.959  0.00  0.00     0.217 HD
ENDBRANCH  20  32
ENDBRANCH  10  11
ENDBRANCH   6  10
BRANCH   3  34
HETATM   34  O   UNK     0      26.872  27.276  25.460  0.00  0.00    -0.390 OA
HETATM   35  H   UNK     0      27.755  27.345  25.058  0.00  0.00     0.210 HD
ENDBRANCH   3  34
BRANCH   4  36
HETATM   36  O   UNK     0      23.076  24.515  24.474  0.00  0.00    -0.388 OA
HETATM   37  H   UNK     0      22.589  25.019  25.148  0.00  0.00     0.210 HD
ENDBRANCH   4  36
BRANCH   2  38
HETATM   38  O   UNK     0      24.353  26.271  26.464  0.00  0.00    -0.390 OA
HETATM   39  H   UNK     0      24.100  25.462  26.940  0.00  0.00     0.210 HD
ENDBRANCH   2  38
TORSDOF 11
ENDMDL
MODEL 8
REMARK VINA RESULT:     -10.3     15.117     16.438
REMARK  11 active torsions:
REMARK  status: ('A' for Active; 'I' for Inactive)
REMARK    1  A    between atoms: O_2  and  C_16 
REMARK    2  A    between atoms: O_2  and  C_18 
REMARK    3  A    between atoms: O_3  and  C_12 
REMARK    4  A    between atoms: O_4  and  C_13 
REMARK    5  A    between atoms: O_5  and  C_14 
REMARK    6  A    between atoms: O_6  and  C_17 
REMARK    7  A    between atoms: O_8  and  C_23 
REMARK    8  A    between atoms: O_10  and  C_30 
REMARK    9  A    between atoms: O_11  and  C_32 
REMARK   10  A    between atoms: C_15  and  C_17 
REMARK   11  A    between atoms: C_25  and  C_27 
ROOT
HETATM    1  O   UNK     0      24.647  24.664  25.147  0.00  0.00    -0.348 OA
HETATM    2  C   UNK     0      27.051  26.233  25.238  0.00  0.00     0.183 C 
HETATM    3  C   UNK     0      25.750  26.685  25.901  0.00  0.00     0.180 C 
HETATM    4  C   UNK     0      26.781  25.216  24.128  0.00  0.00     0.205 C 
HETATM    5  C   UNK     0      24.892  25.480  26.293  0.00  0.00     0.179 C 
HETATM    6  C   UNK     0      25.843  24.107  24.605  0.00  0.00     0.298 C 
ENDROOT
BRANCH   5   7
HETATM    7  C   UNK     0      23.539  25.909  26.851  0.00  0.00     0.198 C 
BRANCH   7   8
HETATM    8  O   UNK     0      23.384  27.300  26.638  0.00  0.00    -0.398 OA
HETATM    9  H   UNK     0      23.208  27.713  27.501  0.00  0.00     0.209 HD
ENDBRANCH   7   8
ENDBRANCH   5   7
BRANCH   6  10
HETATM   10  O   UNK     0      25.527  23.285  23.483  0.00  0.00    -0.318 OA
BRANCH  10  11
HETATM   11  C   UNK     0      25.877  21.970  23.572  0.00  0.00     0.077 A 
HETATM   12  C   UNK     0      26.101  21.393  24.822  0.00  0.00     0.075 A 
HETATM   13  C   UNK     0      26.458  20.048  24.911  0.00  0.00     0.095 A 
HETATM   14  O   UNK     0      26.666  19.536  26.167  0.00  0.00    -0.309 OA
HETATM   15  C   UNK     0      26.592  19.284  23.752  0.00  0.00     0.081 A 
HETATM   16  C   UNK     0      27.017  18.200  26.285  0.00  0.00     0.090 A 
HETATM   17  C   UNK     0      27.182  17.366  25.246  0.00  0.00     0.094 A 
HETATM   18  C   UNK     0      26.972  17.869  23.874  0.00  0.00     0.190 A 
HETATM   19  O   UNK     0      27.110  17.142  22.899  0.00  0.00    -0.287 OA
HETATM   20  C   UNK     0      26.369  19.859  22.498  0.00  0.00     0.085 A 
HETATM   21  C   UNK     0      26.010  21.205  22.413  0.00  0.00     0.074 A 
BRANCH  16  22
HETATM   22  C   UNK     0      27.222  17.755  27.679  0.00  0.00     0.001 A 
HETATM   23  C   UNK     0      27.241  16.392  27.984  0.00  0.00     0.053 A 
HETATM   24  C   UNK     0      27.436  15.972  29.301  0.00  0.00     0.099 A 
HETATM   25  C   UNK     0      27.610  16.913  30.314  0.00  0.00     0.098 A 
HETATM   26  C   UNK     0      27.591  18.275  30.012  0.00  0.00     0.040 A 
HETATM   27  C   UNK     0      27.397  18.696  28.697  0.00  0.00     0.017 A 
BRANCH  24  28
HETATM   28  O   UNK     0      27.450  14.639  29.584  0.00  0.00    -0.358 OA
HETATM   29  H   UNK     0      27.098  14.514  30.481  0.00  0.00     0.217 HD
ENDBRANCH  24  28
BRANCH  25  30
HETATM   30  O   UNK     0      27.801  16.515  31.603  0.00  0.00    -0.358 OA
HETATM   31  H   UNK     0      28.576  16.979  31.966  0.00  0.00     0.217 HD
ENDBRANCH  25  30
ENDBRANCH  16  22
BRANCH  20  32
HETATM   32  O   UNK     0      26.486  19.156  21.338  0.00  0.00    -0.360 OA
HETATM   33  H   UNK     0      27.418  18.983  21.136  0.00  0.00     0.217 HD
ENDBRANCH  20  32
ENDBRANCH  10  11
ENDBRANCH   6  10
BRANCH   3  34
HETATM   34  O   UNK     0      26.056  27.445  27.069  0.00  0.00    -0.390 OA
HETATM   35  H   UNK     0      26.204  28.367  26.796  0.00  0.00     0.210 HD
ENDBRANCH   3  34
BRANCH   4  36
HETATM   36  O   UNK     0      28.012  24.618  23.724  0.00  0.00    -0.388 OA
HETATM   37  H   UNK     0      27.805  23.835  23.185  0.00  0.00     0.210 HD
ENDBRANCH   4  36
BRANCH   2  38
HETATM   38  O   UNK     0      27.688  27.384  24.683  0.00  0.00    -0.390 OA
HETATM   39  H   UNK     0      27.197  27.629  23.879  0.00  0.00     0.210 HD
ENDBRANCH   2  38
TORSDOF 11
ENDMDL
MODEL 9
REMARK VINA RESULT:     -10.3     17.171     20.932
REMARK  11 active torsions:
REMARK  status: ('A' for Active; 'I' for Inactive)
REMARK    1  A    between atoms: O_2  and  C_16 
REMARK    2  A    between atoms: O_2  and  C_18 
REMARK    3  A    between atoms: O_3  and  C_12 
REMARK    4  A    between atoms: O_4  and  C_13 
REMARK    5  A    between atoms: O_5  and  C_14 
REMARK    6  A    between atoms: O_6  and  C_17 
REMARK    7  A    between atoms: O_8  and  C_23 
REMARK    8  A    between atoms: O_10  and  C_30 
REMARK    9  A    between atoms: O_11  and  C_32 
REMARK   10  A    between atoms: C_15  and  C_17 
REMARK   11  A    between atoms: C_25  and  C_27 
ROOT
HETATM    1  O   UNK     0      15.506  38.816  30.556  0.00  0.00    -0.348 OA
HETATM    2  C   UNK     0      13.833  40.717  31.912  0.00  0.00     0.183 C 
HETATM    3  C   UNK     0      14.581  39.607  32.651  0.00  0.00     0.180 C 
HETATM    4  C   UNK     0      13.639  40.365  30.436  0.00  0.00     0.205 C 
HETATM    5  C   UNK     0      15.844  39.202  31.889  0.00  0.00     0.179 C 
HETATM    6  C   UNK     0      14.946  39.889  29.801  0.00  0.00     0.298 C 
ENDROOT
BRANCH   5   7
HETATM    7  C   UNK     0      16.544  38.017  32.547  0.00  0.00     0.198 C 
BRANCH   7   8
HETATM    8  O   UNK     0      17.422  37.431  31.603  0.00  0.00    -0.398 OA
HETATM    9  H   UNK     0      18.180  37.066  32.091  0.00  0.00     0.209 HD
ENDBRANCH   7   8
ENDBRANCH   5   7
BRANCH   6  10
HETATM   10  O   UNK     0      14.656  39.447  28.476  0.00  0.00    -0.318 OA
BRANCH  10  11
HETATM   11  C   UNK     0      15.713  39.013  27.732  0.00  0.00     0.077 A 
HETATM   12  C   UNK     0      16.157  37.696  27.857  0.00  0.00     0.075 A 
HETATM   13  C   UNK     0      17.238  37.255  27.095  0.00  0.00     0.095 A 
HETATM   14  O   UNK     0      17.630  35.950  27.260  0.00  0.00    -0.309 OA
HETATM   15  C   UNK     0      17.873  38.129  26.212  0.00  0.00     0.081 A 
HETATM   16  C   UNK     0      18.699  35.482  26.511  0.00  0.00     0.090 A 
HETATM   17  C   UNK     0      19.392  36.226  25.636  0.00  0.00     0.094 A 
HETATM   18  C   UNK     0      19.012  37.637  25.423  0.00  0.00     0.190 A 
HETATM   19  O   UNK     0      19.616  38.350  24.633  0.00  0.00    -0.287 OA
HETATM   20  C   UNK     0      17.431  39.448  26.085  0.00  0.00     0.085 A 
HETATM   21  C   UNK     0      16.348  39.887  26.849  0.00  0.00     0.074 A 
BRANCH  16  22
HETATM   22  C   UNK     0      19.039  34.068  26.771  0.00  0.00     0.001 A 
HETATM   23  C   UNK     0      18.284  33.320  27.677  0.00  0.00     0.053 A 
HETATM   24  C   UNK     0      18.605  31.985  27.921  0.00  0.00     0.099 A 
HETATM   25  C   UNK     0      19.682  31.394  27.262  0.00  0.00     0.098 A 
HETATM   26  C   UNK     0      20.438  32.139  26.355  0.00  0.00     0.040 A 
HETATM   27  C   UNK     0      20.118  33.473  26.110  0.00  0.00     0.017 A 
BRANCH  24  28
HETATM   28  O   UNK     0      17.861  31.268  28.810  0.00  0.00    -0.358 OA
HETATM   29  H   UNK     0      17.272  31.882  29.281  0.00  0.00     0.217 HD
ENDBRANCH  24  28
BRANCH  25  30
HETATM   30  O   UNK     0      20.005  30.091  27.491  0.00  0.00    -0.358 OA
HETATM   31  H   UNK     0      20.966  30.021  27.621  0.00  0.00     0.217 HD
ENDBRANCH  25  30
ENDBRANCH  16  22
BRANCH  20  32
HETATM   32  O   UNK     0      18.016  40.339  25.239  0.00  0.00    -0.360 OA
HETATM   33  H   UNK     0      18.803  40.732  25.647  0.00  0.00     0.217 HD
ENDBRANCH  20  32
ENDBRANCH  10  11
ENDBRANCH   6  10
BRANCH   3  34
HETATM   34  O   UNK     0      14.942  40.068  33.952  0.00  0.00    -0.390 OA
HETATM   35  H   UNK     0      14.655  39.400  34.597  0.00  0.00     0.210 HD
ENDBRANCH   3  34
BRANCH   4  36
HETATM   36  O   UNK     0      13.193  41.522  29.729  0.00  0.00    -0.388 OA
HETATM   37  H   UNK     0      13.486  42.308  30.221  0.00  0.00     0.210 HD
ENDBRANCH   4  36
BRANCH   2  38
HETATM   38  O   UNK     0      12.557  40.882  32.533  0.00  0.00    -0.390 OA
HETATM   39  H   UNK     0      12.541  40.309  33.319  0.00  0.00     0.210 HD
ENDBRANCH   2  38
TORSDOF 11
ENDMDL
