MODEL 1
REMARK VINA RESULT:    -6.682      0.000      0.000
REMARK INTER + INTRA:          -7.954
REMARK INTER:                  -7.854
REMARK INTRA:                  -0.100
REMARK UNBOUND:                -0.100
REMARK  Name = 7431
REMARK  4 active torsions:
REMARK  status: ('A' for Active; 'I' for Inactive)
REMARK    1  A    between atoms: O_3  and  C_12
REMARK    2  A    between atoms: O_4  and  C_13
REMARK    3  A    between atoms: C_7  and  C_12
REMARK    4  A    between atoms: C_8  and  C_13
REMARK                            x       y       z     vdW  Elec       q    Type
REMARK                         _______ _______ _______ _____ _____    ______ ____
ROOT
ATOM      1  O   UNL     1     125.956 153.796 127.412  0.00  0.00    +0.000 OA
ATOM      2  O   UNL     1     124.665 155.993 124.267  0.00  0.00    +0.000 OA
ATOM      3  C   UNL     1     125.921 155.174 127.474  0.00  0.00    +0.000 A 
ATOM      4  C   UNL     1     125.538 153.191 126.246  0.00  0.00    +0.000 A 
ATOM      5  C   UNL     1     125.508 155.965 126.477  0.00  0.00    +0.000 A 
ATOM      6  C   UNL     1     125.099 153.849 125.167  0.00  0.00    +0.000 A 
ATOM      7  C   UNL     1     125.056 155.328 125.220  0.00  0.00    +0.000 A 
ENDROOT
BRANCH   3   9
ATOM      8  O   UNL     1     125.670 156.515 129.420  0.00  0.00    +0.000 OA
ATOM      9  C   UNL     1     126.367 155.805 128.715  0.00  0.00    +0.000 C 
BRANCH   9  10
ATOM     10  O   UNL     1     127.656 155.482 128.953  0.00  0.00    +0.000 OA
ATOM     11  H   UNL     1     128.180 156.253 129.257  0.00  0.00    +0.000 HD
ENDBRANCH   9  10
ENDBRANCH   3   9
BRANCH   4  13
ATOM     12  O   UNL     1     126.500 151.080 125.724  0.00  0.00    +0.000 OA
ATOM     13  C   UNL     1     125.580 151.730 126.191  0.00  0.00    +0.000 C 
BRANCH  13  14
ATOM     14  O   UNL     1     124.452 151.222 126.734  0.00  0.00    +0.000 OA
ATOM     15  H   UNL     1     124.224 151.655 127.584  0.00  0.00    +0.000 HD
ENDBRANCH  13  14
ENDBRANCH   4  13
TORSDOF 4
ENDMDL
MODEL 2
REMARK VINA RESULT:    -6.681      0.026      4.166
REMARK INTER + INTRA:          -7.953
REMARK INTER:                  -7.853
REMARK INTRA:                  -0.100
REMARK UNBOUND:                -0.100
REMARK  Name = 7431
REMARK  4 active torsions:
REMARK  status: ('A' for Active; 'I' for Inactive)
REMARK    1  A    between atoms: O_3  and  C_12
REMARK    2  A    between atoms: O_4  and  C_13
REMARK    3  A    between atoms: C_7  and  C_12
REMARK    4  A    between atoms: C_8  and  C_13
REMARK                            x       y       z     vdW  Elec       q    Type
REMARK                         _______ _______ _______ _____ _____    ______ ____
ROOT
ATOM      1  O   UNL     1     125.943 153.802 127.421  0.00  0.00    +0.000 OA
ATOM      2  O   UNL     1     124.684 156.007 124.268  0.00  0.00    +0.000 OA
ATOM      3  C   UNL     1     125.521 153.199 126.255  0.00  0.00    +0.000 A 
ATOM      4  C   UNL     1     125.924 155.180 127.480  0.00  0.00    +0.000 A 
ATOM      5  C   UNL     1     125.092 153.860 125.174  0.00  0.00    +0.000 A 
ATOM      6  C   UNL     1     125.522 155.974 126.480  0.00  0.00    +0.000 A 
ATOM      7  C   UNL     1     125.066 155.339 125.223  0.00  0.00    +0.000 A 
ENDROOT
BRANCH   3   9
ATOM      8  O   UNL     1     126.465 151.076 125.753  0.00  0.00    +0.000 OA
ATOM      9  C   UNL     1     125.546 151.737 126.204  0.00  0.00    +0.000 C 
BRANCH   9  10
ATOM     10  O   UNL     1     124.403 151.244 126.729  0.00  0.00    +0.000 OA
ATOM     11  H   UNL     1     124.576 150.615 127.462  0.00  0.00    +0.000 HD
ENDBRANCH   9  10
ENDBRANCH   3   9
BRANCH   4  13
ATOM     12  O   UNL     1     125.683 156.526 129.425  0.00  0.00    +0.000 OA
ATOM     13  C   UNL     1     126.374 155.809 128.721  0.00  0.00    +0.000 C 
BRANCH  13  14
ATOM     14  O   UNL     1     127.661 155.475 128.960  0.00  0.00    +0.000 OA
ATOM     15  H   UNL     1     128.073 155.023 128.194  0.00  0.00    +0.000 HD
ENDBRANCH  13  14
ENDBRANCH   4  13
TORSDOF 4
ENDMDL
MODEL 3
REMARK VINA RESULT:    -6.449     35.433     36.185
REMARK INTER + INTRA:          -7.679
REMARK INTER:                  -7.567
REMARK INTRA:                  -0.112
REMARK UNBOUND:                -0.100
REMARK  Name = 7431
REMARK  4 active torsions:
REMARK  status: ('A' for Active; 'I' for Inactive)
REMARK    1  A    between atoms: O_3  and  C_12
REMARK    2  A    between atoms: O_4  and  C_13
REMARK    3  A    between atoms: C_7  and  C_12
REMARK    4  A    between atoms: C_8  and  C_13
REMARK                            x       y       z     vdW  Elec       q    Type
REMARK                         _______ _______ _______ _____ _____    ______ ____
ROOT
ATOM      1  O   UNL     1     148.830 127.012 126.986  0.00  0.00    +0.000 OA
ATOM      2  O   UNL     1     146.897 123.897 125.269  0.00  0.00    +0.000 OA
ATOM      3  C   UNL     1     148.915 126.783 125.629  0.00  0.00    +0.000 A 
ATOM      4  C   UNL     1     148.065 126.147 127.741  0.00  0.00    +0.000 A 
ATOM      5  C   UNL     1     148.306 125.777 124.991  0.00  0.00    +0.000 A 
ATOM      6  C   UNL     1     147.399 125.098 127.245  0.00  0.00    +0.000 A 
ATOM      7  C   UNL     1     147.482 124.841 125.789  0.00  0.00    +0.000 A 
ENDROOT
BRANCH   3   9
ATOM      8  O   UNL     1     150.557 128.471 125.303  0.00  0.00    +0.000 OA
ATOM      9  C   UNL     1     149.728 127.707 124.838  0.00  0.00    +0.000 C 
BRANCH   9  10
ATOM     10  O   UNL     1     149.420 127.580 123.530  0.00  0.00    +0.000 OA
ATOM     11  H   UNL     1     148.592 128.053 123.298  0.00  0.00    +0.000 HD
ENDBRANCH   9  10
ENDBRANCH   3   9
BRANCH   4  13
ATOM     12  O   UNL     1     146.972 126.756 129.762  0.00  0.00    +0.000 OA
ATOM     13  C   UNL     1     147.981 126.399 129.179  0.00  0.00    +0.000 C 
BRANCH  13  14
ATOM     14  O   UNL     1     149.184 126.177 129.751  0.00  0.00    +0.000 OA
ATOM     15  H   UNL     1     149.662 127.011 129.942  0.00  0.00    +0.000 HD
ENDBRANCH  13  14
ENDBRANCH   4  13
TORSDOF 4
ENDMDL
MODEL 4
REMARK VINA RESULT:    -6.435     35.366     36.071
REMARK INTER + INTRA:          -7.663
REMARK INTER:                  -7.551
REMARK INTRA:                  -0.112
REMARK UNBOUND:                -0.100
REMARK  Name = 7431
REMARK  4 active torsions:
REMARK  status: ('A' for Active; 'I' for Inactive)
REMARK    1  A    between atoms: O_3  and  C_12
REMARK    2  A    between atoms: O_4  and  C_13
REMARK    3  A    between atoms: C_7  and  C_12
REMARK    4  A    between atoms: C_8  and  C_13
REMARK                            x       y       z     vdW  Elec       q    Type
REMARK                         _______ _______ _______ _____ _____    ______ ____
ROOT
ATOM      1  O   UNL     1     148.747 127.067 126.965  0.00  0.00    +0.000 OA
ATOM      2  O   UNL     1     146.900 123.880 125.285  0.00  0.00    +0.000 OA
ATOM      3  C   UNL     1     148.038 126.169 127.735  0.00  0.00    +0.000 A 
ATOM      4  C   UNL     1     148.807 126.846 125.604  0.00  0.00    +0.000 A 
ATOM      5  C   UNL     1     147.403 125.094 127.252  0.00  0.00    +0.000 A 
ATOM      6  C   UNL     1     148.223 125.817 124.979  0.00  0.00    +0.000 A 
ATOM      7  C   UNL     1     147.460 124.845 125.794  0.00  0.00    +0.000 A 
ENDROOT
BRANCH   3   9
ATOM      8  O   UNL     1     146.993 126.805 129.773  0.00  0.00    +0.000 OA
ATOM      9  C   UNL     1     147.981 126.413 129.175  0.00  0.00    +0.000 C 
BRANCH   9  10
ATOM     10  O   UNL     1     149.180 126.138 129.732  0.00  0.00    +0.000 OA
ATOM     11  H   UNL     1     149.639 125.401 129.276  0.00  0.00    +0.000 HD
ENDBRANCH   9  10
ENDBRANCH   3   9
BRANCH   4  13
ATOM     12  O   UNL     1     150.190 128.747 125.249  0.00  0.00    +0.000 OA
ATOM     13  C   UNL     1     149.561 127.805 124.798  0.00  0.00    +0.000 C 
BRANCH  13  14
ATOM     14  O   UNL     1     149.453 127.484 123.490  0.00  0.00    +0.000 OA
ATOM     15  H   UNL     1     148.811 128.060 123.021  0.00  0.00    +0.000 HD
ENDBRANCH  13  14
ENDBRANCH   4  13
TORSDOF 4
ENDMDL
MODEL 5
REMARK VINA RESULT:    -6.399     17.277     18.805
REMARK INTER + INTRA:          -7.621
REMARK INTER:                  -7.510
REMARK INTRA:                  -0.110
REMARK UNBOUND:                -0.100
REMARK  Name = 7431
REMARK  4 active torsions:
REMARK  status: ('A' for Active; 'I' for Inactive)
REMARK    1  A    between atoms: O_3  and  C_12
REMARK    2  A    between atoms: O_4  and  C_13
REMARK    3  A    between atoms: C_7  and  C_12
REMARK    4  A    between atoms: C_8  and  C_13
REMARK                            x       y       z     vdW  Elec       q    Type
REMARK                         _______ _______ _______ _____ _____    ______ ____
ROOT
ATOM      1  O   UNL     1     116.713 152.433 143.430  0.00  0.00    +0.000 OA
ATOM      2  O   UNL     1     120.240 150.601 142.664  0.00  0.00    +0.000 OA
ATOM      3  C   UNL     1     117.659 152.269 144.420  0.00  0.00    +0.000 A 
ATOM      4  C   UNL     1     117.006 151.954 142.170  0.00  0.00    +0.000 A 
ATOM      5  C   UNL     1     118.845 151.674 144.243  0.00  0.00    +0.000 A 
ATOM      6  C   UNL     1     118.149 151.339 141.842  0.00  0.00    +0.000 A 
ATOM      7  C   UNL     1     119.172 151.156 142.896  0.00  0.00    +0.000 A 
ENDROOT
BRANCH   3   9
ATOM      8  O   UNL     1     117.329 152.107 146.769  0.00  0.00    +0.000 OA
ATOM      9  C   UNL     1     117.337 152.780 145.752  0.00  0.00    +0.000 C 
BRANCH   9  10
ATOM     10  O   UNL     1     117.054 154.099 145.677  0.00  0.00    +0.000 OA
ATOM     11  H   UNL     1     116.092 154.265 145.586  0.00  0.00    +0.000 HD
ENDBRANCH   9  10
ENDBRANCH   3   9
BRANCH   4  13
ATOM     12  O   UNL     1     114.794 152.043 141.306  0.00  0.00    +0.000 OA
ATOM     13  C   UNL     1     115.997 152.134 141.128  0.00  0.00    +0.000 C 
BRANCH  13  14
ATOM     14  O   UNL     1     116.600 152.413 139.952  0.00  0.00    +0.000 OA
ATOM     15  H   UNL     1     117.453 152.882 140.077  0.00  0.00    +0.000 HD
ENDBRANCH  13  14
ENDBRANCH   4  13
TORSDOF 4
ENDMDL
MODEL 6
REMARK VINA RESULT:    -6.356     17.290     19.064
REMARK INTER + INTRA:          -7.570
REMARK INTER:                  -7.459
REMARK INTRA:                  -0.111
REMARK UNBOUND:                -0.100
REMARK  Name = 7431
REMARK  4 active torsions:
REMARK  status: ('A' for Active; 'I' for Inactive)
REMARK    1  A    between atoms: O_3  and  C_12
REMARK    2  A    between atoms: O_4  and  C_13
REMARK    3  A    between atoms: C_7  and  C_12
REMARK    4  A    between atoms: C_8  and  C_13
REMARK                            x       y       z     vdW  Elec       q    Type
REMARK                         _______ _______ _______ _____ _____    ______ ____
ROOT
ATOM      1  O   UNL     1     116.745 152.349 143.455  0.00  0.00    +0.000 OA
ATOM      2  O   UNL     1     120.332 150.641 142.683  0.00  0.00    +0.000 OA
ATOM      3  C   UNL     1     117.068 151.916 142.186  0.00  0.00    +0.000 A 
ATOM      4  C   UNL     1     117.682 152.182 144.453  0.00  0.00    +0.000 A 
ATOM      5  C   UNL     1     118.231 151.343 141.855  0.00  0.00    +0.000 A 
ATOM      6  C   UNL     1     118.887 151.627 144.274  0.00  0.00    +0.000 A 
ATOM      7  C   UNL     1     119.246 151.158 142.917  0.00  0.00    +0.000 A 
ENDROOT
BRANCH   3   9
ATOM      8  O   UNL     1     114.863 151.983 141.298  0.00  0.00    +0.000 OA
ATOM      9  C   UNL     1     116.066 152.098 141.135  0.00  0.00    +0.000 C 
BRANCH   9  10
ATOM     10  O   UNL     1     116.678 152.411 139.973  0.00  0.00    +0.000 OA
ATOM     11  H   UNL     1     116.311 153.226 139.570  0.00  0.00    +0.000 HD
ENDBRANCH   9  10
ENDBRANCH   3   9
BRANCH   4  13
ATOM     12  O   UNL     1     117.392 151.961 146.802  0.00  0.00    +0.000 OA
ATOM     13  C   UNL     1     117.329 152.645 145.795  0.00  0.00    +0.000 C 
BRANCH  13  14
ATOM     14  O   UNL     1     116.927 153.933 145.741  0.00  0.00    +0.000 OA
ATOM     15  H   UNL     1     117.408 154.497 146.382  0.00  0.00    +0.000 HD
ENDBRANCH  13  14
ENDBRANCH   4  13
TORSDOF 4
ENDMDL
MODEL 7
REMARK VINA RESULT:    -6.283     17.082     18.315
REMARK INTER + INTRA:          -7.485
REMARK INTER:                  -7.383
REMARK INTRA:                  -0.102
REMARK UNBOUND:                -0.100
REMARK  Name = 7431
REMARK  4 active torsions:
REMARK  status: ('A' for Active; 'I' for Inactive)
REMARK    1  A    between atoms: O_3  and  C_12
REMARK    2  A    between atoms: O_4  and  C_13
REMARK    3  A    between atoms: C_7  and  C_12
REMARK    4  A    between atoms: C_8  and  C_13
REMARK                            x       y       z     vdW  Elec       q    Type
REMARK                         _______ _______ _______ _____ _____    ______ ____
ROOT
ATOM      1  O   UNL     1     118.026 151.321 142.114  0.00  0.00    +0.000 OA
ATOM      2  O   UNL     1     117.543 153.786 145.288  0.00  0.00    +0.000 OA
ATOM      3  C   UNL     1     116.919 152.137 142.218  0.00  0.00    +0.000 A 
ATOM      4  C   UNL     1     118.964 151.371 143.125  0.00  0.00    +0.000 A 
ATOM      5  C   UNL     1     116.691 152.976 143.236  0.00  0.00    +0.000 A 
ATOM      6  C   UNL     1     118.872 152.159 144.203  0.00  0.00    +0.000 A 
ATOM      7  C   UNL     1     117.689 153.039 144.327  0.00  0.00    +0.000 A 
ENDROOT
BRANCH   3   9
ATOM      8  O   UNL     1     114.773 151.725 141.283  0.00  0.00    +0.000 OA
ATOM      9  C   UNL     1     115.932 152.076 141.141  0.00  0.00    +0.000 C 
BRANCH   9  10
ATOM     10  O   UNL     1     116.501 152.465 139.980  0.00  0.00    +0.000 OA
ATOM     11  H   UNL     1     116.427 153.433 139.839  0.00  0.00    +0.000 HD
ENDBRANCH   9  10
ENDBRANCH   3   9
BRANCH   4  13
ATOM     12  O   UNL     1     120.094 149.282 143.012  0.00  0.00    +0.000 OA
ATOM     13  C   UNL     1     120.133 150.501 143.004  0.00  0.00    +0.000 C 
BRANCH  13  14
ATOM     14  O   UNL     1     121.249 151.253 142.885  0.00  0.00    +0.000 OA
ATOM     15  H   UNL     1     121.230 151.817 142.083  0.00  0.00    +0.000 HD
ENDBRANCH  13  14
ENDBRANCH   4  13
TORSDOF 4
ENDMDL
MODEL 8
REMARK VINA RESULT:    -6.280     17.044     18.296
REMARK INTER + INTRA:          -7.482
REMARK INTER:                  -7.380
REMARK INTRA:                  -0.102
REMARK UNBOUND:                -0.100
REMARK  Name = 7431
REMARK  4 active torsions:
REMARK  status: ('A' for Active; 'I' for Inactive)
REMARK    1  A    between atoms: O_3  and  C_12
REMARK    2  A    between atoms: O_4  and  C_13
REMARK    3  A    between atoms: C_7  and  C_12
REMARK    4  A    between atoms: C_8  and  C_13
REMARK                            x       y       z     vdW  Elec       q    Type
REMARK                         _______ _______ _______ _____ _____    ______ ____
ROOT
ATOM      1  O   UNL     1     118.058 151.306 142.142  0.00  0.00    +0.000 OA
ATOM      2  O   UNL     1     117.498 153.782 145.296  0.00  0.00    +0.000 OA
ATOM      3  C   UNL     1     118.969 151.357 143.177  0.00  0.00    +0.000 A 
ATOM      4  C   UNL     1     116.950 152.125 142.215  0.00  0.00    +0.000 A 
ATOM      5  C   UNL     1     118.851 152.149 144.250  0.00  0.00    +0.000 A 
ATOM      6  C   UNL     1     116.698 152.968 143.224  0.00  0.00    +0.000 A 
ATOM      7  C   UNL     1     117.667 153.032 144.341  0.00  0.00    +0.000 A 
ENDROOT
BRANCH   3   9
ATOM      8  O   UNL     1     120.099 149.267 143.117  0.00  0.00    +0.000 OA
ATOM      9  C   UNL     1     120.139 150.485 143.089  0.00  0.00    +0.000 C 
BRANCH   9  10
ATOM     10  O   UNL     1     121.257 151.234 142.973  0.00  0.00    +0.000 OA
ATOM     11  H   UNL     1     121.489 151.409 142.036  0.00  0.00    +0.000 HD
ENDBRANCH   9  10
ENDBRANCH   3   9
BRANCH   4  13
ATOM     12  O   UNL     1     114.820 151.743 141.231  0.00  0.00    +0.000 OA
ATOM     13  C   UNL     1     115.991 152.063 141.113  0.00  0.00    +0.000 C 
BRANCH  13  14
ATOM     14  O   UNL     1     116.601 152.411 139.959  0.00  0.00    +0.000 OA
ATOM     15  H   UNL     1     115.993 152.875 139.346  0.00  0.00    +0.000 HD
ENDBRANCH  13  14
ENDBRANCH   4  13
TORSDOF 4
ENDMDL
MODEL 9
REMARK VINA RESULT:    -6.123     16.953     18.613
REMARK INTER + INTRA:          -7.296
REMARK INTER:                  -7.176
REMARK INTRA:                  -0.121
REMARK UNBOUND:                -0.100
REMARK  Name = 7431
REMARK  4 active torsions:
REMARK  status: ('A' for Active; 'I' for Inactive)
REMARK    1  A    between atoms: O_3  and  C_12
REMARK    2  A    between atoms: O_4  and  C_13
REMARK    3  A    between atoms: C_7  and  C_12
REMARK    4  A    between atoms: C_8  and  C_13
REMARK                            x       y       z     vdW  Elec       q    Type
REMARK                         _______ _______ _______ _____ _____    ______ ____
ROOT
ATOM      1  O   UNL     1     119.311 151.394 144.342  0.00  0.00    +0.000 OA
ATOM      2  O   UNL     1     117.976 151.715 140.534  0.00  0.00    +0.000 OA
ATOM      3  C   UNL     1     119.934 150.722 143.310  0.00  0.00    +0.000 A 
ATOM      4  C   UNL     1     118.219 152.179 144.035  0.00  0.00    +0.000 A 
ATOM      5  C   UNL     1     119.551 150.779 142.030  0.00  0.00    +0.000 A 
ATOM      6  C   UNL     1     117.721 152.333 142.803  0.00  0.00    +0.000 A 
ATOM      7  C   UNL     1     118.380 151.618 141.687  0.00  0.00    +0.000 A 
ENDROOT
BRANCH   3   9
ATOM      8  O   UNL     1     121.711 149.961 144.695  0.00  0.00    +0.000 OA
ATOM      9  C   UNL     1     121.091 149.893 143.647  0.00  0.00    +0.000 C 
BRANCH   9  10
ATOM     10  O   UNL     1     121.360 149.051 142.626  0.00  0.00    +0.000 OA
ATOM     11  H   UNL     1     120.547 148.642 142.261  0.00  0.00    +0.000 HD
ENDBRANCH   9  10
ENDBRANCH   3   9
BRANCH   4  13
ATOM     12  O   UNL     1     117.525 152.488 146.288  0.00  0.00    +0.000 OA
ATOM     13  C   UNL     1     117.566 152.886 145.136  0.00  0.00    +0.000 C 
BRANCH  13  14
ATOM     14  O   UNL     1     117.023 154.036 144.680  0.00  0.00    +0.000 OA
ATOM     15  H   UNL     1     116.288 154.348 145.249  0.00  0.00    +0.000 HD
ENDBRANCH  13  14
ENDBRANCH   4  13
TORSDOF 4
ENDMDL
MODEL 10
REMARK VINA RESULT:    -6.043     43.950     45.299
REMARK INTER + INTRA:          -7.203
REMARK INTER:                  -7.078
REMARK INTRA:                  -0.125
REMARK UNBOUND:                -0.100
REMARK  Name = 7431
REMARK  4 active torsions:
REMARK  status: ('A' for Active; 'I' for Inactive)
REMARK    1  A    between atoms: O_3  and  C_12
REMARK    2  A    between atoms: O_4  and  C_13
REMARK    3  A    between atoms: C_7  and  C_12
REMARK    4  A    between atoms: C_8  and  C_13
REMARK                            x       y       z     vdW  Elec       q    Type
REMARK                         _______ _______ _______ _____ _____    ______ ____
ROOT
ATOM      1  O   UNL     1     106.252 142.338 166.666  0.00  0.00    +0.000 OA
ATOM      2  O   UNL     1     108.813 143.328 163.691  0.00  0.00    +0.000 OA
ATOM      3  C   UNL     1     105.847 142.331 165.347  0.00  0.00    +0.000 A 
ATOM      4  C   UNL     1     107.557 142.692 166.939  0.00  0.00    +0.000 A 
ATOM      5  C   UNL     1     106.635 142.646 164.312  0.00  0.00    +0.000 A 
ATOM      6  C   UNL     1     108.459 143.031 166.010  0.00  0.00    +0.000 A 
ATOM      7  C   UNL     1     108.037 143.028 164.592  0.00  0.00    +0.000 A 
ENDROOT
BRANCH   3   9
ATOM      8  O   UNL     1     103.599 141.809 165.919  0.00  0.00    +0.000 OA
ATOM      9  C   UNL     1     104.462 141.954 165.069  0.00  0.00    +0.000 C 
BRANCH   9  10
ATOM     10  O   UNL     1     104.292 141.793 163.739  0.00  0.00    +0.000 OA
ATOM     11  H   UNL     1     103.481 142.238 163.414  0.00  0.00    +0.000 HD
ENDBRANCH   9  10
ENDBRANCH   3   9
BRANCH   4  13
ATOM     12  O   UNL     1     109.136 142.686 168.717  0.00  0.00    +0.000 OA
ATOM     13  C   UNL     1     107.976 142.696 168.340  0.00  0.00    +0.000 C 
BRANCH  13  14
ATOM     14  O   UNL     1     106.888 142.712 169.141  0.00  0.00    +0.000 OA
ATOM     15  H   UNL     1     107.101 143.020 170.047  0.00  0.00    +0.000 HD
ENDBRANCH  13  14
ENDBRANCH   4  13
TORSDOF 4
ENDMDL
