REMARK SMILES O=C(OC[C@H]1O[C@@H](OC(=O)c2cc(O)c(O)c(O)c2)[C@H](OC(=O)c2cc(O)c(O)c(O)c2)[C@@H](O)[C@@H]1O)c1cc(O)c(O)c(O)c1
REMARK SMILES IDX 6 1 33 2 35 3 20 4 5 5 7 6 4 7 3 8 2 9 1 10 37 11 45 12
REMARK SMILES IDX 38 13 43 14 39 15 41 16 44 17 40 19 42 21 8 23 9 24 10 25
REMARK SMILES IDX 11 26 19 27 12 28 17 29 13 30 15 31 18 32 14 34 16 36 36 38
REMARK SMILES IDX 21 40 22 41 23 42 24 43 32 44 25 45 30 46 26 47 28 48 31 49
REMARK SMILES IDX 27 51 29 53 34 55
REMARK H PARENT 44 18 40 20 42 22 18 33 14 35 16 37 36 39 31 50 27 52 29 54
REMARK H PARENT 34 56
REMARK Flexibility Score: inf
ROOT
ATOM      1  O   UNL     1      -0.851  -1.407   0.694  1.00  0.00    -0.330 OA
ATOM      2  C   UNL     1       1.304  -3.301   0.569  1.00  0.00     0.193 C 
ATOM      3  C   UNL     1      -0.101  -3.687   1.031  1.00  0.00     0.179 C 
ATOM      4  C   UNL     1       1.545  -1.800   0.725  1.00  0.00     0.277 C 
ATOM      5  C   UNL     1      -1.151  -2.771   0.398  1.00  0.00     0.192 C 
ATOM      6  C   UNL     1       0.392  -0.987   0.137  1.00  0.00     0.355 C 
ENDROOT
BRANCH   5   7
ATOM      7  C   UNL     1      -2.550  -3.061   0.934  1.00  0.00     0.268 C 
BRANCH   7   8
ATOM      8  O   UNL     1      -3.463  -2.174   0.314  1.00  0.00    -0.459 OA
BRANCH   8   9
ATOM      9  C   UNL     1      -4.770  -2.298   0.683  1.00  0.00     0.338 C 
ATOM     10  O   UNL     1      -5.211  -3.100   1.492  1.00  0.00    -0.246 OA
BRANCH   9  11
ATOM     11  C   UNL     1      -5.621  -1.316  -0.035  1.00  0.00     0.067 A 
ATOM     12  C   UNL     1      -5.090  -0.088  -0.428  1.00  0.00     0.066 A 
ATOM     13  C   UNL     1      -6.952  -1.623  -0.321  1.00  0.00     0.066 A 
ATOM     14  C   UNL     1      -5.888   0.834  -1.105  1.00  0.00     0.162 A 
ATOM     15  C   UNL     1      -7.750  -0.702  -0.998  1.00  0.00     0.162 A 
ATOM     16  C   UNL     1      -7.218   0.526  -1.390  1.00  0.00     0.200 A 
BRANCH  14  17
ATOM     17  O   UNL     1      -5.357   2.030  -1.484  1.00  0.00    -0.504 OA
ATOM     18  H   UNL     1      -4.426   2.068  -1.203  1.00  0.00     0.293 HD
ENDBRANCH  14  17
BRANCH  15  19
ATOM     19  O   UNL     1      -9.048  -1.014  -1.270  1.00  0.00    -0.504 OA
ATOM     20  H   UNL     1      -9.240  -1.903  -0.925  1.00  0.00     0.293 HD
ENDBRANCH  15  19
BRANCH  16  21
ATOM     21  O   UNL     1      -8.000   1.428  -2.051  1.00  0.00    -0.502 OA
ATOM     22  H   UNL     1      -7.464   2.217  -2.241  1.00  0.00     0.293 HD
ENDBRANCH  16  21
ENDBRANCH   9  11
ENDBRANCH   8   9
ENDBRANCH   7   8
ENDBRANCH   5   7
BRANCH   6  23
ATOM     23  O   UNL     1       0.620   0.388   0.446  1.00  0.00    -0.428 OA
BRANCH  23  24
ATOM     24  C   UNL     1      -0.317   1.261  -0.009  1.00  0.00     0.340 C 
ATOM     25  O   UNL     1      -1.317   0.976  -0.649  1.00  0.00    -0.246 OA
BRANCH  24  26
ATOM     26  C   UNL     1       0.035   2.651   0.376  1.00  0.00     0.067 A 
ATOM     27  C   UNL     1       1.374   3.018   0.517  1.00  0.00     0.066 A 
ATOM     28  C   UNL     1      -0.972   3.591   0.594  1.00  0.00     0.066 A 
ATOM     29  C   UNL     1       1.704   4.325   0.876  1.00  0.00     0.162 A 
ATOM     30  C   UNL     1      -0.641   4.897   0.953  1.00  0.00     0.162 A 
ATOM     31  C   UNL     1       0.697   5.264   1.094  1.00  0.00     0.200 A 
BRANCH  29  32
ATOM     32  O   UNL     1       3.015   4.671   1.010  1.00  0.00    -0.504 OA
ATOM     33  H   UNL     1       3.570   3.894   0.822  1.00  0.00     0.293 HD
ENDBRANCH  29  32
BRANCH  30  34
ATOM     34  O   UNL     1      -1.635   5.805   1.163  1.00  0.00    -0.504 OA
ATOM     35  H   UNL     1      -2.495   5.374   1.019  1.00  0.00     0.293 HD
ENDBRANCH  30  34
BRANCH  31  36
ATOM     36  O   UNL     1       1.020   6.541   1.447  1.00  0.00    -0.502 OA
ATOM     37  H   UNL     1       1.989   6.610   1.497  1.00  0.00     0.293 HD
ENDBRANCH  31  36
ENDBRANCH  24  26
ENDBRANCH  23  24
ENDBRANCH   6  23
BRANCH   3  38
ATOM     38  O   UNL     1      -0.366  -5.037   0.658  1.00  0.00    -0.387 OA
ATOM     39  H   UNL     1      -0.332  -5.092  -0.312  1.00  0.00     0.211 HD
ENDBRANCH   3  38
BRANCH   4  40
ATOM     40  O   UNL     1       2.743  -1.438   0.039  1.00  0.00    -0.449 OA
BRANCH  40  41
ATOM     41  C   UNL     1       3.888  -1.502   0.770  1.00  0.00     0.339 C 
ATOM     42  O   UNL     1       3.977  -1.837   1.941  1.00  0.00    -0.246 OA
BRANCH  41  43
ATOM     43  C   UNL     1       5.056  -1.103  -0.055  1.00  0.00     0.067 A 
ATOM     44  C   UNL     1       4.897  -0.181  -1.089  1.00  0.00     0.066 A 
ATOM     45  C   UNL     1       6.313  -1.647   0.207  1.00  0.00     0.066 A 
ATOM     46  C   UNL     1       5.995   0.197  -1.862  1.00  0.00     0.162 A 
ATOM     47  C   UNL     1       7.411  -1.270  -0.566  1.00  0.00     0.162 A 
ATOM     48  C   UNL     1       7.252  -0.348  -1.600  1.00  0.00     0.200 A 
BRANCH  46  49
ATOM     49  O   UNL     1       5.827   1.098  -2.870  1.00  0.00    -0.504 OA
ATOM     50  H   UNL     1       4.892   1.366  -2.904  1.00  0.00     0.293 HD
ENDBRANCH  46  49
BRANCH  47  51
ATOM     51  O   UNL     1       8.634  -1.809  -0.299  1.00  0.00    -0.504 OA
ATOM     52  H   UNL     1       8.553  -2.425   0.449  1.00  0.00     0.293 HD
ENDBRANCH  47  51
BRANCH  48  53
ATOM     53  O   UNL     1       8.326   0.019  -2.357  1.00  0.00    -0.502 OA
ATOM     54  H   UNL     1       8.026   0.663  -3.023  1.00  0.00     0.293 HD
ENDBRANCH  48  53
ENDBRANCH  41  43
ENDBRANCH  40  41
ENDBRANCH   4  40
BRANCH   2  55
ATOM     55  O   UNL     1       2.245  -4.019   1.369  1.00  0.00    -0.386 OA
ATOM     56  H   UNL     1       2.133  -3.739   2.293  1.00  0.00     0.211 HD
ENDBRANCH   2  55
TORSDOF 21
