REMARK SMILES O=C(O[C@@H]1O[C@@H]2COC(=O)c3cc(O)c(O)c(O)c3-c3c(cc(O)c(O)c3O)C(=O)[OH+][C@H]2[C@@H](O)[C@H]1O)c1cc(O)c(O)c(O)c1
REMARK SMILES IDX 31 1 32 3 5 4 6 5 4 6 35 8 33 9 3 10 2 11 1 12 37 13 45 14
REMARK SMILES IDX 38 15 43 16 39 17 41 18 44 19 40 21 42 23 36 25 34 27 29 29
REMARK SMILES IDX 30 30 21 31 22 32 20 33 23 34 27 35 25 36 19 37 11 38 17 39
REMARK SMILES IDX 12 40 15 41 13 42 9 43 10 44 8 45 7 46 18 48 16 50 14 52
REMARK SMILES IDX 24 54 28 56 26 58
REMARK H PARENT 31 2 44 20 40 22 42 24 36 26 34 28 18 49 16 51 14 53 24 55
REMARK H PARENT 28 57 26 59
REMARK Flexibility Score: 70.00
ROOT
ATOM      1  O   UNL     1      16.599 -13.653  -2.933  1.00  0.00    -0.545 OA
ATOM      2  H   UNL     1      16.103 -13.002  -3.437  1.00  0.00     0.400 HD
ENDROOT
BRANCH   1   3
ATOM      3  C   UNL     1      17.970 -13.517  -3.307  1.00  0.00     0.294 C 
ATOM      4  O   UNL     1      19.850 -12.056  -3.255  1.00  0.00    -0.327 OA
ATOM      5  C   UNL     1      18.435 -12.075  -3.186  1.00  0.00     0.226 C
ATOM      6  C   UNL     1      20.267 -12.386  -4.575  1.00  0.00     0.343 C 
ATOM      7  G   UNL     1      17.959 -11.477  -1.877  1.00  0.00     0.000 C
ATOM      8  C   UNL     1      19.812 -13.812  -4.947  1.00  0.00     0.218 C 
ATOM      9  C   UNL     1      18.291 -13.949  -4.737  1.00  0.00     0.215 C 
BRANCH   6  10
ATOM     10  O   UNL     1      21.678 -12.284  -4.657  1.00  0.00    -0.429 OA
BRANCH  10  11
ATOM     11  C   UNL     1      22.330 -11.425  -3.828  1.00  0.00     0.340 C 
ATOM     12  O   UNL     1      21.937 -11.256  -2.695  1.00  0.00    -0.246 OA
BRANCH  11  13
ATOM     13  C   UNL     1      23.506 -10.697  -4.323  1.00  0.00     0.067 A 
ATOM     14  C   UNL     1      24.390 -11.332  -5.180  1.00  0.00     0.066 A 
ATOM     15  C   UNL     1      23.727  -9.380  -3.951  1.00  0.00     0.066 A 
ATOM     16  C   UNL     1      25.494 -10.653  -5.668  1.00  0.00     0.162 A 
ATOM     17  C   UNL     1      24.834  -8.701  -4.438  1.00  0.00     0.162 A 
ATOM     18  C   UNL     1      25.717  -9.336  -5.298  1.00  0.00     0.200 A 
BRANCH  16  19
ATOM     19  O   UNL     1      26.358 -11.280  -6.512  1.00  0.00    -0.504 OA
ATOM     20  H   UNL     1      27.282 -11.021  -6.532  1.00  0.00     0.293 HD
ENDBRANCH  16  19
BRANCH  17  21
ATOM     21  O   UNL     1      25.054  -7.409  -4.075  1.00  0.00    -0.504 OA
ATOM     22  H   UNL     1      24.803  -7.110  -3.199  1.00  0.00     0.293 HD
ENDBRANCH  17  21
BRANCH  18  23
ATOM     23  O   UNL     1      26.800  -8.667  -5.778  1.00  0.00    -0.502 OA
ATOM     24  H   UNL     1      27.204  -7.968  -5.259  1.00  0.00     0.293 HD
ENDBRANCH  18  23
ENDBRANCH  11  13
ENDBRANCH  10  11
ENDBRANCH   6  10
BRANCH   8  25
ATOM     25  O   UNL     1      20.147 -14.075  -6.301  1.00  0.00    -0.384 OA
ATOM     26  H   UNL     1      20.766 -14.842  -6.529  1.00  0.00     0.211 HD
ENDBRANCH   8  25
BRANCH   9  27
ATOM     27  O   UNL     1      17.601 -13.123  -5.661  1.00  0.00    -0.383 OA
ATOM     28  H   UNL     1      16.940 -13.531  -6.309  1.00  0.00     0.211 HD
ENDBRANCH   9  27
ENDBRANCH   1   3
BRANCH   1  29
ATOM     29  C   UNL     1      16.398 -13.834  -1.595  1.00  0.00     0.551 C 
ATOM     30  O   UNL     1      17.375 -13.966  -0.894  1.00  0.00     0.048 OA
BRANCH  29  31
ATOM     31  C   UNL     1      15.062 -13.913  -0.963  1.00  0.00     0.139 A 
ATOM     32  C   UNL     1      14.387 -15.120  -1.089  1.00  0.00     0.073 A 
ATOM     33  C   UNL     1      14.471 -12.870  -0.233  1.00  0.00     0.053 A 
ATOM     34  C   UNL     1      13.147 -15.312  -0.508  1.00  0.00     0.162 A 
ATOM     35  C   UNL     1      13.225 -13.088   0.345  1.00  0.00     0.170 A 
ATOM     36  C   UNL     1      12.564 -14.292   0.212  1.00  0.00     0.200 A 
BRANCH  33  37
ATOM     37  C   UNL     1      15.032 -11.490   0.015  1.00  0.00     0.047 A 
ATOM     38  C   UNL     1      16.359 -11.181   0.312  1.00  0.00     0.075 A 
ATOM     39  C   UNL     1      14.108 -10.454  -0.028  1.00  0.00     0.170 A 
ATOM     40  C   UNL     1      16.725  -9.864   0.571  1.00  0.00     0.066 A 
ATOM     41  C   UNL     1      14.474  -9.148   0.229  1.00  0.00     0.200 A 
ATOM     42  C   UNL     1      15.787  -8.848   0.534  1.00  0.00     0.162 A 
BRANCH  38  43
ATOM     43  C   UNL     1      17.421 -12.192   0.344  1.00  0.00     0.339 C 
ATOM     44  O   UNL     1      17.564 -12.912   1.306  1.00  0.00    -0.246 OA
BRANCH  43  45
ATOM     45  O   UNL     1      18.238 -12.302  -0.745  1.00  0.00    -0.459 OA
BRANCH  45  46
ATOM     46  C   UNL     1      17.959 -11.477  -1.877  1.00  0.00     0.272 C
ATOM     47  G   UNL     1      18.435 -12.075  -3.186  1.00  0.00     0.000 C
ENDBRANCH  45  46
ENDBRANCH  43  45
ENDBRANCH  38  43
BRANCH  39  48
ATOM     48  O   UNL     1      12.811 -10.739  -0.310  1.00  0.00    -0.504 OA
ATOM     49  H   UNL     1      12.115 -10.379   0.244  1.00  0.00     0.293 HD
ENDBRANCH  39  48
BRANCH  41  50
ATOM     50  O   UNL     1      13.535  -8.164   0.189  1.00  0.00    -0.502 OA
ATOM     51  H   UNL     1      12.989  -7.995   0.959  1.00  0.00     0.293 HD
ENDBRANCH  41  50
BRANCH  42  52
ATOM     52  O   UNL     1      16.157  -7.565   0.793  1.00  0.00    -0.504 OA
ATOM     53  H   UNL     1      17.071  -7.300   0.669  1.00  0.00     0.293 HD
ENDBRANCH  42  52
ENDBRANCH  33  37
BRANCH  34  54
ATOM     54  O   UNL     1      12.507 -16.502  -0.643  1.00  0.00    -0.504 OA
ATOM     55  H   UNL     1      12.730 -17.072  -1.380  1.00  0.00     0.293 HD
ENDBRANCH  34  54
BRANCH  35  56
ATOM     56  O   UNL     1      12.638 -12.091   1.058  1.00  0.00    -0.504 OA
ATOM     57  H   UNL     1      12.393 -12.229   1.977  1.00  0.00     0.293 HD
ENDBRANCH  35  56
BRANCH  36  58
ATOM     58  O   UNL     1      11.347 -14.468   0.793  1.00  0.00    -0.502 OA
ATOM     59  H   UNL     1      10.830 -15.250   0.590  1.00  0.00     0.293 HD
ENDBRANCH  36  58
ENDBRANCH  29  31
ENDBRANCH   1  29
TORSDOF 14
