REMARK SMILES O=C(O[C@@H]1[C@@H](OC(=O)c2cc(O)c(O)c(O)c2)[C@H](O)[C@@H](CO)O[C@H]1O)c1cc(O)c(O)c(O)c1
REMARK SMILES IDX 23 1 5 2 18 3 4 4 20 5 24 6 21 7 22 8 25 10 19 12 3 14 2 15
REMARK SMILES IDX 1 16 26 17 34 18 27 19 32 20 28 21 30 22 33 23 29 25 31 27
REMARK SMILES IDX 6 29 7 30 8 31 9 32 17 33 10 34 15 35 11 36 13 37 16 38
REMARK SMILES IDX 12 40 14 42
REMARK H PARENT 22 9 25 11 19 13 33 24 29 26 31 28 16 39 12 41 14 43
REMARK Flexibility Score: inf
ROOT
ATOM      1  O   UNL     1      29.009  -9.378  -2.847  1.00  0.00    -0.340 OA
ATOM      2  C   UNL     1      27.313 -10.441  -0.978  1.00  0.00     0.254 C 
ATOM      3  C   UNL     1      27.945 -11.252  -2.011  1.00  0.00     0.190 C 
ATOM      4  C   UNL     1      27.261  -9.037  -1.367  1.00  0.00     0.276 C 
ATOM      5  C   UNL     1      29.211 -10.659  -2.432  1.00  0.00     0.179 C 
ATOM      6  C   UNL     1      28.555  -8.572  -1.851  1.00  0.00     0.293 C 
ENDROOT
BRANCH   5   7
ATOM      7  C   UNL     1      29.805 -11.390  -3.540  1.00  0.00     0.191 C 
BRANCH   7   8
ATOM      8  O   UNL     1      30.962 -10.785  -3.883  1.00  0.00    -0.394 OA
ATOM      9  H   UNL     1      31.322 -11.263  -4.592  1.00  0.00     0.210 HD
ENDBRANCH   7   8
ENDBRANCH   5   7
BRANCH   6  10
ATOM     10  O   UNL     1      28.396  -7.305  -2.320  1.00  0.00    -0.365 OA
ATOM     11  H   UNL     1      28.462  -6.591  -2.773  1.00  0.00     0.214 HD
ENDBRANCH   6  10
BRANCH   3  12
ATOM     12  O   UNL     1      28.173 -12.500  -1.526  1.00  0.00    -0.386 OA
ATOM     13  H   UNL     1      28.759 -12.428  -0.810  1.00  0.00     0.211 HD
ENDBRANCH   3  12
BRANCH   4  14
ATOM     14  O   UNL     1      26.912  -8.282  -0.290  1.00  0.00    -0.449 OA
BRANCH  14  15
ATOM     15  C   UNL     1      25.820  -7.595  -0.412  1.00  0.00     0.339 C 
ATOM     16  O   UNL     1      25.125  -7.568  -1.346  1.00  0.00    -0.246 OA
BRANCH  15  17
ATOM     17  C   UNL     1      25.565  -6.853   0.767  1.00  0.00     0.067 A 
ATOM     18  C   UNL     1      26.578  -6.431   1.519  1.00  0.00     0.066 A 
ATOM     19  C   UNL     1      24.313  -6.577   1.121  1.00  0.00     0.066 A 
ATOM     20  C   UNL     1      26.338  -5.733   2.625  1.00  0.00     0.162 A 
ATOM     21  C   UNL     1      24.074  -5.879   2.228  1.00  0.00     0.162 A 
ATOM     22  C   UNL     1      25.087  -5.457   2.979  1.00  0.00     0.200 A 
BRANCH  20  23
ATOM     23  O   UNL     1      27.336  -5.326   3.352  1.00  0.00    -0.504 OA
ATOM     24  H   UNL     1      28.129  -5.605   2.961  1.00  0.00     0.293 HD
ENDBRANCH  20  23
BRANCH  21  25
ATOM     25  O   UNL     1      22.847  -5.615   2.562  1.00  0.00    -0.504 OA
ATOM     26  H   UNL     1      22.275  -5.983   1.932  1.00  0.00     0.293 HD
ENDBRANCH  21  25
BRANCH  22  27
ATOM     27  O   UNL     1      24.852  -4.775   4.062  1.00  0.00    -0.502 OA
ATOM     28  H   UNL     1      25.665  -4.566   4.458  1.00  0.00     0.293 HD
ENDBRANCH  22  27
ENDBRANCH  15  17
ENDBRANCH  14  15
ENDBRANCH   4  14
BRANCH   2  29
ATOM     29  O   UNL     1      26.047 -10.907  -0.792  1.00  0.00    -0.452 OA
BRANCH  29  30
ATOM     30  C   UNL     1      25.573 -10.791   0.408  1.00  0.00     0.338 C 
ATOM     31  O   UNL     1      26.126 -10.331   1.324  1.00  0.00    -0.246 OA
BRANCH  30  32
ATOM     32  C   UNL     1      24.258 -11.309   0.475  1.00  0.00     0.067 A 
ATOM     33  C   UNL     1      23.894 -12.305  -0.328  1.00  0.00     0.066 A 
ATOM     34  C   UNL     1      23.387 -10.803   1.342  1.00  0.00     0.066 A 
ATOM     35  C   UNL     1      22.659 -12.794  -0.264  1.00  0.00     0.162 A 
ATOM     36  C   UNL     1      22.151 -11.291   1.407  1.00  0.00     0.162 A 
ATOM     37  C   UNL     1      21.788 -12.287   0.604  1.00  0.00     0.200 A 
BRANCH  35  38
ATOM     38  O   UNL     1      22.316 -13.768  -1.053  1.00  0.00    -0.504 OA
ATOM     39  H   UNL     1      23.039 -13.994  -1.587  1.00  0.00     0.293 HD
ENDBRANCH  35  38
BRANCH  36  40
ATOM     40  O   UNL     1      21.310 -10.788   2.258  1.00  0.00    -0.504 OA
ATOM     41  H   UNL     1      21.727 -10.108   2.731  1.00  0.00     0.293 HD
ENDBRANCH  36  40
BRANCH  37  42
ATOM     42  O   UNL     1      20.579 -12.764   0.666  1.00  0.00    -0.502 OA
ATOM     43  H   UNL     1      20.502 -13.446   0.041  1.00  0.00     0.293 HD
ENDBRANCH  37  42
ENDBRANCH  30  32
ENDBRANCH  29  30
ENDBRANCH   2  29
TORSDOF 16
