MODEL 1
REMARK VINA RESULT:      -7.0      0.000      0.000
REMARK  Name = 2520
REMARK  21 active torsions:
REMARK  status: ('A' for Active; 'I' for Inactive)
REMARK    1  A    between atoms: O_1  and  C_19
REMARK    2  A    between atoms: O_1  and  C_28
REMARK    3  A    between atoms: O_2  and  C_23
REMARK    4  A    between atoms: O_2  and  C_31
REMARK    5  A    between atoms: O_3  and  C_27
REMARK    6  A    between atoms: O_3  and  C_32
REMARK    7  A    between atoms: O_4  and  C_30
REMARK    8  A    between atoms: O_4  and  C_33
REMARK    9  A    between atoms: N_5  and  C_12
REMARK   10  A    between atoms: N_5  and  C_18
REMARK   11  A    between atoms: N_5  and  C_20
REMARK   12  A    between atoms: C_7  and  C_8
REMARK   13  A    between atoms: C_7  and  C_9
REMARK   14  A    between atoms: C_7  and  C_11
REMARK   15  A    between atoms: C_7  and  C_15
REMARK   16  A    between atoms: C_8  and  C_13
REMARK   17  A    between atoms: C_8  and  C_14
REMARK   18  A    between atoms: C_9  and  C_10
REMARK   19  A    between atoms: C_10  and  C_12
REMARK   20  A    between atoms: C_18  and  C_22
REMARK   21  A    between atoms: C_22  and  C_24
REMARK                            x       y       z     vdW  Elec       q    Type
REMARK                         _______ _______ _______ _____ _____    ______ ____
ROOT
ATOM      9  C   UNL     1     190.803 161.302 213.439  0.00  0.00    +0.000 C 
ENDROOT
BRANCH   9   7
ATOM      7  C   UNL     1     191.925 161.554 214.510  0.00  0.00    +0.000 C 
BRANCH   7  11
ATOM     11  C   UNL     1     193.313 161.501 213.829  0.00  0.00    +0.000 A 
ATOM     16  C   UNL     1     193.648 160.421 213.011  0.00  0.00    +0.000 A 
ATOM     17  C   UNL     1     194.229 162.533 214.032  0.00  0.00    +0.000 A 
ATOM     19  C   UNL     1     194.899 160.374 212.397  0.00  0.00    +0.000 A 
ATOM     21  C   UNL     1     195.480 162.486 213.417  0.00  0.00    +0.000 A 
ATOM     23  C   UNL     1     195.816 161.406 212.600  0.00  0.00    +0.000 A 
BRANCH  19   1
ATOM      1  O   UNL     1     195.214 159.315 211.600  0.00  0.00    +0.000 OA
ATOM     28  C   UNL     1     194.309 158.214 211.599  0.00  0.00    +0.000 C 
ENDBRANCH  19   1
BRANCH  23   2
ATOM      2  O   UNL     1     197.041 161.372 212.005  0.00  0.00    +0.000 OA
ATOM     31  C   UNL     1     197.983 162.365 212.402  0.00  0.00    +0.000 C 
ENDBRANCH  23   2
ENDBRANCH   7  11
BRANCH   7   8
ATOM      8  C   UNL     1     191.859 160.435 215.635  0.00  0.00    +0.000 C 
ATOM     13  C   UNL     1     190.549 159.630 215.651  0.00  0.00    +0.000 C 
ATOM     14  C   UNL     1     192.108 160.986 217.053  0.00  0.00    +0.000 C 
ENDBRANCH   7   8
BRANCH   7  15
ATOM      6  N   UNL     1     191.417 163.908 215.621  0.00  0.00    +0.000 NA
ATOM     15  C   UNL     1     191.633 162.874 215.141  0.00  0.00    +0.000 C 
ENDBRANCH   7  15
ENDBRANCH   9   7
BRANCH   9  10
ATOM     10  C   UNL     1     190.473 162.511 212.538  0.00  0.00    +0.000 C 
BRANCH  10  12
ATOM     12  C   UNL     1     189.211 162.296 211.697  0.00  0.00    +0.000 C 
BRANCH  12   5
ATOM      5  N   UNL     1     189.368 162.799 210.339  0.00  0.00    +0.000 NA
ATOM     20  C   UNL     1     189.937 164.148 210.350  0.00  0.00    +0.000 C 
BRANCH   5  18
ATOM     18  C   UNL     1     190.213 161.900 209.550  0.00  0.00    +0.000 C 
BRANCH  18  22
ATOM     22  C   UNL     1     189.884 160.438 209.846  0.00  0.00    +0.000 C 
BRANCH  22  24
ATOM     24  C   UNL     1     190.398 159.523 208.762  0.00  0.00    +0.000 A 
ATOM     25  C   UNL     1     189.953 159.679 207.450  0.00  0.00    +0.000 A 
ATOM     26  C   UNL     1     191.319 158.522 209.073  0.00  0.00    +0.000 A 
ATOM     27  C   UNL     1     190.430 158.834 206.446  0.00  0.00    +0.000 A 
ATOM     29  C   UNL     1     191.794 157.677 208.070  0.00  0.00    +0.000 A 
ATOM     30  C   UNL     1     191.350 157.833 206.758  0.00  0.00    +0.000 A 
BRANCH  27   3
ATOM      3  O   UNL     1     189.988 158.996 205.168  0.00  0.00    +0.000 OA
ATOM     32  C   UNL     1     188.713 158.442 204.848  0.00  0.00    +0.000 C 
ENDBRANCH  27   3
BRANCH  30   4
ATOM      4  O   UNL     1     191.823 157.002 205.787  0.00  0.00    +0.000 OA
ATOM     33  C   UNL     1     193.200 156.641 205.858  0.00  0.00    +0.000 C 
ENDBRANCH  30   4
ENDBRANCH  22  24
ENDBRANCH  18  22
ENDBRANCH   5  18
ENDBRANCH  12   5
ENDBRANCH  10  12
ENDBRANCH   9  10
TORSDOF 14
ENDMDL
MODEL 2
REMARK VINA RESULT:      -7.0      1.325      2.163
REMARK  Name = 2520
REMARK  21 active torsions:
REMARK  status: ('A' for Active; 'I' for Inactive)
REMARK    1  A    between atoms: O_1  and  C_19
REMARK    2  A    between atoms: O_1  and  C_28
REMARK    3  A    between atoms: O_2  and  C_23
REMARK    4  A    between atoms: O_2  and  C_31
REMARK    5  A    between atoms: O_3  and  C_27
REMARK    6  A    between atoms: O_3  and  C_32
REMARK    7  A    between atoms: O_4  and  C_30
REMARK    8  A    between atoms: O_4  and  C_33
REMARK    9  A    between atoms: N_5  and  C_12
REMARK   10  A    between atoms: N_5  and  C_18
REMARK   11  A    between atoms: N_5  and  C_20
REMARK   12  A    between atoms: C_7  and  C_8
REMARK   13  A    between atoms: C_7  and  C_9
REMARK   14  A    between atoms: C_7  and  C_11
REMARK   15  A    between atoms: C_7  and  C_15
REMARK   16  A    between atoms: C_8  and  C_13
REMARK   17  A    between atoms: C_8  and  C_14
REMARK   18  A    between atoms: C_9  and  C_10
REMARK   19  A    between atoms: C_10  and  C_12
REMARK   20  A    between atoms: C_18  and  C_22
REMARK   21  A    between atoms: C_22  and  C_24
REMARK                            x       y       z     vdW  Elec       q    Type
REMARK                         _______ _______ _______ _____ _____    ______ ____
ROOT
ATOM      9  C   UNL     1     190.787 161.771 212.899  0.00  0.00    +0.000 C 
ENDROOT
BRANCH   9   7
ATOM      7  C   UNL     1     191.811 161.679 214.088  0.00  0.00    +0.000 C 
BRANCH   7  11
ATOM     11  C   UNL     1     193.250 161.600 213.526  0.00  0.00    +0.000 A 
ATOM     16  C   UNL     1     193.651 160.485 212.789  0.00  0.00    +0.000 A 
ATOM     17  C   UNL     1     194.147 162.643 213.756  0.00  0.00    +0.000 A 
ATOM     19  C   UNL     1     194.948 160.414 212.282  0.00  0.00    +0.000 A 
ATOM     21  C   UNL     1     195.444 162.572 213.249  0.00  0.00    +0.000 A 
ATOM     23  C   UNL     1     195.846 161.457 212.512  0.00  0.00    +0.000 A 
BRANCH  19   1
ATOM      1  O   UNL     1     195.328 159.320 211.564  0.00  0.00    +0.000 OA
ATOM     28  C   UNL     1     194.402 158.238 211.493  0.00  0.00    +0.000 C 
ENDBRANCH  19   1
BRANCH  23   2
ATOM      2  O   UNL     1     197.116 161.400 212.022  0.00  0.00    +0.000 OA
ATOM     31  C   UNL     1     197.874 162.606 212.046  0.00  0.00    +0.000 C 
ENDBRANCH  23   2
ENDBRANCH   7  11
BRANCH   7   8
ATOM      8  C   UNL     1     191.522 160.378 214.951  0.00  0.00    +0.000 C 
ATOM     13  C   UNL     1     190.116 159.786 214.751  0.00  0.00    +0.000 C 
ATOM     14  C   UNL     1     191.750 160.589 216.461  0.00  0.00    +0.000 C 
ENDBRANCH   7   8
BRANCH   7  15
ATOM      6  N   UNL     1     191.420 163.801 215.629  0.00  0.00    +0.000 NA
ATOM     15  C   UNL     1     191.584 162.876 214.949  0.00  0.00    +0.000 C 
ENDBRANCH   7  15
ENDBRANCH   9   7
BRANCH   9  10
ATOM     10  C   UNL     1     190.894 163.049 212.040  0.00  0.00    +0.000 C 
BRANCH  10  12
ATOM     12  C   UNL     1     190.746 162.768 210.541  0.00  0.00    +0.000 C 
BRANCH  12   5
ATOM      5  N   UNL     1     189.605 161.906 210.257  0.00  0.00    +0.000 NA
ATOM     20  C   UNL     1     188.497 162.684 209.699  0.00  0.00    +0.000 C 
BRANCH   5  18
ATOM     18  C   UNL     1     189.985 160.833 209.336  0.00  0.00    +0.000 C 
BRANCH  18  22
ATOM     22  C   UNL     1     190.234 159.527 210.090  0.00  0.00    +0.000 C 
BRANCH  22  24
ATOM     24  C   UNL     1     190.851 158.480 209.196  0.00  0.00    +0.000 A 
ATOM     25  C   UNL     1     191.307 157.280 209.740  0.00  0.00    +0.000 A 
ATOM     26  C   UNL     1     190.963 158.712 207.825  0.00  0.00    +0.000 A 
ATOM     27  C   UNL     1     191.876 156.311 208.913  0.00  0.00    +0.000 A 
ATOM     29  C   UNL     1     191.533 157.744 206.999  0.00  0.00    +0.000 A 
ATOM     30  C   UNL     1     191.989 156.544 207.542  0.00  0.00    +0.000 A 
BRANCH  27   3
ATOM      3  O   UNL     1     192.318 155.142 209.455  0.00  0.00    +0.000 OA
ATOM     32  C   UNL     1     192.373 155.068 210.879  0.00  0.00    +0.000 C 
ENDBRANCH  27   3
BRANCH  30   4
ATOM      4  O   UNL     1     192.543 155.605 206.724  0.00  0.00    +0.000 OA
ATOM     33  C   UNL     1     192.786 155.988 205.372  0.00  0.00    +0.000 C 
ENDBRANCH  30   4
ENDBRANCH  22  24
ENDBRANCH  18  22
ENDBRANCH   5  18
ENDBRANCH  12   5
ENDBRANCH  10  12
ENDBRANCH   9  10
TORSDOF 14
ENDMDL
MODEL 3
REMARK VINA RESULT:      -6.9     55.977     60.115
REMARK  Name = 2520
REMARK  21 active torsions:
REMARK  status: ('A' for Active; 'I' for Inactive)
REMARK    1  A    between atoms: O_1  and  C_19
REMARK    2  A    between atoms: O_1  and  C_28
REMARK    3  A    between atoms: O_2  and  C_23
REMARK    4  A    between atoms: O_2  and  C_31
REMARK    5  A    between atoms: O_3  and  C_27
REMARK    6  A    between atoms: O_3  and  C_32
REMARK    7  A    between atoms: O_4  and  C_30
REMARK    8  A    between atoms: O_4  and  C_33
REMARK    9  A    between atoms: N_5  and  C_12
REMARK   10  A    between atoms: N_5  and  C_18
REMARK   11  A    between atoms: N_5  and  C_20
REMARK   12  A    between atoms: C_7  and  C_8
REMARK   13  A    between atoms: C_7  and  C_9
REMARK   14  A    between atoms: C_7  and  C_11
REMARK   15  A    between atoms: C_7  and  C_15
REMARK   16  A    between atoms: C_8  and  C_13
REMARK   17  A    between atoms: C_8  and  C_14
REMARK   18  A    between atoms: C_9  and  C_10
REMARK   19  A    between atoms: C_10  and  C_12
REMARK   20  A    between atoms: C_18  and  C_22
REMARK   21  A    between atoms: C_22  and  C_24
REMARK                            x       y       z     vdW  Elec       q    Type
REMARK                         _______ _______ _______ _____ _____    ______ ____
ROOT
ATOM      9  C   UNL     1     163.284 196.040 173.761  0.00  0.00    +0.000 C 
ENDROOT
BRANCH   9   7
ATOM      7  C   UNL     1     162.552 194.657 173.904  0.00  0.00    +0.000 C 
BRANCH   7  11
ATOM     11  C   UNL     1     163.420 193.545 173.269  0.00  0.00    +0.000 A 
ATOM     16  C   UNL     1     164.637 193.191 173.853  0.00  0.00    +0.000 A 
ATOM     17  C   UNL     1     162.986 192.896 172.113  0.00  0.00    +0.000 A 
ATOM     19  C   UNL     1     165.419 192.188 173.280  0.00  0.00    +0.000 A 
ATOM     21  C   UNL     1     163.768 191.893 171.541  0.00  0.00    +0.000 A 
ATOM     23  C   UNL     1     164.985 191.539 172.124  0.00  0.00    +0.000 A 
BRANCH  19   1
ATOM      1  O   UNL     1     166.605 191.852 173.860  0.00  0.00    +0.000 OA
ATOM     28  C   UNL     1     167.582 192.883 173.982  0.00  0.00    +0.000 C 
ENDBRANCH  19   1
BRANCH  23   2
ATOM      2  O   UNL     1     165.740 190.557 171.556  0.00  0.00    +0.000 OA
ATOM     31  C   UNL     1     165.496 189.221 171.988  0.00  0.00    +0.000 C 
ENDBRANCH  23   2
ENDBRANCH   7  11
BRANCH   7   8
ATOM      8  C   UNL     1     161.150 194.707 173.160  0.00  0.00    +0.000 C 
ATOM     13  C   UNL     1     160.409 196.048 173.297  0.00  0.00    +0.000 C 
ATOM     14  C   UNL     1     160.194 193.577 173.589  0.00  0.00    +0.000 C 
ENDBRANCH   7   8
BRANCH   7  15
ATOM      6  N   UNL     1     162.125 194.271 176.493  0.00  0.00    +0.000 NA
ATOM     15  C   UNL     1     162.305 194.446 175.360  0.00  0.00    +0.000 C 
ENDBRANCH   7  15
ENDBRANCH   9   7
BRANCH   9  10
ATOM     10  C   UNL     1     163.786 196.373 172.340  0.00  0.00    +0.000 C 
BRANCH  10  12
ATOM     12  C   UNL     1     164.813 197.509 172.326  0.00  0.00    +0.000 C 
BRANCH  12   5
ATOM      5  N   UNL     1     166.162 197.022 172.074  0.00  0.00    +0.000 NA
ATOM     20  C   UNL     1     166.125 195.696 171.452  0.00  0.00    +0.000 C 
BRANCH   5  18
ATOM     18  C   UNL     1     166.900 197.959 171.224  0.00  0.00    +0.000 C 
BRANCH  18  22
ATOM     22  C   UNL     1     165.949 198.748 170.324  0.00  0.00    +0.000 C 
BRANCH  22  24
ATOM     24  C   UNL     1     166.429 200.163 170.115  0.00  0.00    +0.000 A 
ATOM     25  C   UNL     1     167.544 200.409 169.315  0.00  0.00    +0.000 A 
ATOM     26  C   UNL     1     165.756 201.224 170.721  0.00  0.00    +0.000 A 
ATOM     27  C   UNL     1     167.988 201.718 169.121  0.00  0.00    +0.000 A 
ATOM     29  C   UNL     1     166.200 202.532 170.527  0.00  0.00    +0.000 A 
ATOM     30  C   UNL     1     167.315 202.779 169.728  0.00  0.00    +0.000 A 
BRANCH  27   3
ATOM      3  O   UNL     1     169.079 201.947 168.337  0.00  0.00    +0.000 OA
ATOM     32  C   UNL     1     168.880 201.916 166.925  0.00  0.00    +0.000 C 
ENDBRANCH  27   3
BRANCH  30   4
ATOM      4  O   UNL     1     167.738 204.061 169.545  0.00  0.00    +0.000 OA
ATOM     33  C   UNL     1     168.278 204.732 170.682  0.00  0.00    +0.000 C 
ENDBRANCH  30   4
ENDBRANCH  22  24
ENDBRANCH  18  22
ENDBRANCH   5  18
ENDBRANCH  12   5
ENDBRANCH  10  12
ENDBRANCH   9  10
TORSDOF 14
ENDMDL
MODEL 4
REMARK VINA RESULT:      -6.8     51.892     57.123
REMARK  Name = 2520
REMARK  21 active torsions:
REMARK  status: ('A' for Active; 'I' for Inactive)
REMARK    1  A    between atoms: O_1  and  C_19
REMARK    2  A    between atoms: O_1  and  C_28
REMARK    3  A    between atoms: O_2  and  C_23
REMARK    4  A    between atoms: O_2  and  C_31
REMARK    5  A    between atoms: O_3  and  C_27
REMARK    6  A    between atoms: O_3  and  C_32
REMARK    7  A    between atoms: O_4  and  C_30
REMARK    8  A    between atoms: O_4  and  C_33
REMARK    9  A    between atoms: N_5  and  C_12
REMARK   10  A    between atoms: N_5  and  C_18
REMARK   11  A    between atoms: N_5  and  C_20
REMARK   12  A    between atoms: C_7  and  C_8
REMARK   13  A    between atoms: C_7  and  C_9
REMARK   14  A    between atoms: C_7  and  C_11
REMARK   15  A    between atoms: C_7  and  C_15
REMARK   16  A    between atoms: C_8  and  C_13
REMARK   17  A    between atoms: C_8  and  C_14
REMARK   18  A    between atoms: C_9  and  C_10
REMARK   19  A    between atoms: C_10  and  C_12
REMARK   20  A    between atoms: C_18  and  C_22
REMARK   21  A    between atoms: C_22  and  C_24
REMARK                            x       y       z     vdW  Elec       q    Type
REMARK                         _______ _______ _______ _____ _____    ______ ____
ROOT
ATOM      9  C   UNL     1     191.308 176.698 155.549  0.00  0.00    +0.000 C 
ENDROOT
BRANCH   9   7
ATOM      7  C   UNL     1     191.163 177.280 154.096  0.00  0.00    +0.000 C 
BRANCH   7  11
ATOM     11  C   UNL     1     191.355 178.814 154.132  0.00  0.00    +0.000 A 
ATOM     16  C   UNL     1     190.841 179.557 155.195  0.00  0.00    +0.000 A 
ATOM     17  C   UNL     1     192.042 179.456 153.100  0.00  0.00    +0.000 A 
ATOM     19  C   UNL     1     191.014 180.940 155.227  0.00  0.00    +0.000 A 
ATOM     21  C   UNL     1     192.215 180.839 153.133  0.00  0.00    +0.000 A 
ATOM     23  C   UNL     1     191.701 181.582 154.196  0.00  0.00    +0.000 A 
BRANCH  19   1
ATOM      1  O   UNL     1     190.507 181.655 156.271  0.00  0.00    +0.000 OA
ATOM     28  C   UNL     1     190.236 180.939 157.474  0.00  0.00    +0.000 C 
ENDBRANCH  19   1
BRANCH  23   2
ATOM      2  O   UNL     1     191.877 182.933 154.217  0.00  0.00    +0.000 OA
ATOM     31  C   UNL     1     191.142 183.697 153.264  0.00  0.00    +0.000 C 
ENDBRANCH  23   2
ENDBRANCH   7  11
BRANCH   7   8
ATOM      8  C   UNL     1     189.719 176.953 153.523  0.00  0.00    +0.000 C 
ATOM     13  C   UNL     1     189.191 175.557 153.897  0.00  0.00    +0.000 C 
ATOM     14  C   UNL     1     189.621 177.116 151.994  0.00  0.00    +0.000 C 
ENDBRANCH   7   8
BRANCH   7  15
ATOM      6  N   UNL     1     192.949 176.032 152.583  0.00  0.00    +0.000 NA
ATOM     15  C   UNL     1     192.174 176.584 153.248  0.00  0.00    +0.000 C 
ENDBRANCH   7  15
ENDBRANCH   9   7
BRANCH   9  10
ATOM     10  C   UNL     1     192.590 175.876 155.801  0.00  0.00    +0.000 C 
BRANCH  10  12
ATOM     12  C   UNL     1     192.399 174.795 156.870  0.00  0.00    +0.000 C 
BRANCH  12   5
ATOM      5  N   UNL     1     191.101 174.144 156.761  0.00  0.00    +0.000 NA
ATOM     20  C   UNL     1     191.223 172.863 156.061  0.00  0.00    +0.000 C 
BRANCH   5  18
ATOM     18  C   UNL     1     190.511 173.942 158.086  0.00  0.00    +0.000 C 
BRANCH  18  22
ATOM     22  C   UNL     1     190.782 172.528 158.597  0.00  0.00    +0.000 C 
BRANCH  22  24
ATOM     24  C   UNL     1     191.770 172.530 159.738  0.00  0.00    +0.000 A 
ATOM     25  C   UNL     1     193.128 172.342 159.484  0.00  0.00    +0.000 A 
ATOM     26  C   UNL     1     191.323 172.722 161.045  0.00  0.00    +0.000 A 
ATOM     27  C   UNL     1     194.041 172.345 160.539  0.00  0.00    +0.000 A 
ATOM     29  C   UNL     1     192.237 172.724 162.100  0.00  0.00    +0.000 A 
ATOM     30  C   UNL     1     193.595 172.536 161.847  0.00  0.00    +0.000 A 
BRANCH  27   3
ATOM      3  O   UNL     1     195.366 172.160 160.279  0.00  0.00    +0.000 OA
ATOM     32  C   UNL     1     195.814 172.453 158.957  0.00  0.00    +0.000 C 
ENDBRANCH  27   3
BRANCH  30   4
ATOM      4  O   UNL     1     194.477 172.542 162.885  0.00  0.00    +0.000 OA
ATOM     33  C   UNL     1     194.830 173.812 163.429  0.00  0.00    +0.000 C 
ENDBRANCH  30   4
ENDBRANCH  22  24
ENDBRANCH  18  22
ENDBRANCH   5  18
ENDBRANCH  12   5
ENDBRANCH  10  12
ENDBRANCH   9  10
TORSDOF 14
ENDMDL
MODEL 5
REMARK VINA RESULT:      -6.8     54.403     57.793
REMARK  Name = 2520
REMARK  21 active torsions:
REMARK  status: ('A' for Active; 'I' for Inactive)
REMARK    1  A    between atoms: O_1  and  C_19
REMARK    2  A    between atoms: O_1  and  C_28
REMARK    3  A    between atoms: O_2  and  C_23
REMARK    4  A    between atoms: O_2  and  C_31
REMARK    5  A    between atoms: O_3  and  C_27
REMARK    6  A    between atoms: O_3  and  C_32
REMARK    7  A    between atoms: O_4  and  C_30
REMARK    8  A    between atoms: O_4  and  C_33
REMARK    9  A    between atoms: N_5  and  C_12
REMARK   10  A    between atoms: N_5  and  C_18
REMARK   11  A    between atoms: N_5  and  C_20
REMARK   12  A    between atoms: C_7  and  C_8
REMARK   13  A    between atoms: C_7  and  C_9
REMARK   14  A    between atoms: C_7  and  C_11
REMARK   15  A    between atoms: C_7  and  C_15
REMARK   16  A    between atoms: C_8  and  C_13
REMARK   17  A    between atoms: C_8  and  C_14
REMARK   18  A    between atoms: C_9  and  C_10
REMARK   19  A    between atoms: C_10  and  C_12
REMARK   20  A    between atoms: C_18  and  C_22
REMARK   21  A    between atoms: C_22  and  C_24
REMARK                            x       y       z     vdW  Elec       q    Type
REMARK                         _______ _______ _______ _____ _____    ______ ____
ROOT
ATOM      9  C   UNL     1     162.564 174.489 162.307  0.00  0.00    +0.000 C 
ENDROOT
BRANCH   9   7
ATOM      7  C   UNL     1     161.764 173.593 163.321  0.00  0.00    +0.000 C 
BRANCH   7  11
ATOM     11  C   UNL     1     160.913 172.563 162.541  0.00  0.00    +0.000 A 
ATOM     16  C   UNL     1     160.037 171.721 163.227  0.00  0.00    +0.000 A 
ATOM     17  C   UNL     1     161.023 172.475 161.153  0.00  0.00    +0.000 A 
ATOM     19  C   UNL     1     159.271 170.792 162.524  0.00  0.00    +0.000 A 
ATOM     21  C   UNL     1     160.255 171.547 160.450  0.00  0.00    +0.000 A 
ATOM     23  C   UNL     1     159.379 170.704 161.135  0.00  0.00    +0.000 A 
BRANCH  19   1
ATOM      1  O   UNL     1     158.418 169.975 163.204  0.00  0.00    +0.000 OA
ATOM     28  C   UNL     1     158.956 169.256 164.311  0.00  0.00    +0.000 C 
ENDBRANCH  19   1
BRANCH  23   2
ATOM      2  O   UNL     1     158.635 169.801 160.437  0.00  0.00    +0.000 OA
ATOM     31  C   UNL     1     158.813 169.770 159.023  0.00  0.00    +0.000 C 
ENDBRANCH  23   2
ENDBRANCH   7  11
BRANCH   7   8
ATOM      8  C   UNL     1     160.800 174.500 164.199  0.00  0.00    +0.000 C 
ATOM     13  C   UNL     1     159.757 175.286 163.387  0.00  0.00    +0.000 C 
ATOM     14  C   UNL     1     161.557 175.490 165.105  0.00  0.00    +0.000 C 
ENDBRANCH   7   8
BRANCH   7  15
ATOM      6  N   UNL     1     163.549 172.454 164.917  0.00  0.00    +0.000 NA
ATOM     15  C   UNL     1     162.767 172.959 164.225  0.00  0.00    +0.000 C 
ENDBRANCH   7  15
ENDBRANCH   9   7
BRANCH   9  10
ATOM     10  C   UNL     1     164.032 174.068 162.079  0.00  0.00    +0.000 C 
BRANCH  10  12
ATOM     12  C   UNL     1     165.027 175.182 162.419  0.00  0.00    +0.000 C 
BRANCH  12   5
ATOM      5  N   UNL     1     166.304 174.652 162.878  0.00  0.00    +0.000 NA
ATOM     20  C   UNL     1     166.398 174.725 164.337  0.00  0.00    +0.000 C 
BRANCH   5  18
ATOM     18  C   UNL     1     166.481 173.270 162.427  0.00  0.00    +0.000 C 
BRANCH  18  22
ATOM     22  C   UNL     1     167.041 172.395 163.549  0.00  0.00    +0.000 C 
BRANCH  22  24
ATOM     24  C   UNL     1     166.563 170.969 163.431  0.00  0.00    +0.000 A 
ATOM     25  C   UNL     1     165.537 170.649 162.542  0.00  0.00    +0.000 A 
ATOM     26  C   UNL     1     167.149 169.971 164.209  0.00  0.00    +0.000 A 
ATOM     27  C   UNL     1     165.097 169.329 162.431  0.00  0.00    +0.000 A 
ATOM     29  C   UNL     1     166.708 168.652 164.100  0.00  0.00    +0.000 A 
ATOM     30  C   UNL     1     165.682 168.332 163.211  0.00  0.00    +0.000 A 
BRANCH  27   3
ATOM      3  O   UNL     1     164.094 169.028 161.560  0.00  0.00    +0.000 OA
ATOM     32  C   UNL     1     162.757 169.244 162.011  0.00  0.00    +0.000 C 
ENDBRANCH  27   3
BRANCH  30   4
ATOM      4  O   UNL     1     165.261 167.040 163.113  0.00  0.00    +0.000 OA
ATOM     33  C   UNL     1     166.208 166.023 163.433  0.00  0.00    +0.000 C 
ENDBRANCH  30   4
ENDBRANCH  22  24
ENDBRANCH  18  22
ENDBRANCH   5  18
ENDBRANCH  12   5
ENDBRANCH  10  12
ENDBRANCH   9  10
TORSDOF 14
ENDMDL
MODEL 6
REMARK VINA RESULT:      -6.7      1.184      2.033
REMARK  Name = 2520
REMARK  21 active torsions:
REMARK  status: ('A' for Active; 'I' for Inactive)
REMARK    1  A    between atoms: O_1  and  C_19
REMARK    2  A    between atoms: O_1  and  C_28
REMARK    3  A    between atoms: O_2  and  C_23
REMARK    4  A    between atoms: O_2  and  C_31
REMARK    5  A    between atoms: O_3  and  C_27
REMARK    6  A    between atoms: O_3  and  C_32
REMARK    7  A    between atoms: O_4  and  C_30
REMARK    8  A    between atoms: O_4  and  C_33
REMARK    9  A    between atoms: N_5  and  C_12
REMARK   10  A    between atoms: N_5  and  C_18
REMARK   11  A    between atoms: N_5  and  C_20
REMARK   12  A    between atoms: C_7  and  C_8
REMARK   13  A    between atoms: C_7  and  C_9
REMARK   14  A    between atoms: C_7  and  C_11
REMARK   15  A    between atoms: C_7  and  C_15
REMARK   16  A    between atoms: C_8  and  C_13
REMARK   17  A    between atoms: C_8  and  C_14
REMARK   18  A    between atoms: C_9  and  C_10
REMARK   19  A    between atoms: C_10  and  C_12
REMARK   20  A    between atoms: C_18  and  C_22
REMARK   21  A    between atoms: C_22  and  C_24
REMARK                            x       y       z     vdW  Elec       q    Type
REMARK                         _______ _______ _______ _____ _____    ______ ____
ROOT
ATOM      9  C   UNL     1     190.530 160.858 212.443  0.00  0.00    +0.000 C 
ENDROOT
BRANCH   9   7
ATOM      7  C   UNL     1     191.464 161.194 213.661  0.00  0.00    +0.000 C 
BRANCH   7  11
ATOM     11  C   UNL     1     192.940 161.198 213.195  0.00  0.00    +0.000 A 
ATOM     16  C   UNL     1     193.456 160.100 212.504  0.00  0.00    +0.000 A 
ATOM     17  C   UNL     1     193.754 162.297 213.466  0.00  0.00    +0.000 A 
ATOM     19  C   UNL     1     194.785 160.104 212.085  0.00  0.00    +0.000 A 
ATOM     21  C   UNL     1     195.084 162.301 213.046  0.00  0.00    +0.000 A 
ATOM     23  C   UNL     1     195.601 161.204 212.355  0.00  0.00    +0.000 A 
BRANCH  19   1
ATOM      1  O   UNL     1     195.278 159.027 211.411  0.00  0.00    +0.000 OA
ATOM     28  C   UNL     1     194.428 157.888 211.300  0.00  0.00    +0.000 C 
ENDBRANCH  19   1
BRANCH  23   2
ATOM      2  O   UNL     1     196.901 161.220 211.950  0.00  0.00    +0.000 OA
ATOM     31  C   UNL     1     197.679 162.357 212.313  0.00  0.00    +0.000 C 
ENDBRANCH  23   2
ENDBRANCH   7  11
BRANCH   7   8
ATOM      8  C   UNL     1     191.285 160.100 214.799  0.00  0.00    +0.000 C 
ATOM     13  C   UNL     1     189.884 159.468 214.852  0.00  0.00    +0.000 C 
ATOM     14  C   UNL     1     191.635 160.625 216.205  0.00  0.00    +0.000 C 
ENDBRANCH   7   8
BRANCH   7  15
ATOM      6  N   UNL     1     190.687 163.542 214.616  0.00  0.00    +0.000 NA
ATOM     15  C   UNL     1     191.018 162.511 214.199  0.00  0.00    +0.000 C 
ENDBRANCH   7  15
ENDBRANCH   9   7
BRANCH   9  10
ATOM     10  C   UNL     1     190.611 161.848 211.262  0.00  0.00    +0.000 C 
BRANCH  10  12
ATOM     12  C   UNL     1     189.268 162.523 210.962  0.00  0.00    +0.000 C 
BRANCH  12   5
ATOM      5  N   UNL     1     188.657 162.006 209.745  0.00  0.00    +0.000 NA
ATOM     20  C   UNL     1     188.011 163.084 208.994  0.00  0.00    +0.000 C 
BRANCH   5  18
ATOM     18  C   UNL     1     189.657 161.336 208.910  0.00  0.00    +0.000 C 
BRANCH  18  22
ATOM     22  C   UNL     1     189.291 161.436 207.430  0.00  0.00    +0.000 C 
BRANCH  22  24
ATOM     24  C   UNL     1     189.496 160.122 206.718  0.00  0.00    +0.000 A 
ATOM     25  C   UNL     1     190.667 159.393 206.924  0.00  0.00    +0.000 A 
ATOM     26  C   UNL     1     188.514 159.635 205.855  0.00  0.00    +0.000 A 
ATOM     27  C   UNL     1     190.857 158.177 206.267  0.00  0.00    +0.000 A 
ATOM     29  C   UNL     1     188.704 158.420 205.197  0.00  0.00    +0.000 A 
ATOM     30  C   UNL     1     189.874 157.691 205.403  0.00  0.00    +0.000 A 
BRANCH  27   3
ATOM      3  O   UNL     1     192.005 157.474 206.475  0.00  0.00    +0.000 OA
ATOM     32  C   UNL     1     192.393 157.254 207.830  0.00  0.00    +0.000 C 
ENDBRANCH  27   3
BRANCH  30   4
ATOM      4  O   UNL     1     190.048 156.505 204.755  0.00  0.00    +0.000 OA
ATOM     33  C   UNL     1     188.920 155.636 204.684  0.00  0.00    +0.000 C 
ENDBRANCH  30   4
ENDBRANCH  22  24
ENDBRANCH  18  22
ENDBRANCH   5  18
ENDBRANCH  12   5
ENDBRANCH  10  12
ENDBRANCH   9  10
TORSDOF 14
ENDMDL
MODEL 7
REMARK VINA RESULT:      -6.6     55.988     60.188
REMARK  Name = 2520
REMARK  21 active torsions:
REMARK  status: ('A' for Active; 'I' for Inactive)
REMARK    1  A    between atoms: O_1  and  C_19
REMARK    2  A    between atoms: O_1  and  C_28
REMARK    3  A    between atoms: O_2  and  C_23
REMARK    4  A    between atoms: O_2  and  C_31
REMARK    5  A    between atoms: O_3  and  C_27
REMARK    6  A    between atoms: O_3  and  C_32
REMARK    7  A    between atoms: O_4  and  C_30
REMARK    8  A    between atoms: O_4  and  C_33
REMARK    9  A    between atoms: N_5  and  C_12
REMARK   10  A    between atoms: N_5  and  C_18
REMARK   11  A    between atoms: N_5  and  C_20
REMARK   12  A    between atoms: C_7  and  C_8
REMARK   13  A    between atoms: C_7  and  C_9
REMARK   14  A    between atoms: C_7  and  C_11
REMARK   15  A    between atoms: C_7  and  C_15
REMARK   16  A    between atoms: C_8  and  C_13
REMARK   17  A    between atoms: C_8  and  C_14
REMARK   18  A    between atoms: C_9  and  C_10
REMARK   19  A    between atoms: C_10  and  C_12
REMARK   20  A    between atoms: C_18  and  C_22
REMARK   21  A    between atoms: C_22  and  C_24
REMARK                            x       y       z     vdW  Elec       q    Type
REMARK                         _______ _______ _______ _____ _____    ______ ____
ROOT
ATOM      9  C   UNL     1     163.474 195.644 174.092  0.00  0.00    +0.000 C 
ENDROOT
BRANCH   9   7
ATOM      7  C   UNL     1     162.631 194.323 173.980  0.00  0.00    +0.000 C 
BRANCH   7  11
ATOM     11  C   UNL     1     163.466 193.237 173.260  0.00  0.00    +0.000 A 
ATOM     16  C   UNL     1     164.637 192.755 173.846  0.00  0.00    +0.000 A 
ATOM     17  C   UNL     1     163.047 192.739 172.026  0.00  0.00    +0.000 A 
ATOM     19  C   UNL     1     165.389 191.776 173.197  0.00  0.00    +0.000 A 
ATOM     21  C   UNL     1     163.799 191.759 171.378  0.00  0.00    +0.000 A 
ATOM     23  C   UNL     1     164.971 191.278 171.962  0.00  0.00    +0.000 A 
BRANCH  19   1
ATOM      1  O   UNL     1     166.531 191.314 173.779  0.00  0.00    +0.000 OA
ATOM     28  C   UNL     1     166.843 191.810 175.079  0.00  0.00    +0.000 C 
ENDBRANCH  19   1
BRANCH  23   2
ATOM      2  O   UNL     1     165.696 190.321 171.319  0.00  0.00    +0.000 OA
ATOM     31  C   UNL     1     165.191 188.989 171.359  0.00  0.00    +0.000 C 
ENDBRANCH  23   2
ENDBRANCH   7  11
BRANCH   7   8
ATOM      8  C   UNL     1     161.308 194.595 173.145  0.00  0.00    +0.000 C 
ATOM     13  C   UNL     1     160.749 196.020 173.292  0.00  0.00    +0.000 C 
ATOM     14  C   UNL     1     160.177 193.595 173.458  0.00  0.00    +0.000 C 
ENDBRANCH   7   8
BRANCH   7  15
ATOM      6  N   UNL     1     161.950 193.624 176.445  0.00  0.00    +0.000 NA
ATOM     15  C   UNL     1     162.243 193.937 175.367  0.00  0.00    +0.000 C 
ENDBRANCH   7  15
ENDBRANCH   9   7
BRANCH   9  10
ATOM     10  C   UNL     1     164.443 195.906 172.919  0.00  0.00    +0.000 C 
BRANCH  10  12
ATOM     12  C   UNL     1     164.368 197.345 172.399  0.00  0.00    +0.000 C 
BRANCH  12   5
ATOM      5  N   UNL     1     165.038 197.496 171.114  0.00  0.00    +0.000 NA
ATOM     20  C   UNL     1     165.240 196.192 170.481  0.00  0.00    +0.000 C 
BRANCH   5  18
ATOM     18  C   UNL     1     164.267 198.374 170.231  0.00  0.00    +0.000 C 
BRANCH  18  22
ATOM     22  C   UNL     1     165.064 199.628 169.873  0.00  0.00    +0.000 C 
BRANCH  22  24
ATOM     24  C   UNL     1     164.602 200.824 170.669  0.00  0.00    +0.000 A 
ATOM     25  C   UNL     1     165.313 201.226 171.799  0.00  0.00    +0.000 A 
ATOM     26  C   UNL     1     163.464 201.528 170.272  0.00  0.00    +0.000 A 
ATOM     27  C   UNL     1     164.886 202.333 172.534  0.00  0.00    +0.000 A 
ATOM     29  C   UNL     1     163.038 202.634 171.008  0.00  0.00    +0.000 A 
ATOM     30  C   UNL     1     163.748 203.036 172.138  0.00  0.00    +0.000 A 
BRANCH  27   3
ATOM      3  O   UNL     1     165.588 202.717 173.637  0.00  0.00    +0.000 OA
ATOM     32  C   UNL     1     165.424 201.930 174.816  0.00  0.00    +0.000 C 
ENDBRANCH  27   3
BRANCH  30   4
ATOM      4  O   UNL     1     163.322 204.118 172.847  0.00  0.00    +0.000 OA
ATOM     33  C   UNL     1     161.963 204.114 173.279  0.00  0.00    +0.000 C 
ENDBRANCH  30   4
ENDBRANCH  22  24
ENDBRANCH  18  22
ENDBRANCH   5  18
ENDBRANCH  12   5
ENDBRANCH  10  12
ENDBRANCH   9  10
TORSDOF 14
ENDMDL
MODEL 8
REMARK VINA RESULT:      -6.5     17.034     20.935
REMARK  Name = 2520
REMARK  21 active torsions:
REMARK  status: ('A' for Active; 'I' for Inactive)
REMARK    1  A    between atoms: O_1  and  C_19
REMARK    2  A    between atoms: O_1  and  C_28
REMARK    3  A    between atoms: O_2  and  C_23
REMARK    4  A    between atoms: O_2  and  C_31
REMARK    5  A    between atoms: O_3  and  C_27
REMARK    6  A    between atoms: O_3  and  C_32
REMARK    7  A    between atoms: O_4  and  C_30
REMARK    8  A    between atoms: O_4  and  C_33
REMARK    9  A    between atoms: N_5  and  C_12
REMARK   10  A    between atoms: N_5  and  C_18
REMARK   11  A    between atoms: N_5  and  C_20
REMARK   12  A    between atoms: C_7  and  C_8
REMARK   13  A    between atoms: C_7  and  C_9
REMARK   14  A    between atoms: C_7  and  C_11
REMARK   15  A    between atoms: C_7  and  C_15
REMARK   16  A    between atoms: C_8  and  C_13
REMARK   17  A    between atoms: C_8  and  C_14
REMARK   18  A    between atoms: C_9  and  C_10
REMARK   19  A    between atoms: C_10  and  C_12
REMARK   20  A    between atoms: C_18  and  C_22
REMARK   21  A    between atoms: C_22  and  C_24
REMARK                            x       y       z     vdW  Elec       q    Type
REMARK                         _______ _______ _______ _____ _____    ______ ____
ROOT
ATOM      9  C   UNL     1     180.283 170.882 199.606  0.00  0.00    +0.000 C 
ENDROOT
BRANCH   9   7
ATOM      7  C   UNL     1     181.672 171.058 200.319  0.00  0.00    +0.000 C 
BRANCH   7  11
ATOM     11  C   UNL     1     181.449 171.336 201.825  0.00  0.00    +0.000 A 
ATOM     16  C   UNL     1     180.192 171.735 202.281  0.00  0.00    +0.000 A 
ATOM     17  C   UNL     1     182.504 171.189 202.725  0.00  0.00    +0.000 A 
ATOM     19  C   UNL     1     179.991 171.986 203.638  0.00  0.00    +0.000 A 
ATOM     21  C   UNL     1     182.302 171.440 204.083  0.00  0.00    +0.000 A 
ATOM     23  C   UNL     1     181.045 171.839 204.540  0.00  0.00    +0.000 A 
BRANCH  19   1
ATOM      1  O   UNL     1     178.759 172.375 204.072  0.00  0.00    +0.000 OA
ATOM     28  C   UNL     1     177.646 171.591 203.648  0.00  0.00    +0.000 C 
ENDBRANCH  19   1
BRANCH  23   2
ATOM      2  O   UNL     1     180.861 172.080 205.867  0.00  0.00    +0.000 OA
ATOM     31  C   UNL     1     181.969 171.837 206.730  0.00  0.00    +0.000 C 
ENDBRANCH  23   2
ENDBRANCH   7  11
BRANCH   7   8
ATOM      8  C   UNL     1     182.459 172.280 199.679  0.00  0.00    +0.000 C 
ATOM     13  C   UNL     1     183.981 172.236 199.898  0.00  0.00    +0.000 C 
ATOM     14  C   UNL     1     181.939 173.651 200.153  0.00  0.00    +0.000 C 
ENDBRANCH   7   8
BRANCH   7  15
ATOM      6  N   UNL     1     183.071 168.850 199.870  0.00  0.00    +0.000 NA
ATOM     15  C   UNL     1     182.451 169.811 200.065  0.00  0.00    +0.000 C 
ENDBRANCH   7  15
ENDBRANCH   9   7
BRANCH   9  10
ATOM     10  C   UNL     1     180.084 169.533 198.882  0.00  0.00    +0.000 C 
BRANCH  10  12
ATOM     12  C   UNL     1     180.255 169.644 197.364  0.00  0.00    +0.000 C 
BRANCH  12   5
ATOM      5  N   UNL     1     180.150 171.022 196.903  0.00  0.00    +0.000 NA
ATOM     20  C   UNL     1     181.337 171.402 196.134  0.00  0.00    +0.000 C 
BRANCH   5  18
ATOM     18  C   UNL     1     178.943 171.205 196.094  0.00  0.00    +0.000 C 
BRANCH  18  22
ATOM     22  C   UNL     1     178.248 172.523 196.436  0.00  0.00    +0.000 C 
BRANCH  22  24
ATOM     24  C   UNL     1     176.867 172.292 196.997  0.00  0.00    +0.000 A 
ATOM     25  C   UNL     1     176.657 171.284 197.937  0.00  0.00    +0.000 A 
ATOM     26  C   UNL     1     175.802 173.089 196.577  0.00  0.00    +0.000 A 
ATOM     27  C   UNL     1     175.379 171.072 198.458  0.00  0.00    +0.000 A 
ATOM     29  C   UNL     1     174.525 172.876 197.097  0.00  0.00    +0.000 A 
ATOM     30  C   UNL     1     174.314 171.868 198.037  0.00  0.00    +0.000 A 
BRANCH  27   3
ATOM      3  O   UNL     1     175.185 170.084 199.376  0.00  0.00    +0.000 OA
ATOM     32  C   UNL     1     176.306 169.256 199.684  0.00  0.00    +0.000 C 
ENDBRANCH  27   3
BRANCH  30   4
ATOM      4  O   UNL     1     173.062 171.671 198.538  0.00  0.00    +0.000 OA
ATOM     33  C   UNL     1     172.573 172.643 199.459  0.00  0.00    +0.000 C 
ENDBRANCH  30   4
ENDBRANCH  22  24
ENDBRANCH  18  22
ENDBRANCH   5  18
ENDBRANCH  12   5
ENDBRANCH  10  12
ENDBRANCH   9  10
TORSDOF 14
ENDMDL
MODEL 9
REMARK VINA RESULT:      -6.5     53.703     58.492
REMARK  Name = 2520
REMARK  21 active torsions:
REMARK  status: ('A' for Active; 'I' for Inactive)
REMARK    1  A    between atoms: O_1  and  C_19
REMARK    2  A    between atoms: O_1  and  C_28
REMARK    3  A    between atoms: O_2  and  C_23
REMARK    4  A    between atoms: O_2  and  C_31
REMARK    5  A    between atoms: O_3  and  C_27
REMARK    6  A    between atoms: O_3  and  C_32
REMARK    7  A    between atoms: O_4  and  C_30
REMARK    8  A    between atoms: O_4  and  C_33
REMARK    9  A    between atoms: N_5  and  C_12
REMARK   10  A    between atoms: N_5  and  C_18
REMARK   11  A    between atoms: N_5  and  C_20
REMARK   12  A    between atoms: C_7  and  C_8
REMARK   13  A    between atoms: C_7  and  C_9
REMARK   14  A    between atoms: C_7  and  C_11
REMARK   15  A    between atoms: C_7  and  C_15
REMARK   16  A    between atoms: C_8  and  C_13
REMARK   17  A    between atoms: C_8  and  C_14
REMARK   18  A    between atoms: C_9  and  C_10
REMARK   19  A    between atoms: C_10  and  C_12
REMARK   20  A    between atoms: C_18  and  C_22
REMARK   21  A    between atoms: C_22  and  C_24
REMARK                            x       y       z     vdW  Elec       q    Type
REMARK                         _______ _______ _______ _____ _____    ______ ____
ROOT
ATOM      9  C   UNL     1     149.803 166.099 170.075  0.00  0.00    +0.000 C 
ENDROOT
BRANCH   9   7
ATOM      7  C   UNL     1     150.618 166.609 171.318  0.00  0.00    +0.000 C 
BRANCH   7  11
ATOM     11  C   UNL     1     151.773 165.626 171.618  0.00  0.00    +0.000 A 
ATOM     16  C   UNL     1     152.750 165.382 170.652  0.00  0.00    +0.000 A 
ATOM     17  C   UNL     1     151.839 164.983 172.855  0.00  0.00    +0.000 A 
ATOM     19  C   UNL     1     153.792 164.495 170.923  0.00  0.00    +0.000 A 
ATOM     21  C   UNL     1     152.881 164.096 173.125  0.00  0.00    +0.000 A 
ATOM     23  C   UNL     1     153.858 163.851 172.159  0.00  0.00    +0.000 A 
BRANCH  19   1
ATOM      1  O   UNL     1     154.739 164.264 169.971  0.00  0.00    +0.000 OA
ATOM     28  C   UNL     1     155.912 165.074 170.016  0.00  0.00    +0.000 C 
ENDBRANCH  19   1
BRANCH  23   2
ATOM      2  O   UNL     1     154.871 162.984 172.436  0.00  0.00    +0.000 OA
ATOM     31  C   UNL     1     154.630 162.007 173.446  0.00  0.00    +0.000 C 
ENDBRANCH  23   2
ENDBRANCH   7  11
BRANCH   7   8
ATOM      8  C   UNL     1     149.669 166.695 172.589  0.00  0.00    +0.000 C 
ATOM     13  C   UNL     1     148.193 166.974 172.259  0.00  0.00    +0.000 C 
ATOM     14  C   UNL     1     150.139 167.733 173.628  0.00  0.00    +0.000 C 
ENDBRANCH   7   8
BRANCH   7  15
ATOM      6  N   UNL     1     151.475 169.049 170.730  0.00  0.00    +0.000 NA
ATOM     15  C   UNL     1     151.092 167.985 170.991  0.00  0.00    +0.000 C 
ENDBRANCH   7  15
ENDBRANCH   9   7
BRANCH   9  10
ATOM     10  C   UNL     1     149.771 164.566 169.897  0.00  0.00    +0.000 C 
BRANCH  10  12
ATOM     12  C   UNL     1     148.554 164.089 169.098  0.00  0.00    +0.000 C 
BRANCH  12   5
ATOM      5  N   UNL     1     148.937 163.494 167.824  0.00  0.00    +0.000 NA
ATOM     20  C   UNL     1     147.806 163.493 166.894  0.00  0.00    +0.000 C 
BRANCH   5  18
ATOM     18  C   UNL     1     150.072 164.211 167.240  0.00  0.00    +0.000 C 
BRANCH  18  22
ATOM     22  C   UNL     1     149.598 165.398 166.402  0.00  0.00    +0.000 C 
BRANCH  22  24
ATOM     24  C   UNL     1     150.737 166.328 166.064  0.00  0.00    +0.000 A 
ATOM     25  C   UNL     1     151.393 167.024 167.079  0.00  0.00    +0.000 A 
ATOM     26  C   UNL     1     151.134 166.491 164.737  0.00  0.00    +0.000 A 
ATOM     27  C   UNL     1     152.447 167.883 166.767  0.00  0.00    +0.000 A 
ATOM     29  C   UNL     1     152.187 167.350 164.425  0.00  0.00    +0.000 A 
ATOM     30  C   UNL     1     152.843 168.046 165.439  0.00  0.00    +0.000 A 
BRANCH  27   3
ATOM      3  O   UNL     1     153.081 168.558 167.766  0.00  0.00    +0.000 OA
ATOM     32  C   UNL     1     154.176 167.899 168.400  0.00  0.00    +0.000 C 
ENDBRANCH  27   3
BRANCH  30   4
ATOM      4  O   UNL     1     153.871 168.882 165.121  0.00  0.00    +0.000 OA
ATOM     33  C   UNL     1     155.090 168.278 164.695  0.00  0.00    +0.000 C 
ENDBRANCH  30   4
ENDBRANCH  22  24
ENDBRANCH  18  22
ENDBRANCH   5  18
ENDBRANCH  12   5
ENDBRANCH  10  12
ENDBRANCH   9  10
TORSDOF 14
ENDMDL
