MODEL 1
REMARK VINA RESULT:      -6.3      0.000      0.000
REMARK  10 active torsions:
REMARK  status: ('A' for Active; 'I' for Inactive)
REMARK    1  A    between atoms: O_2  and  C_12 
REMARK    2  A    between atoms: O_2  and  C_14 
REMARK    3  A    between atoms: O_3  and  C_8 
REMARK    4  A    between atoms: O_4  and  C_9 
REMARK    5  A    between atoms: O_5  and  C_10 
REMARK    6  A    between atoms: O_6  and  C_13 
REMARK    7  A    between atoms: O_7  and  C_21 
REMARK    8  A    between atoms: C_11  and  C_13 
REMARK    9  A    between atoms: C_14  and  C_15 
REMARK   10  A    between atoms: C_15  and  C_16 
ROOT
HETATM    1  O   UNK     0     184.772 185.108 173.383  0.00  0.00    -0.348 OA
HETATM    2  C   UNK     0     187.116 184.344 174.856  0.00  0.00     0.183 C 
HETATM    3  C   UNK     0     185.755 183.683 175.078  0.00  0.00     0.180 C 
HETATM    4  C   UNK     0     186.961 185.730 174.228  0.00  0.00     0.204 C 
HETATM    5  C   UNK     0     184.904 183.751 173.809  0.00  0.00     0.179 C 
HETATM    6  C   UNK     0     186.021 185.693 173.024  0.00  0.00     0.291 C 
ENDROOT
BRANCH   5   7
HETATM    7  C   UNK     0     183.500 183.203 174.040  0.00  0.00     0.198 C 
BRANCH   7   8
HETATM    8  O   UNK     0     183.241 183.196 175.432  0.00  0.00    -0.398 OA
HETATM    9  H   UNK     0     183.925 182.649 175.855  0.00  0.00     0.209 HD
ENDBRANCH   7   8
ENDBRANCH   5   7
BRANCH   6  10
HETATM   10  O   UNK     0     185.817 187.035 172.586  0.00  0.00    -0.358 OA
BRANCH  10  11
HETATM   11  C   UNK     0     185.103 187.075 171.359  0.00  0.00     0.175 C 
BRANCH  11  12
HETATM   12  C   UNK     0     185.486 188.329 170.581  0.00  0.00     0.065 C 
BRANCH  12  13
HETATM   13  C   UNK     0     184.294 188.983 169.926  0.00  0.00    -0.056 A 
HETATM   14  C   UNK     0     184.273 190.360 169.774  0.00  0.00     0.010 A 
HETATM   15  C   UNK     0     183.171 190.965 169.168  0.00  0.00     0.037 A 
HETATM   16  C   UNK     0     182.104 190.183 168.723  0.00  0.00     0.065 A 
HETATM   17  C   UNK     0     182.139 188.799 168.883  0.00  0.00     0.037 A 
HETATM   18  C   UNK     0     183.241 188.195 169.488  0.00  0.00     0.010 A 
BRANCH  16  19
HETATM   19  O   UNK     0     181.029 190.774 168.132  0.00  0.00    -0.361 OA
HETATM   20  H   UNK     0     180.835 190.312 167.299  0.00  0.00     0.217 HD
ENDBRANCH  16  19
ENDBRANCH  12  13
ENDBRANCH  11  12
ENDBRANCH  10  11
ENDBRANCH   6  10
BRANCH   3  21
HETATM   21  O   UNK     0     185.949 182.319 175.443  0.00  0.00    -0.390 OA
HETATM   22  H   UNK     0     186.159 182.288 176.392  0.00  0.00     0.210 HD
ENDBRANCH   3  21
BRANCH   4  23
HETATM   23  O   UNK     0     188.237 186.194 173.786  0.00  0.00    -0.388 OA
HETATM   24  H   UNK     0     188.888 185.993 174.481  0.00  0.00     0.210 HD
ENDBRANCH   4  23
BRANCH   2  25
HETATM   25  O   UNK     0     187.761 184.465 176.124  0.00  0.00    -0.390 OA
HETATM   26  H   UNK     0     187.073 184.397 176.808  0.00  0.00     0.210 HD
ENDBRANCH   2  25
TORSDOF 10
ENDMDL
MODEL 2
REMARK VINA RESULT:      -6.3      1.500      3.082
REMARK  10 active torsions:
REMARK  status: ('A' for Active; 'I' for Inactive)
REMARK    1  A    between atoms: O_2  and  C_12 
REMARK    2  A    between atoms: O_2  and  C_14 
REMARK    3  A    between atoms: O_3  and  C_8 
REMARK    4  A    between atoms: O_4  and  C_9 
REMARK    5  A    between atoms: O_5  and  C_10 
REMARK    6  A    between atoms: O_6  and  C_13 
REMARK    7  A    between atoms: O_7  and  C_21 
REMARK    8  A    between atoms: C_11  and  C_13 
REMARK    9  A    between atoms: C_14  and  C_15 
REMARK   10  A    between atoms: C_15  and  C_16 
ROOT
HETATM    1  O   UNK     0     185.330 184.896 173.765  0.00  0.00    -0.348 OA
HETATM    2  C   UNK     0     183.659 182.783 174.761  0.00  0.00     0.183 C 
HETATM    3  C   UNK     0     185.186 182.688 174.754  0.00  0.00     0.180 C 
HETATM    4  C   UNK     0     183.164 183.800 173.733  0.00  0.00     0.204 C 
HETATM    5  C   UNK     0     185.817 184.079 174.831  0.00  0.00     0.179 C 
HETATM    6  C   UNK     0     183.924 185.121 173.845  0.00  0.00     0.291 C 
ENDROOT
BRANCH   5   7
HETATM    7  C   UNK     0     187.335 184.019 174.707  0.00  0.00     0.198 C 
BRANCH   7   8
HETATM    8  O   UNK     0     187.881 183.723 175.979  0.00  0.00    -0.398 OA
HETATM    9  H   UNK     0     188.670 183.172 175.840  0.00  0.00     0.209 HD
ENDBRANCH   7   8
ENDBRANCH   5   7
BRANCH   6  10
HETATM   10  O   UNK     0     183.508 185.960 172.769  0.00  0.00    -0.358 OA
BRANCH  10  11
HETATM   11  C   UNK     0     184.493 186.015 171.748  0.00  0.00     0.175 C 
BRANCH  11  12
HETATM   12  C   UNK     0     183.824 186.265 170.401  0.00  0.00     0.065 C 
BRANCH  12  13
HETATM   13  C   UNK     0     183.811 187.728 170.029  0.00  0.00    -0.056 A 
HETATM   14  C   UNK     0     184.858 188.541 170.431  0.00  0.00     0.010 A 
HETATM   15  C   UNK     0     184.846 189.893 170.088  0.00  0.00     0.037 A 
HETATM   16  C   UNK     0     183.784 190.414 169.347  0.00  0.00     0.065 A 
HETATM   17  C   UNK     0     182.737 189.584 168.949  0.00  0.00     0.037 A 
HETATM   18  C   UNK     0     182.750 188.232 169.293  0.00  0.00     0.010 A 
BRANCH  16  19
HETATM   19  O   UNK     0     183.773 191.733 169.012  0.00  0.00    -0.361 OA
HETATM   20  H   UNK     0     183.847 192.265 169.823  0.00  0.00     0.217 HD
ENDBRANCH  16  19
ENDBRANCH  12  13
ENDBRANCH  11  12
ENDBRANCH  10  11
ENDBRANCH   6  10
BRANCH   3  21
HETATM   21  O   UNK     0     185.615 181.913 175.870  0.00  0.00    -0.390 OA
HETATM   22  H   UNK     0     186.013 182.516 176.520  0.00  0.00     0.210 HD
ENDBRANCH   3  21
BRANCH   4  23
HETATM   23  O   UNK     0     181.778 184.062 173.956  0.00  0.00    -0.388 OA
HETATM   24  H   UNK     0     181.405 183.312 174.451  0.00  0.00     0.210 HD
ENDBRANCH   4  23
BRANCH   2  25
HETATM   25  O   UNK     0     183.135 181.493 174.446  0.00  0.00    -0.390 OA
HETATM   26  H   UNK     0     182.348 181.354 175.000  0.00  0.00     0.210 HD
ENDBRANCH   2  25
TORSDOF 10
ENDMDL
MODEL 3
REMARK VINA RESULT:      -6.3     10.566     13.777
REMARK  10 active torsions:
REMARK  status: ('A' for Active; 'I' for Inactive)
REMARK    1  A    between atoms: O_2  and  C_12 
REMARK    2  A    between atoms: O_2  and  C_14 
REMARK    3  A    between atoms: O_3  and  C_8 
REMARK    4  A    between atoms: O_4  and  C_9 
REMARK    5  A    between atoms: O_5  and  C_10 
REMARK    6  A    between atoms: O_6  and  C_13 
REMARK    7  A    between atoms: O_7  and  C_21 
REMARK    8  A    between atoms: C_11  and  C_13 
REMARK    9  A    between atoms: C_14  and  C_15 
REMARK   10  A    between atoms: C_15  and  C_16 
ROOT
HETATM    1  O   UNK     0     191.106 186.512 182.673  0.00  0.00    -0.348 OA
HETATM    2  C   UNK     0     192.051 189.182 182.198  0.00  0.00     0.183 C 
HETATM    3  C   UNK     0     191.311 188.371 181.133  0.00  0.00     0.180 C 
HETATM    4  C   UNK     0     192.680 188.268 183.251  0.00  0.00     0.204 C 
HETATM    5  C   UNK     0     190.372 187.352 181.781  0.00  0.00     0.179 C 
HETATM    6  C   UNK     0     191.676 187.235 183.762  0.00  0.00     0.291 C 
ENDROOT
BRANCH   5   7
HETATM    7  C   UNK     0     189.712 186.452 180.742  0.00  0.00     0.198 C 
BRANCH   7   8
HETATM    8  O   UNK     0     188.431 186.080 181.215  0.00  0.00    -0.398 OA
HETATM    9  H   UNK     0     187.876 186.878 181.220  0.00  0.00     0.209 HD
ENDBRANCH   7   8
ENDBRANCH   5   7
BRANCH   6  10
HETATM   10  O   UNK     0     192.372 186.338 184.625  0.00  0.00    -0.358 OA
BRANCH  10  11
HETATM   11  C   UNK     0     193.251 185.496 183.895  0.00  0.00     0.175 C 
BRANCH  11  12
HETATM   12  C   UNK     0     193.056 184.047 184.327  0.00  0.00     0.065 C 
BRANCH  12  13
HETATM   13  C   UNK     0     191.757 183.468 183.820  0.00  0.00    -0.056 A 
HETATM   14  C   UNK     0     190.819 183.006 184.728  0.00  0.00     0.010 A 
HETATM   15  C   UNK     0     189.619 182.471 184.260  0.00  0.00     0.037 A 
HETATM   16  C   UNK     0     189.374 182.404 182.888  0.00  0.00     0.065 A 
HETATM   17  C   UNK     0     190.328 182.873 181.985  0.00  0.00     0.037 A 
HETATM   18  C   UNK     0     191.528 183.408 182.455  0.00  0.00     0.010 A 
BRANCH  16  19
HETATM   19  O   UNK     0     188.203 181.881 182.431  0.00  0.00    -0.361 OA
HETATM   20  H   UNK     0     188.323 181.597 181.509  0.00  0.00     0.217 HD
ENDBRANCH  16  19
ENDBRANCH  12  13
ENDBRANCH  11  12
ENDBRANCH  10  11
ENDBRANCH   6  10
BRANCH   3  21
HETATM   21  O   UNK     0     190.553 189.255 180.311  0.00  0.00    -0.390 OA
HETATM   22  H   UNK     0     190.639 190.153 180.675  0.00  0.00     0.210 HD
ENDBRANCH   3  21
BRANCH   4  23
HETATM   23  O   UNK     0     193.117 189.054 184.360  0.00  0.00    -0.388 OA
HETATM   24  H   UNK     0     192.545 188.848 185.120  0.00  0.00     0.210 HD
ENDBRANCH   4  23
BRANCH   2  25
HETATM   25  O   UNK     0     193.075 189.935 181.548  0.00  0.00    -0.390 OA
HETATM   26  H   UNK     0     193.626 189.308 181.050  0.00  0.00     0.210 HD
ENDBRANCH   2  25
TORSDOF 10
ENDMDL
MODEL 4
REMARK VINA RESULT:      -6.2      3.914      5.797
REMARK  10 active torsions:
REMARK  status: ('A' for Active; 'I' for Inactive)
REMARK    1  A    between atoms: O_2  and  C_12 
REMARK    2  A    between atoms: O_2  and  C_14 
REMARK    3  A    between atoms: O_3  and  C_8 
REMARK    4  A    between atoms: O_4  and  C_9 
REMARK    5  A    between atoms: O_5  and  C_10 
REMARK    6  A    between atoms: O_6  and  C_13 
REMARK    7  A    between atoms: O_7  and  C_21 
REMARK    8  A    between atoms: C_11  and  C_13 
REMARK    9  A    between atoms: C_14  and  C_15 
REMARK   10  A    between atoms: C_15  and  C_16 
ROOT
HETATM    1  O   UNK     0     187.054 184.158 172.271  0.00  0.00    -0.348 OA
HETATM    2  C   UNK     0     187.972 186.875 172.109  0.00  0.00     0.183 C 
HETATM    3  C   UNK     0     188.256 185.846 171.014  0.00  0.00     0.180 C 
HETATM    4  C   UNK     0     187.671 186.193 173.444  0.00  0.00     0.204 C 
HETATM    5  C   UNK     0     187.169 184.770 170.985  0.00  0.00     0.179 C 
HETATM    6  C   UNK     0     186.639 185.078 173.279  0.00  0.00     0.291 C 
ENDROOT
BRANCH   5   7
HETATM    7  C   UNK     0     187.491 183.668 169.981  0.00  0.00     0.198 C 
BRANCH   7   8
HETATM    8  O   UNK     0     188.896 183.600 169.821  0.00  0.00    -0.398 OA
HETATM    9  H   UNK     0     189.302 183.970 170.622  0.00  0.00     0.209 HD
ENDBRANCH   7   8
ENDBRANCH   5   7
BRANCH   6  10
HETATM   10  O   UNK     0     186.521 184.401 174.529  0.00  0.00    -0.358 OA
BRANCH  10  11
HETATM   11  C   UNK     0     185.603 183.321 174.447  0.00  0.00     0.175 C 
BRANCH  11  12
HETATM   12  C   UNK     0     184.347 183.649 175.245  0.00  0.00     0.065 C 
BRANCH  12  13
HETATM   13  C   UNK     0     183.123 183.759 174.369  0.00  0.00    -0.056 A 
HETATM   14  C   UNK     0     183.140 184.618 173.283  0.00  0.00     0.010 A 
HETATM   15  C   UNK     0     182.009 184.719 172.473  0.00  0.00     0.037 A 
HETATM   16  C   UNK     0     180.874 183.960 172.763  0.00  0.00     0.065 A 
HETATM   17  C   UNK     0     180.871 183.100 173.860  0.00  0.00     0.037 A 
HETATM   18  C   UNK     0     182.003 182.999 174.669  0.00  0.00     0.010 A 
BRANCH  16  19
HETATM   19  O   UNK     0     179.770 184.060 171.973  0.00  0.00    -0.361 OA
HETATM   20  H   UNK     0     179.695 183.254 171.433  0.00  0.00     0.217 HD
ENDBRANCH  16  19
ENDBRANCH  12  13
ENDBRANCH  11  12
ENDBRANCH  10  11
ENDBRANCH   6  10
BRANCH   3  21
HETATM   21  O   UNK     0     188.301 186.504 169.750  0.00  0.00    -0.390 OA
HETATM   22  H   UNK     0     187.944 185.895 169.081  0.00  0.00     0.210 HD
ENDBRANCH   3  21
BRANCH   4  23
HETATM   23  O   UNK     0     187.148 187.155 174.360  0.00  0.00    -0.388 OA
HETATM   24  H   UNK     0     186.784 187.896 173.844  0.00  0.00     0.210 HD
ENDBRANCH   4  23
BRANCH   2  25
HETATM   25  O   UNK     0     189.127 187.703 172.247  0.00  0.00    -0.390 OA
HETATM   26  H   UNK     0     188.923 188.560 171.834  0.00  0.00     0.210 HD
ENDBRANCH   2  25
TORSDOF 10
ENDMDL
MODEL 5
REMARK VINA RESULT:      -6.2      3.511      6.783
REMARK  10 active torsions:
REMARK  status: ('A' for Active; 'I' for Inactive)
REMARK    1  A    between atoms: O_2  and  C_12 
REMARK    2  A    between atoms: O_2  and  C_14 
REMARK    3  A    between atoms: O_3  and  C_8 
REMARK    4  A    between atoms: O_4  and  C_9 
REMARK    5  A    between atoms: O_5  and  C_10 
REMARK    6  A    between atoms: O_6  and  C_13 
REMARK    7  A    between atoms: O_7  and  C_21 
REMARK    8  A    between atoms: C_11  and  C_13 
REMARK    9  A    between atoms: C_14  and  C_15 
REMARK   10  A    between atoms: C_15  and  C_16 
ROOT
HETATM    1  O   UNK     0     185.108 185.494 172.723  0.00  0.00    -0.348 OA
HETATM    2  C   UNK     0     186.703 185.394 175.110  0.00  0.00     0.183 C 
HETATM    3  C   UNK     0     187.294 185.734 173.742  0.00  0.00     0.180 C 
HETATM    4  C   UNK     0     185.394 184.615 174.969  0.00  0.00     0.204 C 
HETATM    5  C   UNK     0     186.236 186.364 172.834  0.00  0.00     0.179 C 
HETATM    6  C   UNK     0     184.451 185.289 173.972  0.00  0.00     0.291 C 
ENDROOT
BRANCH   5   7
HETATM    7  C   UNK     0     186.771 186.604 171.426  0.00  0.00     0.198 C 
BRANCH   7   8
HETATM    8  O   UNK     0     187.441 187.850 171.404  0.00  0.00    -0.398 OA
HETATM    9  H   UNK     0     188.089 187.849 172.129  0.00  0.00     0.209 HD
ENDBRANCH   7   8
ENDBRANCH   5   7
BRANCH   6  10
HETATM   10  O   UNK     0     183.323 184.435 173.788  0.00  0.00    -0.358 OA
BRANCH  10  11
HETATM   11  C   UNK     0     183.555 183.489 172.755  0.00  0.00     0.175 C 
BRANCH  11  12
HETATM   12  C   UNK     0     183.493 182.077 173.326  0.00  0.00     0.065 C 
BRANCH  12  13
HETATM   13  C   UNK     0     182.258 181.331 172.881  0.00  0.00    -0.056 A 
HETATM   14  C   UNK     0     181.042 181.992 172.845  0.00  0.00     0.010 A 
HETATM   15  C   UNK     0     179.901 181.304 172.433  0.00  0.00     0.037 A 
HETATM   16  C   UNK     0     179.993 179.961 172.064  0.00  0.00     0.065 A 
HETATM   17  C   UNK     0     181.224 179.309 172.105  0.00  0.00     0.037 A 
HETATM   18  C   UNK     0     182.365 179.998 172.516  0.00  0.00     0.010 A 
BRANCH  16  19
HETATM   19  O   UNK     0     178.879 179.289 171.662  0.00  0.00    -0.361 OA
HETATM   20  H   UNK     0     178.225 179.304 172.382  0.00  0.00     0.217 HD
ENDBRANCH  16  19
ENDBRANCH  12  13
ENDBRANCH  11  12
ENDBRANCH  10  11
ENDBRANCH   6  10
BRANCH   3  21
HETATM   21  O   UNK     0     188.375 186.647 173.910  0.00  0.00    -0.390 OA
HETATM   22  H   UNK     0     188.490 186.805 174.863  0.00  0.00     0.210 HD
ENDBRANCH   3  21
BRANCH   4  23
HETATM   23  O   UNK     0     184.738 184.557 176.236  0.00  0.00    -0.388 OA
HETATM   24  H   UNK     0     183.787 184.705 176.090  0.00  0.00     0.210 HD
ENDBRANCH   4  23
BRANCH   2  25
HETATM   25  O   UNK     0     187.654 184.599 175.818  0.00  0.00    -0.390 OA
HETATM   26  H   UNK     0     188.481 184.608 175.305  0.00  0.00     0.210 HD
ENDBRANCH   2  25
TORSDOF 10
ENDMDL
MODEL 6
REMARK VINA RESULT:      -6.2      4.480      5.861
REMARK  10 active torsions:
REMARK  status: ('A' for Active; 'I' for Inactive)
REMARK    1  A    between atoms: O_2  and  C_12 
REMARK    2  A    between atoms: O_2  and  C_14 
REMARK    3  A    between atoms: O_3  and  C_8 
REMARK    4  A    between atoms: O_4  and  C_9 
REMARK    5  A    between atoms: O_5  and  C_10 
REMARK    6  A    between atoms: O_6  and  C_13 
REMARK    7  A    between atoms: O_7  and  C_21 
REMARK    8  A    between atoms: C_11  and  C_13 
REMARK    9  A    between atoms: C_14  and  C_15 
REMARK   10  A    between atoms: C_15  and  C_16 
ROOT
HETATM    1  O   UNK     0     186.145 183.953 172.183  0.00  0.00    -0.348 OA
HETATM    2  C   UNK     0     187.865 185.954 173.317  0.00  0.00     0.183 C 
HETATM    3  C   UNK     0     186.866 185.159 174.158  0.00  0.00     0.180 C 
HETATM    4  C   UNK     0     187.462 185.964 171.842  0.00  0.00     0.204 C 
HETATM    5  C   UNK     0     186.595 183.791 173.530  0.00  0.00     0.179 C 
HETATM    6  C   UNK     0     187.129 184.557 171.346  0.00  0.00     0.291 C 
ENDROOT
BRANCH   5   7
HETATM    7  C   UNK     0     185.514 183.026 174.286  0.00  0.00     0.198 C 
BRANCH   7   8
HETATM    8  O   UNK     0     186.126 182.290 175.328  0.00  0.00    -0.398 OA
HETATM    9  H   UNK     0     186.986 182.702 175.514  0.00  0.00     0.209 HD
ENDBRANCH   7   8
ENDBRANCH   5   7
BRANCH   6  10
HETATM   10  O   UNK     0     186.628 184.667 170.015  0.00  0.00    -0.358 OA
BRANCH  10  11
HETATM   11  C   UNK     0     187.376 183.864 169.114  0.00  0.00     0.175 C 
BRANCH  11  12
HETATM   12  C   UNK     0     187.320 184.470 167.716  0.00  0.00     0.065 C 
BRANCH  12  13
HETATM   13  C   UNK     0     188.657 185.013 167.272  0.00  0.00    -0.056 A 
HETATM   14  C   UNK     0     189.625 184.139 166.807  0.00  0.00     0.010 A 
HETATM   15  C   UNK     0     190.860 184.641 166.396  0.00  0.00     0.037 A 
HETATM   16  C   UNK     0     191.110 186.012 166.458  0.00  0.00     0.065 A 
HETATM   17  C   UNK     0     190.126 186.880 166.928  0.00  0.00     0.037 A 
HETATM   18  C   UNK     0     188.891 186.378 167.339  0.00  0.00     0.010 A 
BRANCH  16  19
HETATM   19  O   UNK     0     192.315 186.502 166.057  0.00  0.00    -0.361 OA
HETATM   20  H   UNK     0     192.456 187.370 166.471  0.00  0.00     0.217 HD
ENDBRANCH  16  19
ENDBRANCH  12  13
ENDBRANCH  11  12
ENDBRANCH  10  11
ENDBRANCH   6  10
BRANCH   3  21
HETATM   21  O   UNK     0     187.393 184.979 175.470  0.00  0.00    -0.390 OA
HETATM   22  H   UNK     0     188.330 185.239 175.456  0.00  0.00     0.210 HD
ENDBRANCH   3  21
BRANCH   4  23
HETATM   23  O   UNK     0     188.544 186.469 171.058  0.00  0.00    -0.388 OA
HETATM   24  H   UNK     0     188.398 187.422 170.922  0.00  0.00     0.210 HD
ENDBRANCH   4  23
BRANCH   2  25
HETATM   25  O   UNK     0     187.892 187.293 173.811  0.00  0.00    -0.390 OA
HETATM   26  H   UNK     0     186.983 187.529 174.064  0.00  0.00     0.210 HD
ENDBRANCH   2  25
TORSDOF 10
ENDMDL
MODEL 7
REMARK VINA RESULT:      -6.2      3.941      7.188
REMARK  10 active torsions:
REMARK  status: ('A' for Active; 'I' for Inactive)
REMARK    1  A    between atoms: O_2  and  C_12 
REMARK    2  A    between atoms: O_2  and  C_14 
REMARK    3  A    between atoms: O_3  and  C_8 
REMARK    4  A    between atoms: O_4  and  C_9 
REMARK    5  A    between atoms: O_5  and  C_10 
REMARK    6  A    between atoms: O_6  and  C_13 
REMARK    7  A    between atoms: O_7  and  C_21 
REMARK    8  A    between atoms: C_11  and  C_13 
REMARK    9  A    between atoms: C_14  and  C_15 
REMARK   10  A    between atoms: C_15  and  C_16 
ROOT
HETATM    1  O   UNK     0     186.026 184.295 172.603  0.00  0.00    -0.348 OA
HETATM    2  C   UNK     0     186.057 185.429 175.241  0.00  0.00     0.183 C 
HETATM    3  C   UNK     0     187.000 185.901 174.134  0.00  0.00     0.180 C 
HETATM    4  C   UNK     0     185.545 184.015 174.966  0.00  0.00     0.204 C 
HETATM    5  C   UNK     0     186.378 185.671 172.755  0.00  0.00     0.179 C 
HETATM    6  C   UNK     0     185.030 183.878 173.534  0.00  0.00     0.291 C 
ENDROOT
BRANCH   5   7
HETATM    7  C   UNK     0     187.346 186.025 171.632  0.00  0.00     0.198 C 
BRANCH   7   8
HETATM    8  O   UNK     0     187.494 187.432 171.589  0.00  0.00    -0.398 OA
HETATM    9  H   UNK     0     188.445 187.629 171.639  0.00  0.00     0.209 HD
ENDBRANCH   7   8
ENDBRANCH   5   7
BRANCH   6  10
HETATM   10  O   UNK     0     184.707 182.506 173.313  0.00  0.00    -0.358 OA
BRANCH  10  11
HETATM   11  C   UNK     0     183.739 182.363 172.284  0.00  0.00     0.175 C 
BRANCH  11  12
HETATM   12  C   UNK     0     182.339 182.514 172.869  0.00  0.00     0.065 C 
BRANCH  12  13
HETATM   13  C   UNK     0     181.474 181.306 172.606  0.00  0.00    -0.056 A 
HETATM   14  C   UNK     0     182.068 180.063 172.465  0.00  0.00     0.010 A 
HETATM   15  C   UNK     0     181.268 178.946 172.222  0.00  0.00     0.037 A 
HETATM   16  C   UNK     0     179.883 179.089 172.123  0.00  0.00     0.065 A 
HETATM   17  C   UNK     0     179.299 180.346 172.268  0.00  0.00     0.037 A 
HETATM   18  C   UNK     0     180.100 181.462 172.511  0.00  0.00     0.010 A 
BRANCH  16  19
HETATM   19  O   UNK     0     179.103 177.998 171.886  0.00  0.00    -0.361 OA
HETATM   20  H   UNK     0     178.182 178.289 171.770  0.00  0.00     0.217 HD
ENDBRANCH  16  19
ENDBRANCH  12  13
ENDBRANCH  11  12
ENDBRANCH  10  11
ENDBRANCH   6  10
BRANCH   3  21
HETATM   21  O   UNK     0     187.268 187.291 174.304  0.00  0.00    -0.390 OA
HETATM   22  H   UNK     0     188.231 187.404 174.384  0.00  0.00     0.210 HD
ENDBRANCH   3  21
BRANCH   4  23
HETATM   23  O   UNK     0     184.471 183.718 175.859  0.00  0.00    -0.388 OA
HETATM   24  H   UNK     0     183.658 184.107 175.492  0.00  0.00     0.210 HD
ENDBRANCH   4  23
BRANCH   2  25
HETATM   25  O   UNK     0     186.780 185.443 176.472  0.00  0.00    -0.390 OA
HETATM   26  H   UNK     0     186.150 185.671 177.178  0.00  0.00     0.210 HD
ENDBRANCH   2  25
TORSDOF 10
ENDMDL
MODEL 8
REMARK VINA RESULT:      -6.2      3.266      7.492
REMARK  10 active torsions:
REMARK  status: ('A' for Active; 'I' for Inactive)
REMARK    1  A    between atoms: O_2  and  C_12 
REMARK    2  A    between atoms: O_2  and  C_14 
REMARK    3  A    between atoms: O_3  and  C_8 
REMARK    4  A    between atoms: O_4  and  C_9 
REMARK    5  A    between atoms: O_5  and  C_10 
REMARK    6  A    between atoms: O_6  and  C_13 
REMARK    7  A    between atoms: O_7  and  C_21 
REMARK    8  A    between atoms: C_11  and  C_13 
REMARK    9  A    between atoms: C_14  and  C_15 
REMARK   10  A    between atoms: C_15  and  C_16 
ROOT
HETATM    1  O   UNK     0     184.665 184.817 173.512  0.00  0.00    -0.348 OA
HETATM    2  C   UNK     0     187.096 183.945 174.770  0.00  0.00     0.183 C 
HETATM    3  C   UNK     0     187.059 185.100 173.769  0.00  0.00     0.180 C 
HETATM    4  C   UNK     0     185.891 183.020 174.592  0.00  0.00     0.204 C 
HETATM    5  C   UNK     0     185.688 185.780 173.774  0.00  0.00     0.179 C 
HETATM    6  C   UNK     0     184.586 183.814 174.523  0.00  0.00     0.291 C 
ENDROOT
BRANCH   5   7
HETATM    7  C   UNK     0     185.588 186.859 172.702  0.00  0.00     0.198 C 
BRANCH   7   8
HETATM    8  O   UNK     0     184.433 186.614 171.920  0.00  0.00    -0.398 OA
HETATM    9  H   UNK     0     184.616 186.928 171.019  0.00  0.00     0.209 HD
ENDBRANCH   7   8
ENDBRANCH   5   7
BRANCH   6  10
HETATM   10  O   UNK     0     183.534 182.901 174.215  0.00  0.00    -0.358 OA
BRANCH  10  11
HETATM   11  C   UNK     0     183.438 182.677 172.816  0.00  0.00     0.175 C 
BRANCH  11  12
HETATM   12  C   UNK     0     182.120 181.980 172.495  0.00  0.00     0.065 C 
BRANCH  12  13
HETATM   13  C   UNK     0     182.288 180.491 172.313  0.00  0.00    -0.056 A 
HETATM   14  C   UNK     0     183.529 179.985 171.964  0.00  0.00     0.010 A 
HETATM   15  C   UNK     0     183.683 178.609 171.797  0.00  0.00     0.037 A 
HETATM   16  C   UNK     0     182.593 177.757 171.981  0.00  0.00     0.065 A 
HETATM   17  C   UNK     0     181.350 178.281 172.332  0.00  0.00     0.037 A 
HETATM   18  C   UNK     0     181.196 179.658 172.500  0.00  0.00     0.010 A 
BRANCH  16  19
HETATM   19  O   UNK     0     182.745 176.414 171.817  0.00  0.00    -0.361 OA
HETATM   20  H   UNK     0     183.587 176.141 172.219  0.00  0.00     0.217 HD
ENDBRANCH  16  19
ENDBRANCH  12  13
ENDBRANCH  11  12
ENDBRANCH  10  11
ENDBRANCH   6  10
BRANCH   3  21
HETATM   21  O   UNK     0     188.059 186.054 174.114  0.00  0.00    -0.390 OA
HETATM   22  H   UNK     0     187.670 186.682 174.747  0.00  0.00     0.210 HD
ENDBRANCH   3  21
BRANCH   4  23
HETATM   23  O   UNK     0     185.812 182.126 175.703  0.00  0.00    -0.388 OA
HETATM   24  H   UNK     0     186.648 181.631 175.751  0.00  0.00     0.210 HD
ENDBRANCH   4  23
BRANCH   2  25
HETATM   25  O   UNK     0     188.298 183.207 174.548  0.00  0.00    -0.390 OA
HETATM   26  H   UNK     0     188.127 182.286 174.810  0.00  0.00     0.210 HD
ENDBRANCH   2  25
TORSDOF 10
ENDMDL
MODEL 9
REMARK VINA RESULT:      -6.1     11.174     12.990
REMARK  10 active torsions:
REMARK  status: ('A' for Active; 'I' for Inactive)
REMARK    1  A    between atoms: O_2  and  C_12 
REMARK    2  A    between atoms: O_2  and  C_14 
REMARK    3  A    between atoms: O_3  and  C_8 
REMARK    4  A    between atoms: O_4  and  C_9 
REMARK    5  A    between atoms: O_5  and  C_10 
REMARK    6  A    between atoms: O_6  and  C_13 
REMARK    7  A    between atoms: O_7  and  C_21 
REMARK    8  A    between atoms: C_11  and  C_13 
REMARK    9  A    between atoms: C_14  and  C_15 
REMARK   10  A    between atoms: C_15  and  C_16 
ROOT
HETATM    1  O   UNK     0     191.796 184.503 182.965  0.00  0.00    -0.348 OA
HETATM    2  C   UNK     0     189.536 182.730 182.950  0.00  0.00     0.183 C 
HETATM    3  C   UNK     0     190.017 183.457 181.694  0.00  0.00     0.180 C 
HETATM    4  C   UNK     0     190.002 183.449 184.217  0.00  0.00     0.204 C 
HETATM    5  C   UNK     0     191.515 183.756 181.780  0.00  0.00     0.179 C 
HETATM    6  C   UNK     0     191.494 183.776 184.155  0.00  0.00     0.291 C 
ENDROOT
BRANCH   5   7
HETATM    7  C   UNK     0     191.995 184.583 180.593  0.00  0.00     0.198 C 
BRANCH   7   8
HETATM    8  O   UNK     0     190.867 185.135 179.941  0.00  0.00    -0.398 OA
HETATM    9  H   UNK     0     191.010 185.053 178.983  0.00  0.00     0.209 HD
ENDBRANCH   7   8
ENDBRANCH   5   7
BRANCH   6  10
HETATM   10  O   UNK     0     191.818 184.565 185.298  0.00  0.00    -0.358 OA
BRANCH  10  11
HETATM   11  C   UNK     0     190.932 185.665 185.434  0.00  0.00     0.175 C 
BRANCH  11  12
HETATM   12  C   UNK     0     191.705 186.971 185.294  0.00  0.00     0.065 C 
BRANCH  12  13
HETATM   13  C   UNK     0     191.509 187.612 183.941  0.00  0.00    -0.056 A 
HETATM   14  C   UNK     0     190.354 187.345 183.224  0.00  0.00     0.010 A 
HETATM   15  C   UNK     0     190.172 187.938 181.975  0.00  0.00     0.037 A 
HETATM   16  C   UNK     0     191.150 188.789 181.458  0.00  0.00     0.065 A 
HETATM   17  C   UNK     0     192.307 189.049 182.191  0.00  0.00     0.037 A 
HETATM   18  C   UNK     0     192.488 188.456 183.441  0.00  0.00     0.010 A 
BRANCH  16  19
HETATM   19  O   UNK     0     190.972 189.367 180.239  0.00  0.00    -0.361 OA
HETATM   20  H   UNK     0     190.451 190.181 180.349  0.00  0.00     0.217 HD
ENDBRANCH  16  19
ENDBRANCH  12  13
ENDBRANCH  11  12
ENDBRANCH  10  11
ENDBRANCH   6  10
BRANCH   3  21
HETATM   21  O   UNK     0     189.765 182.641 180.553  0.00  0.00    -0.390 OA
HETATM   22  H   UNK     0     190.304 182.978 179.817  0.00  0.00     0.210 HD
ENDBRANCH   3  21
BRANCH   4  23
HETATM   23  O   UNK     0     189.776 182.608 185.349  0.00  0.00    -0.388 OA
HETATM   24  H   UNK     0     188.830 182.651 185.573  0.00  0.00     0.210 HD
ENDBRANCH   4  23
BRANCH   2  25
HETATM   25  O   UNK     0     188.108 182.696 182.921  0.00  0.00    -0.390 OA
HETATM   26  H   UNK     0     187.792 183.606 183.052  0.00  0.00     0.210 HD
ENDBRANCH   2  25
TORSDOF 10
ENDMDL
MODEL 10
REMARK VINA RESULT:      -6.1      1.489      3.254
REMARK  10 active torsions:
REMARK  status: ('A' for Active; 'I' for Inactive)
REMARK    1  A    between atoms: O_2  and  C_12 
REMARK    2  A    between atoms: O_2  and  C_14 
REMARK    3  A    between atoms: O_3  and  C_8 
REMARK    4  A    between atoms: O_4  and  C_9 
REMARK    5  A    between atoms: O_5  and  C_10 
REMARK    6  A    between atoms: O_6  and  C_13 
REMARK    7  A    between atoms: O_7  and  C_21 
REMARK    8  A    between atoms: C_11  and  C_13 
REMARK    9  A    between atoms: C_14  and  C_15 
REMARK   10  A    between atoms: C_15  and  C_16 
ROOT
HETATM    1  O   UNK     0     185.735 185.692 173.081  0.00  0.00    -0.348 OA
HETATM    2  C   UNK     0     185.536 183.656 175.098  0.00  0.00     0.183 C 
HETATM    3  C   UNK     0     186.862 184.024 174.431  0.00  0.00     0.180 C 
HETATM    4  C   UNK     0     184.347 184.060 174.224  0.00  0.00     0.204 C 
HETATM    5  C   UNK     0     186.846 185.478 173.954  0.00  0.00     0.179 C 
HETATM    6  C   UNK     0     184.481 185.501 173.733  0.00  0.00     0.291 C 
ENDROOT
BRANCH   5   7
HETATM    7  C   UNK     0     188.112 185.833 173.182  0.00  0.00     0.198 C 
BRANCH   7   8
HETATM    8  O   UNK     0     188.544 187.118 173.591  0.00  0.00    -0.398 OA
HETATM    9  H   UNK     0     189.470 187.220 173.311  0.00  0.00     0.209 HD
ENDBRANCH   7   8
ENDBRANCH   5   7
BRANCH   6  10
HETATM   10  O   UNK     0     183.418 185.753 172.817  0.00  0.00    -0.358 OA
BRANCH  10  11
HETATM   11  C   UNK     0     183.862 185.655 171.471  0.00  0.00     0.175 C 
BRANCH  11  12
HETATM   12  C   UNK     0     182.978 186.512 170.573  0.00  0.00     0.065 C 
BRANCH  12  13
HETATM   13  C   UNK     0     183.658 187.792 170.152  0.00  0.00    -0.056 A 
HETATM   14  C   UNK     0     184.954 188.042 170.570  0.00  0.00     0.010 A 
HETATM   15  C   UNK     0     185.582 189.225 170.181  0.00  0.00     0.037 A 
HETATM   16  C   UNK     0     184.903 190.144 169.378  0.00  0.00     0.065 A 
HETATM   17  C   UNK     0     183.599 189.878 168.965  0.00  0.00     0.037 A 
HETATM   18  C   UNK     0     182.971 188.695 169.355  0.00  0.00     0.010 A 
BRANCH  16  19
HETATM   19  O   UNK     0     185.517 191.298 168.999  0.00  0.00    -0.361 OA
HETATM   20  H   UNK     0     185.444 191.946 169.721  0.00  0.00     0.217 HD
ENDBRANCH  16  19
ENDBRANCH  12  13
ENDBRANCH  11  12
ENDBRANCH  10  11
ENDBRANCH   6  10
BRANCH   3  21
HETATM   21  O   UNK     0     187.924 183.847 175.365  0.00  0.00    -0.390 OA
HETATM   22  H   UNK     0     188.655 183.398 174.908  0.00  0.00     0.210 HD
ENDBRANCH   3  21
BRANCH   4  23
HETATM   23  O   UNK     0     183.144 183.957 174.985  0.00  0.00    -0.388 OA
HETATM   24  H   UNK     0     183.159 184.648 175.670  0.00  0.00     0.210 HD
ENDBRANCH   4  23
BRANCH   2  25
HETATM   25  O   UNK     0     185.520 182.243 175.299  0.00  0.00    -0.390 OA
HETATM   26  H   UNK     0     186.349 182.003 175.748  0.00  0.00     0.210 HD
ENDBRANCH   2  25
TORSDOF 10
ENDMDL
