REMARK VINA RESULT:      -6.1      1.489      3.254
REMARK  10 active torsions:
REMARK  status: ('A' for Active; 'I' for Inactive)
REMARK    1  A    between atoms: O_2  and  C_12 
REMARK    2  A    between atoms: O_2  and  C_14 
REMARK    3  A    between atoms: O_3  and  C_8 
REMARK    4  A    between atoms: O_4  and  C_9 
REMARK    5  A    between atoms: O_5  and  C_10 
REMARK    6  A    between atoms: O_6  and  C_13 
REMARK    7  A    between atoms: O_7  and  C_21 
REMARK    8  A    between atoms: C_11  and  C_13 
REMARK    9  A    between atoms: C_14  and  C_15 
REMARK   10  A    between atoms: C_15  and  C_16 
ROOT
HETATM    1  O   UNK     0     185.735 185.692 173.081  0.00  0.00    -0.348 OA
HETATM    2  C   UNK     0     185.536 183.656 175.098  0.00  0.00     0.183 C 
HETATM    3  C   UNK     0     186.862 184.024 174.431  0.00  0.00     0.180 C 
HETATM    4  C   UNK     0     184.347 184.060 174.224  0.00  0.00     0.204 C 
HETATM    5  C   UNK     0     186.846 185.478 173.954  0.00  0.00     0.179 C 
HETATM    6  C   UNK     0     184.481 185.501 173.733  0.00  0.00     0.291 C 
ENDROOT
BRANCH   5   7
HETATM    7  C   UNK     0     188.112 185.833 173.182  0.00  0.00     0.198 C 
BRANCH   7   8
HETATM    8  O   UNK     0     188.544 187.118 173.591  0.00  0.00    -0.398 OA
HETATM    9  H   UNK     0     189.470 187.220 173.311  0.00  0.00     0.209 HD
ENDBRANCH   7   8
ENDBRANCH   5   7
BRANCH   6  10
HETATM   10  O   UNK     0     183.418 185.753 172.817  0.00  0.00    -0.358 OA
BRANCH  10  11
HETATM   11  C   UNK     0     183.862 185.655 171.471  0.00  0.00     0.175 C 
BRANCH  11  12
HETATM   12  C   UNK     0     182.978 186.512 170.573  0.00  0.00     0.065 C 
BRANCH  12  13
HETATM   13  C   UNK     0     183.658 187.792 170.152  0.00  0.00    -0.056 A 
HETATM   14  C   UNK     0     184.954 188.042 170.570  0.00  0.00     0.010 A 
HETATM   15  C   UNK     0     185.582 189.225 170.181  0.00  0.00     0.037 A 
HETATM   16  C   UNK     0     184.903 190.144 169.378  0.00  0.00     0.065 A 
HETATM   17  C   UNK     0     183.599 189.878 168.965  0.00  0.00     0.037 A 
HETATM   18  C   UNK     0     182.971 188.695 169.355  0.00  0.00     0.010 A 
BRANCH  16  19
HETATM   19  O   UNK     0     185.517 191.298 168.999  0.00  0.00    -0.361 OA
HETATM   20  H   UNK     0     185.444 191.946 169.721  0.00  0.00     0.217 HD
ENDBRANCH  16  19
ENDBRANCH  12  13
ENDBRANCH  11  12
ENDBRANCH  10  11
ENDBRANCH   6  10
BRANCH   3  21
HETATM   21  O   UNK     0     187.924 183.847 175.365  0.00  0.00    -0.390 OA
HETATM   22  H   UNK     0     188.655 183.398 174.908  0.00  0.00     0.210 HD
ENDBRANCH   3  21
BRANCH   4  23
HETATM   23  O   UNK     0     183.144 183.957 174.985  0.00  0.00    -0.388 OA
HETATM   24  H   UNK     0     183.159 184.648 175.670  0.00  0.00     0.210 HD
ENDBRANCH   4  23
BRANCH   2  25
HETATM   25  O   UNK     0     185.520 182.243 175.299  0.00  0.00    -0.390 OA
HETATM   26  H   UNK     0     186.349 182.003 175.748  0.00  0.00     0.210 HD
ENDBRANCH   2  25
TORSDOF 10
