REMARK VINA RESULT:      -6.2      4.480      5.861
REMARK  10 active torsions:
REMARK  status: ('A' for Active; 'I' for Inactive)
REMARK    1  A    between atoms: O_2  and  C_12 
REMARK    2  A    between atoms: O_2  and  C_14 
REMARK    3  A    between atoms: O_3  and  C_8 
REMARK    4  A    between atoms: O_4  and  C_9 
REMARK    5  A    between atoms: O_5  and  C_10 
REMARK    6  A    between atoms: O_6  and  C_13 
REMARK    7  A    between atoms: O_7  and  C_21 
REMARK    8  A    between atoms: C_11  and  C_13 
REMARK    9  A    between atoms: C_14  and  C_15 
REMARK   10  A    between atoms: C_15  and  C_16 
ROOT
HETATM    1  O   UNK     0     186.145 183.953 172.183  0.00  0.00    -0.348 OA
HETATM    2  C   UNK     0     187.865 185.954 173.317  0.00  0.00     0.183 C 
HETATM    3  C   UNK     0     186.866 185.159 174.158  0.00  0.00     0.180 C 
HETATM    4  C   UNK     0     187.462 185.964 171.842  0.00  0.00     0.204 C 
HETATM    5  C   UNK     0     186.595 183.791 173.530  0.00  0.00     0.179 C 
HETATM    6  C   UNK     0     187.129 184.557 171.346  0.00  0.00     0.291 C 
ENDROOT
BRANCH   5   7
HETATM    7  C   UNK     0     185.514 183.026 174.286  0.00  0.00     0.198 C 
BRANCH   7   8
HETATM    8  O   UNK     0     186.126 182.290 175.328  0.00  0.00    -0.398 OA
HETATM    9  H   UNK     0     186.986 182.702 175.514  0.00  0.00     0.209 HD
ENDBRANCH   7   8
ENDBRANCH   5   7
BRANCH   6  10
HETATM   10  O   UNK     0     186.628 184.667 170.015  0.00  0.00    -0.358 OA
BRANCH  10  11
HETATM   11  C   UNK     0     187.376 183.864 169.114  0.00  0.00     0.175 C 
BRANCH  11  12
HETATM   12  C   UNK     0     187.320 184.470 167.716  0.00  0.00     0.065 C 
BRANCH  12  13
HETATM   13  C   UNK     0     188.657 185.013 167.272  0.00  0.00    -0.056 A 
HETATM   14  C   UNK     0     189.625 184.139 166.807  0.00  0.00     0.010 A 
HETATM   15  C   UNK     0     190.860 184.641 166.396  0.00  0.00     0.037 A 
HETATM   16  C   UNK     0     191.110 186.012 166.458  0.00  0.00     0.065 A 
HETATM   17  C   UNK     0     190.126 186.880 166.928  0.00  0.00     0.037 A 
HETATM   18  C   UNK     0     188.891 186.378 167.339  0.00  0.00     0.010 A 
BRANCH  16  19
HETATM   19  O   UNK     0     192.315 186.502 166.057  0.00  0.00    -0.361 OA
HETATM   20  H   UNK     0     192.456 187.370 166.471  0.00  0.00     0.217 HD
ENDBRANCH  16  19
ENDBRANCH  12  13
ENDBRANCH  11  12
ENDBRANCH  10  11
ENDBRANCH   6  10
BRANCH   3  21
HETATM   21  O   UNK     0     187.393 184.979 175.470  0.00  0.00    -0.390 OA
HETATM   22  H   UNK     0     188.330 185.239 175.456  0.00  0.00     0.210 HD
ENDBRANCH   3  21
BRANCH   4  23
HETATM   23  O   UNK     0     188.544 186.469 171.058  0.00  0.00    -0.388 OA
HETATM   24  H   UNK     0     188.398 187.422 170.922  0.00  0.00     0.210 HD
ENDBRANCH   4  23
BRANCH   2  25
HETATM   25  O   UNK     0     187.892 187.293 173.811  0.00  0.00    -0.390 OA
HETATM   26  H   UNK     0     186.983 187.529 174.064  0.00  0.00     0.210 HD
ENDBRANCH   2  25
TORSDOF 10
