MODEL 1
REMARK VINA RESULT:      -7.3      0.000      0.000
REMARK  13 active torsions:
REMARK  status: ('A' for Active; 'I' for Inactive)
REMARK    1  A    between atoms: O_2  and  C_16 
REMARK    2  A    between atoms: O_2  and  C_17 
REMARK    3  A    between atoms: O_4  and  C_12 
REMARK    4  A    between atoms: O_5  and  C_13 
REMARK    5  A    between atoms: O_6  and  C_15 
REMARK    6  A    between atoms: O_6  and  C_22 
REMARK    7  A    between atoms: O_7  and  C_14 
REMARK    8  A    between atoms: O_8  and  C_18 
REMARK    9  A    between atoms: O_9  and  C_19 
REMARK   10  A    between atoms: O_10  and  C_20 
REMARK   11  A    between atoms: C_11  and  C_16 
REMARK   12  A    between atoms: C_22  and  C_23 
REMARK   13  A    between atoms: C_24  and  C_25 
ROOT
HETATM    1  O   UNK     0      30.468  30.477  19.202  0.00  0.00    -0.348 OA
HETATM    2  C   UNK     0      30.964  31.312  20.249  0.00  0.00     0.180 C 
HETATM    3  C   UNK     0      30.009  31.272  21.445  0.00  0.00     0.180 C 
HETATM    4  C   UNK     0      28.595  31.669  21.023  0.00  0.00     0.183 C 
HETATM    5  C   UNK     0      28.148  30.891  19.785  0.00  0.00     0.204 C 
HETATM    6  C   UNK     0      29.215  30.925  18.692  0.00  0.00     0.291 C 
ENDROOT
BRANCH   2   7
HETATM    7  C   UNK     0      32.355  30.808  20.620  0.00  0.00     0.205 C 
BRANCH   7   8
HETATM    8  O   UNK     0      32.297  29.402  20.780  0.00  0.00    -0.356 OA
BRANCH   8   9
HETATM    9  C   UNK     0      33.492  28.770  20.330  0.00  0.00     0.290 C 
HETATM   10  O   UNK     0      33.659  28.886  18.913  0.00  0.00    -0.356 OA
HETATM   11  C   UNK     0      32.684  28.169  18.159  0.00  0.00     0.205 C 
HETATM   12  C   UNK     0      32.750  26.680  18.473  0.00  0.00     0.173 C 
HETATM   13  C   UNK     0      32.543  26.436  19.969  0.00  0.00     0.182 C 
HETATM   14  C   UNK     0      33.509  27.302  20.784  0.00  0.00     0.204 C 
BRANCH  12  15
HETATM   15  O   UNK     0      31.768  25.973  17.729  0.00  0.00    -0.391 OA
HETATM   16  H   UNK     0      32.203  25.201  17.328  0.00  0.00     0.210 HD
ENDBRANCH  12  15
BRANCH  13  17
HETATM   17  O   UNK     0      31.199  26.762  20.318  0.00  0.00    -0.390 OA
HETATM   18  H   UNK     0      30.727  26.981  19.496  0.00  0.00     0.210 HD
ENDBRANCH  13  17
BRANCH  14  19
HETATM   19  O   UNK     0      34.837  26.807  20.625  0.00  0.00    -0.388 OA
HETATM   20  H   UNK     0      35.087  26.333  21.435  0.00  0.00     0.210 HD
ENDBRANCH  14  19
ENDBRANCH   8   9
ENDBRANCH   7   8
ENDBRANCH   2   7
BRANCH   6  21
HETATM   21  O   UNK     0      28.789  30.067  17.635  0.00  0.00    -0.355 OA
BRANCH  21  22
HETATM   22  C   UNK     0      29.758  30.001  16.600  0.00  0.00     0.198 C 
BRANCH  22  23
HETATM   23  C   UNK     0      29.698  28.647  15.970  0.00  0.00     0.000 C 
HETATM   24  C   UNK     0      29.906  28.433  14.662  0.00  0.00     0.009 C 
BRANCH  24  25
HETATM   25  C   UNK     0      29.872  27.117  14.001  0.00  0.00    -0.036 A 
HETATM   26  C   UNK     0      28.936  26.880  13.006  0.00  0.00     0.011 A 
HETATM   27  C   UNK     0      28.904  25.634  12.379  0.00  0.00     0.001 A 
HETATM   28  C   UNK     0      29.808  24.642  12.755  0.00  0.00     0.000 A 
HETATM   29  C   UNK     0      30.745  24.894  13.757  0.00  0.00     0.001 A 
HETATM   30  C   UNK     0      30.778  26.140  14.384  0.00  0.00     0.011 A 
ENDBRANCH  24  25
ENDBRANCH  22  23
ENDBRANCH  21  22
ENDBRANCH   6  21
BRANCH   3  31
HETATM   31  O   UNK     0      30.473  32.173  22.448  0.00  0.00    -0.390 OA
HETATM   32  H   UNK     0      31.423  32.011  22.580  0.00  0.00     0.210 HD
ENDBRANCH   3  31
BRANCH   5  33
HETATM   33  O   UNK     0      26.954  31.476  19.265  0.00  0.00    -0.388 OA
HETATM   34  H   UNK     0      26.598  32.083  19.936  0.00  0.00     0.210 HD
ENDBRANCH   5  33
BRANCH   4  35
HETATM   35  O   UNK     0      27.713  31.382  22.110  0.00  0.00    -0.390 OA
HETATM   36  H   UNK     0      26.980  32.019  22.066  0.00  0.00     0.210 HD
ENDBRANCH   4  35
TORSDOF 13
ENDMDL
MODEL 2
REMARK VINA RESULT:      -7.0     21.558     23.683
REMARK  13 active torsions:
REMARK  status: ('A' for Active; 'I' for Inactive)
REMARK    1  A    between atoms: O_2  and  C_16 
REMARK    2  A    between atoms: O_2  and  C_17 
REMARK    3  A    between atoms: O_4  and  C_12 
REMARK    4  A    between atoms: O_5  and  C_13 
REMARK    5  A    between atoms: O_6  and  C_15 
REMARK    6  A    between atoms: O_6  and  C_22 
REMARK    7  A    between atoms: O_7  and  C_14 
REMARK    8  A    between atoms: O_8  and  C_18 
REMARK    9  A    between atoms: O_9  and  C_19 
REMARK   10  A    between atoms: O_10  and  C_20 
REMARK   11  A    between atoms: C_11  and  C_16 
REMARK   12  A    between atoms: C_22  and  C_23 
REMARK   13  A    between atoms: C_24  and  C_25 
ROOT
HETATM    1  O   UNK     0      15.505  13.153  24.578  0.00  0.00    -0.348 OA
HETATM    2  C   UNK     0      15.387  14.424  23.937  0.00  0.00     0.180 C 
HETATM    3  C   UNK     0      16.588  14.657  23.016  0.00  0.00     0.180 C 
HETATM    4  C   UNK     0      17.899  14.531  23.791  0.00  0.00     0.183 C 
HETATM    5  C   UNK     0      17.931  13.245  24.619  0.00  0.00     0.204 C 
HETATM    6  C   UNK     0      16.646  13.073  25.428  0.00  0.00     0.291 C 
ENDROOT
BRANCH   2   7
HETATM    7  C   UNK     0      14.072  14.430  23.163  0.00  0.00     0.205 C 
BRANCH   7   8
HETATM    8  O   UNK     0      13.838  15.741  22.683  0.00  0.00    -0.356 OA
BRANCH   8   9
HETATM    9  C   UNK     0      12.959  15.744  21.563  0.00  0.00     0.290 C 
HETATM   10  O   UNK     0      13.103  16.928  20.771  0.00  0.00    -0.356 OA
HETATM   11  C   UNK     0      12.686  18.119  21.435  0.00  0.00     0.205 C 
HETATM   12  C   UNK     0      11.211  18.036  21.809  0.00  0.00     0.173 C 
HETATM   13  C   UNK     0      10.948  16.818  22.696  0.00  0.00     0.182 C 
HETATM   14  C   UNK     0      11.509  15.554  22.037  0.00  0.00     0.204 C 
BRANCH  12  15
HETATM   15  O   UNK     0      10.804  19.219  22.482  0.00  0.00    -0.391 OA
HETATM   16  H   UNK     0      11.302  19.962  22.098  0.00  0.00     0.210 HD
ENDBRANCH  12  15
BRANCH  13  17
HETATM   17  O   UNK     0      11.573  17.014  23.963  0.00  0.00    -0.390 OA
HETATM   18  H   UNK     0      10.887  16.916  24.646  0.00  0.00     0.210 HD
ENDBRANCH  13  17
BRANCH  14  19
HETATM   19  O   UNK     0      10.714  15.220  20.900  0.00  0.00    -0.388 OA
HETATM   20  H   UNK     0      10.119  14.493  21.145  0.00  0.00     0.210 HD
ENDBRANCH  14  19
ENDBRANCH   8   9
ENDBRANCH   7   8
ENDBRANCH   2   7
BRANCH   6  21
HETATM   21  O   UNK     0      16.691  11.793  26.057  0.00  0.00    -0.355 OA
BRANCH  21  22
HETATM   22  C   UNK     0      15.627  11.635  26.983  0.00  0.00     0.198 C 
BRANCH  22  23
HETATM   23  C   UNK     0      15.640  12.790  27.932  0.00  0.00     0.000 C 
HETATM   24  C   UNK     0      14.647  13.042  28.799  0.00  0.00     0.009 C 
BRANCH  24  25
HETATM   25  C   UNK     0      14.623  14.157  29.761  0.00  0.00    -0.036 A 
HETATM   26  C   UNK     0      15.664  14.297  30.665  0.00  0.00     0.011 A 
HETATM   27  C   UNK     0      15.642  15.353  31.577  0.00  0.00     0.001 A 
HETATM   28  C   UNK     0      14.578  16.255  31.572  0.00  0.00     0.000 A 
HETATM   29  C   UNK     0      13.537  16.102  30.656  0.00  0.00     0.001 A 
HETATM   30  C   UNK     0      13.559  15.046  29.745  0.00  0.00     0.011 A 
ENDBRANCH  24  25
ENDBRANCH  22  23
ENDBRANCH  21  22
ENDBRANCH   6  21
BRANCH   3  31
HETATM   31  O   UNK     0      16.500  15.961  22.447  0.00  0.00    -0.390 OA
HETATM   32  H   UNK     0      16.100  16.551  23.110  0.00  0.00     0.210 HD
ENDBRANCH   3  31
BRANCH   5  33
HETATM   33  O   UNK     0      19.030  13.295  25.528  0.00  0.00    -0.388 OA
HETATM   34  H   UNK     0      19.239  14.229  25.697  0.00  0.00     0.210 HD
ENDBRANCH   5  33
BRANCH   4  35
HETATM   35  O   UNK     0      18.971  14.516  22.847  0.00  0.00    -0.390 OA
HETATM   36  H   UNK     0      18.687  15.037  22.076  0.00  0.00     0.210 HD
ENDBRANCH   4  35
TORSDOF 13
ENDMDL
MODEL 3
REMARK VINA RESULT:      -6.9     21.973     26.120
REMARK  13 active torsions:
REMARK  status: ('A' for Active; 'I' for Inactive)
REMARK    1  A    between atoms: O_2  and  C_16 
REMARK    2  A    between atoms: O_2  and  C_17 
REMARK    3  A    between atoms: O_4  and  C_12 
REMARK    4  A    between atoms: O_5  and  C_13 
REMARK    5  A    between atoms: O_6  and  C_15 
REMARK    6  A    between atoms: O_6  and  C_22 
REMARK    7  A    between atoms: O_7  and  C_14 
REMARK    8  A    between atoms: O_8  and  C_18 
REMARK    9  A    between atoms: O_9  and  C_19 
REMARK   10  A    between atoms: O_10  and  C_20 
REMARK   11  A    between atoms: C_11  and  C_16 
REMARK   12  A    between atoms: C_22  and  C_23 
REMARK   13  A    between atoms: C_24  and  C_25 
ROOT
HETATM    1  O   UNK     0      11.875  19.843   2.139  0.00  0.00    -0.348 OA
HETATM    2  C   UNK     0      12.369  21.121   1.736  0.00  0.00     0.180 C 
HETATM    3  C   UNK     0      12.742  21.949   2.969  0.00  0.00     0.180 C 
HETATM    4  C   UNK     0      11.552  22.073   3.919  0.00  0.00     0.183 C 
HETATM    5  C   UNK     0      10.920  20.709   4.197  0.00  0.00     0.204 C 
HETATM    6  C   UNK     0      10.675  19.937   2.901  0.00  0.00     0.291 C 
ENDROOT
BRANCH   2   7
HETATM    7  C   UNK     0      13.573  20.885   0.829  0.00  0.00     0.205 C 
BRANCH   7   8
HETATM    8  O   UNK     0      14.751  20.982   1.609  0.00  0.00    -0.356 OA
BRANCH   8   9
HETATM    9  C   UNK     0      15.924  20.843   0.813  0.00  0.00     0.290 C 
HETATM   10  O   UNK     0      17.032  20.349   1.574  0.00  0.00    -0.356 OA
HETATM   11  C   UNK     0      17.497  21.257   2.569  0.00  0.00     0.205 C 
HETATM   12  C   UNK     0      17.967  22.558   1.932  0.00  0.00     0.173 C 
HETATM   13  C   UNK     0      16.840  23.198   1.120  0.00  0.00     0.182 C 
HETATM   14  C   UNK     0      16.256  22.181   0.134  0.00  0.00     0.204 C 
BRANCH  12  15
HETATM   15  O   UNK     0      18.417  23.463   2.929  0.00  0.00    -0.391 OA
HETATM   16  H   UNK     0      17.875  24.268   2.862  0.00  0.00     0.210 HD
ENDBRANCH  12  15
BRANCH  13  17
HETATM   17  O   UNK     0      15.816  23.647   2.006  0.00  0.00    -0.390 OA
HETATM   18  H   UNK     0      16.066  24.534   2.316  0.00  0.00     0.210 HD
ENDBRANCH  13  17
BRANCH  14  19
HETATM   19  O   UNK     0      17.205  21.926  -0.900  0.00  0.00    -0.388 OA
HETATM   20  H   UNK     0      18.059  21.713  -0.488  0.00  0.00     0.210 HD
ENDBRANCH  14  19
ENDBRANCH   8   9
ENDBRANCH   7   8
ENDBRANCH   2   7
BRANCH   6  21
HETATM   21  O   UNK     0      10.221  18.629   3.249  0.00  0.00    -0.355 OA
BRANCH  21  22
HETATM   22  C   UNK     0       9.079  18.260   2.490  0.00  0.00     0.198 C 
BRANCH  22  23
HETATM   23  C   UNK     0       9.463  18.191   1.047  0.00  0.00     0.000 C 
HETATM   24  C   UNK     0      10.229  17.216   0.534  0.00  0.00     0.009 C 
BRANCH  24  25
HETATM   25  C   UNK     0      10.619  17.098  -0.881  0.00  0.00    -0.036 A 
HETATM   26  C   UNK     0      11.459  16.066  -1.270  0.00  0.00     0.011 A 
HETATM   27  C   UNK     0      11.830  15.954  -2.611  0.00  0.00     0.001 A 
HETATM   28  C   UNK     0      11.354  16.875  -3.544  0.00  0.00     0.000 A 
HETATM   29  C   UNK     0      10.509  17.908  -3.138  0.00  0.00     0.001 A 
HETATM   30  C   UNK     0      10.139  18.020  -1.797  0.00  0.00     0.011 A 
ENDBRANCH  24  25
ENDBRANCH  22  23
ENDBRANCH  21  22
ENDBRANCH   6  21
BRANCH   3  31
HETATM   31  O   UNK     0      13.155  23.250   2.556  0.00  0.00    -0.390 OA
HETATM   32  H   UNK     0      12.946  23.872   3.274  0.00  0.00     0.210 HD
ENDBRANCH   3  31
BRANCH   5  33
HETATM   33  O   UNK     0       9.667  20.893   4.854  0.00  0.00    -0.388 OA
HETATM   34  H   UNK     0       9.501  21.848   4.926  0.00  0.00     0.210 HD
ENDBRANCH   5  33
BRANCH   4  35
HETATM   35  O   UNK     0      12.023  22.638   5.144  0.00  0.00    -0.390 OA
HETATM   36  H   UNK     0      11.338  23.250   5.465  0.00  0.00     0.210 HD
ENDBRANCH   4  35
TORSDOF 13
ENDMDL
MODEL 4
REMARK VINA RESULT:      -6.9      2.238      3.271
REMARK  13 active torsions:
REMARK  status: ('A' for Active; 'I' for Inactive)
REMARK    1  A    between atoms: O_2  and  C_16 
REMARK    2  A    between atoms: O_2  and  C_17 
REMARK    3  A    between atoms: O_4  and  C_12 
REMARK    4  A    between atoms: O_5  and  C_13 
REMARK    5  A    between atoms: O_6  and  C_15 
REMARK    6  A    between atoms: O_6  and  C_22 
REMARK    7  A    between atoms: O_7  and  C_14 
REMARK    8  A    between atoms: O_8  and  C_18 
REMARK    9  A    between atoms: O_9  and  C_19 
REMARK   10  A    between atoms: O_10  and  C_20 
REMARK   11  A    between atoms: C_11  and  C_16 
REMARK   12  A    between atoms: C_22  and  C_23 
REMARK   13  A    between atoms: C_24  and  C_25 
ROOT
HETATM    1  O   UNK     0      31.737  28.662  21.194  0.00  0.00    -0.348 OA
HETATM    2  C   UNK     0      32.014  29.844  21.946  0.00  0.00     0.180 C 
HETATM    3  C   UNK     0      30.742  30.328  22.647  0.00  0.00     0.180 C 
HETATM    4  C   UNK     0      29.617  30.547  21.637  0.00  0.00     0.183 C 
HETATM    5  C   UNK     0      29.454  29.336  20.717  0.00  0.00     0.204 C 
HETATM    6  C   UNK     0      30.798  28.888  20.146  0.00  0.00     0.291 C 
ENDROOT
BRANCH   2   7
HETATM    7  C   UNK     0      33.117  29.507  22.945  0.00  0.00     0.205 C 
BRANCH   7   8
HETATM    8  O   UNK     0      33.380  28.118  22.873  0.00  0.00    -0.356 OA
BRANCH   8   9
HETATM    9  C   UNK     0      34.315  27.705  23.865  0.00  0.00     0.290 C 
HETATM   10  O   UNK     0      35.645  28.139  23.562  0.00  0.00    -0.356 OA
HETATM   11  C   UNK     0      36.202  27.520  22.405  0.00  0.00     0.205 C 
HETATM   12  C   UNK     0      36.280  26.010  22.588  0.00  0.00     0.173 C 
HETATM   13  C   UNK     0      34.895  25.430  22.881  0.00  0.00     0.182 C 
HETATM   14  C   UNK     0      34.245  26.181  24.048  0.00  0.00     0.204 C 
BRANCH  12  15
HETATM   15  O   UNK     0      36.823  25.398  21.428  0.00  0.00    -0.391 OA
HETATM   16  H   UNK     0      37.434  24.700  21.722  0.00  0.00     0.210 HD
ENDBRANCH  12  15
BRANCH  13  17
HETATM   17  O   UNK     0      34.077  25.554  21.719  0.00  0.00    -0.390 OA
HETATM   18  H   UNK     0      33.273  25.028  21.870  0.00  0.00     0.210 HD
ENDBRANCH  13  17
BRANCH  14  19
HETATM   19  O   UNK     0      34.922  25.851  25.259  0.00  0.00    -0.388 OA
HETATM   20  H   UNK     0      34.261  25.757  25.965  0.00  0.00     0.210 HD
ENDBRANCH  14  19
ENDBRANCH   8   9
ENDBRANCH   7   8
ENDBRANCH   2   7
BRANCH   6  21
HETATM   21  O   UNK     0      30.586  27.678  19.419  0.00  0.00    -0.355 OA
BRANCH  21  22
HETATM   22  C   UNK     0      31.538  27.527  18.378  0.00  0.00     0.198 C 
BRANCH  22  23
HETATM   23  C   UNK     0      30.811  27.326  17.087  0.00  0.00     0.000 C 
HETATM   24  C   UNK     0      31.146  26.384  16.192  0.00  0.00     0.009 C 
BRANCH  24  25
HETATM   25  C   UNK     0      30.451  26.139  14.916  0.00  0.00    -0.036 A 
HETATM   26  C   UNK     0      30.647  24.937  14.256  0.00  0.00     0.011 A 
HETATM   27  C   UNK     0      29.988  24.704  13.048  0.00  0.00     0.001 A 
HETATM   28  C   UNK     0      29.143  25.678  12.517  0.00  0.00     0.000 A 
HETATM   29  C   UNK     0      28.955  26.883  13.193  0.00  0.00     0.001 A 
HETATM   30  C   UNK     0      29.613  27.116  14.401  0.00  0.00     0.011 A 
ENDBRANCH  24  25
ENDBRANCH  22  23
ENDBRANCH  21  22
ENDBRANCH   6  21
BRANCH   3  31
HETATM   31  O   UNK     0      31.013  31.552  23.324  0.00  0.00    -0.390 OA
HETATM   32  H   UNK     0      31.780  31.409  23.906  0.00  0.00     0.210 HD
ENDBRANCH   3  31
BRANCH   5  33
HETATM   33  O   UNK     0      28.597  29.680  19.629  0.00  0.00    -0.388 OA
HETATM   34  H   UNK     0      28.684  28.993  18.947  0.00  0.00     0.210 HD
ENDBRANCH   5  33
BRANCH   4  35
HETATM   35  O   UNK     0      28.405  30.758  22.364  0.00  0.00    -0.390 OA
HETATM   36  H   UNK     0      28.618  30.687  23.310  0.00  0.00     0.210 HD
ENDBRANCH   4  35
TORSDOF 13
ENDMDL
MODEL 5
REMARK VINA RESULT:      -6.9      3.675      6.666
REMARK  13 active torsions:
REMARK  status: ('A' for Active; 'I' for Inactive)
REMARK    1  A    between atoms: O_2  and  C_16 
REMARK    2  A    between atoms: O_2  and  C_17 
REMARK    3  A    between atoms: O_4  and  C_12 
REMARK    4  A    between atoms: O_5  and  C_13 
REMARK    5  A    between atoms: O_6  and  C_15 
REMARK    6  A    between atoms: O_6  and  C_22 
REMARK    7  A    between atoms: O_7  and  C_14 
REMARK    8  A    between atoms: O_8  and  C_18 
REMARK    9  A    between atoms: O_9  and  C_19 
REMARK   10  A    between atoms: O_10  and  C_20 
REMARK   11  A    between atoms: C_11  and  C_16 
REMARK   12  A    between atoms: C_22  and  C_23 
REMARK   13  A    between atoms: C_24  and  C_25 
ROOT
HETATM    1  O   UNK     0      29.204  31.243  18.613  0.00  0.00    -0.348 OA
HETATM    2  C   UNK     0      28.892  32.478  19.261  0.00  0.00     0.180 C 
HETATM    3  C   UNK     0      29.791  32.668  20.485  0.00  0.00     0.180 C 
HETATM    4  C   UNK     0      29.669  31.479  21.437  0.00  0.00     0.183 C 
HETATM    5  C   UNK     0      29.826  30.153  20.692  0.00  0.00     0.204 C 
HETATM    6  C   UNK     0      28.949  30.112  19.441  0.00  0.00     0.291 C 
ENDROOT
BRANCH   2   7
HETATM    7  C   UNK     0      29.084  33.595  18.240  0.00  0.00     0.205 C 
BRANCH   7   8
HETATM    8  O   UNK     0      28.395  34.745  18.696  0.00  0.00    -0.356 OA
BRANCH   8   9
HETATM    9  C   UNK     0      29.215  35.908  18.640  0.00  0.00     0.290 C 
HETATM   10  O   UNK     0      29.186  36.645  19.868  0.00  0.00    -0.356 OA
HETATM   11  C   UNK     0      27.919  37.231  20.157  0.00  0.00     0.205 C 
HETATM   12  C   UNK     0      27.520  38.214  19.063  0.00  0.00     0.173 C 
HETATM   13  C   UNK     0      27.481  37.519  17.701  0.00  0.00     0.182 C 
HETATM   14  C   UNK     0      28.801  36.783  17.447  0.00  0.00     0.204 C 
BRANCH  12  15
HETATM   15  O   UNK     0      26.252  38.785  19.349  0.00  0.00    -0.391 OA
HETATM   16  H   UNK     0      26.328  39.747  19.223  0.00  0.00     0.210 HD
ENDBRANCH  12  15
BRANCH  13  17
HETATM   17  O   UNK     0      26.402  36.585  17.679  0.00  0.00    -0.390 OA
HETATM   18  H   UNK     0      26.788  35.693  17.631  0.00  0.00     0.210 HD
ENDBRANCH  13  17
BRANCH  14  19
HETATM   19  O   UNK     0      29.837  37.736  17.218  0.00  0.00    -0.388 OA
HETATM   20  H   UNK     0      29.470  38.470  16.699  0.00  0.00     0.210 HD
ENDBRANCH  14  19
ENDBRANCH   8   9
ENDBRANCH   7   8
ENDBRANCH   2   7
BRANCH   6  21
HETATM   21  O   UNK     0      29.255  28.914  18.729  0.00  0.00    -0.355 OA
BRANCH  21  22
HETATM   22  C   UNK     0      30.136  29.168  17.645  0.00  0.00     0.198 C 
BRANCH  22  23
HETATM   23  C   UNK     0      29.684  28.375  16.462  0.00  0.00     0.000 C 
HETATM   24  C   UNK     0      30.500  27.580  15.752  0.00  0.00     0.009 C 
BRANCH  24  25
HETATM   25  C   UNK     0      30.096  26.769  14.590  0.00  0.00    -0.036 A 
HETATM   26  C   UNK     0      30.717  25.551  14.364  0.00  0.00     0.011 A 
HETATM   27  C   UNK     0      30.336  24.782  13.264  0.00  0.00     0.001 A 
HETATM   28  C   UNK     0      29.338  25.243  12.405  0.00  0.00     0.000 A 
HETATM   29  C   UNK     0      28.722  26.470  12.646  0.00  0.00     0.001 A 
HETATM   30  C   UNK     0      29.103  27.239  13.746  0.00  0.00     0.011 A 
ENDBRANCH  24  25
ENDBRANCH  22  23
ENDBRANCH  21  22
ENDBRANCH   6  21
BRANCH   3  31
HETATM   31  O   UNK     0      29.413  33.861  21.167  0.00  0.00    -0.390 OA
HETATM   32  H   UNK     0      29.938  33.918  21.984  0.00  0.00     0.210 HD
ENDBRANCH   3  31
BRANCH   5  33
HETATM   33  O   UNK     0      29.436  29.080  21.548  0.00  0.00    -0.388 OA
HETATM   34  H   UNK     0      28.592  28.726  21.224  0.00  0.00     0.210 HD
ENDBRANCH   5  33
BRANCH   4  35
HETATM   35  O   UNK     0      30.696  31.596  22.423  0.00  0.00    -0.390 OA
HETATM   36  H   UNK     0      30.863  30.705  22.776  0.00  0.00     0.210 HD
ENDBRANCH   4  35
TORSDOF 13
ENDMDL
MODEL 6
REMARK VINA RESULT:      -6.8     22.359     26.445
REMARK  13 active torsions:
REMARK  status: ('A' for Active; 'I' for Inactive)
REMARK    1  A    between atoms: O_2  and  C_16 
REMARK    2  A    between atoms: O_2  and  C_17 
REMARK    3  A    between atoms: O_4  and  C_12 
REMARK    4  A    between atoms: O_5  and  C_13 
REMARK    5  A    between atoms: O_6  and  C_15 
REMARK    6  A    between atoms: O_6  and  C_22 
REMARK    7  A    between atoms: O_7  and  C_14 
REMARK    8  A    between atoms: O_8  and  C_18 
REMARK    9  A    between atoms: O_9  and  C_19 
REMARK   10  A    between atoms: O_10  and  C_20 
REMARK   11  A    between atoms: C_11  and  C_16 
REMARK   12  A    between atoms: C_22  and  C_23 
REMARK   13  A    between atoms: C_24  and  C_25 
ROOT
HETATM    1  O   UNK     0      11.825  19.756   2.225  0.00  0.00    -0.348 OA
HETATM    2  C   UNK     0      12.330  21.020   1.791  0.00  0.00     0.180 C 
HETATM    3  C   UNK     0      12.712  21.874   3.003  0.00  0.00     0.180 C 
HETATM    4  C   UNK     0      11.524  22.032   3.950  0.00  0.00     0.183 C 
HETATM    5  C   UNK     0      10.880  20.681   4.262  0.00  0.00     0.204 C 
HETATM    6  C   UNK     0      10.626  19.879   2.986  0.00  0.00     0.291 C 
ENDROOT
BRANCH   2   7
HETATM    7  C   UNK     0      13.531  20.751   0.889  0.00  0.00     0.205 C 
BRANCH   7   8
HETATM    8  O   UNK     0      14.713  20.941   1.645  0.00  0.00    -0.356 OA
BRANCH   8   9
HETATM    9  C   UNK     0      15.881  20.798   0.842  0.00  0.00     0.290 C 
HETATM   10  O   UNK     0      16.995  20.311   1.599  0.00  0.00    -0.356 OA
HETATM   11  C   UNK     0      17.465  21.228   2.584  0.00  0.00     0.205 C 
HETATM   12  C   UNK     0      17.929  22.525   1.934  0.00  0.00     0.173 C 
HETATM   13  C   UNK     0      16.795  23.157   1.124  0.00  0.00     0.182 C 
HETATM   14  C   UNK     0      16.207  22.131   0.151  0.00  0.00     0.204 C 
BRANCH  12  15
HETATM   15  O   UNK     0      18.384  23.439   2.921  0.00  0.00    -0.391 OA
HETATM   16  H   UNK     0      18.960  24.087   2.479  0.00  0.00     0.210 HD
ENDBRANCH  12  15
BRANCH  13  17
HETATM   17  O   UNK     0      15.776  23.610   2.014  0.00  0.00    -0.390 OA
HETATM   18  H   UNK     0      15.179  24.187   1.507  0.00  0.00     0.210 HD
ENDBRANCH  13  17
BRANCH  14  19
HETATM   19  O   UNK     0      17.148  21.870  -0.888  0.00  0.00    -0.388 OA
HETATM   20  H   UNK     0      17.830  21.270  -0.541  0.00  0.00     0.210 HD
ENDBRANCH  14  19
ENDBRANCH   8   9
ENDBRANCH   7   8
ENDBRANCH   2   7
BRANCH   6  21
HETATM   21  O   UNK     0      10.161  18.584   3.365  0.00  0.00    -0.355 OA
BRANCH  21  22
HETATM   22  C   UNK     0       8.987  18.228   2.652  0.00  0.00     0.198 C 
BRANCH  22  23
HETATM   23  C   UNK     0       8.832  19.154   1.489  0.00  0.00     0.000 C 
HETATM   24  C   UNK     0       7.731  19.196   0.722  0.00  0.00     0.009 C 
BRANCH  24  25
HETATM   25  C   UNK     0       7.526  20.100  -0.422  0.00  0.00    -0.036 A 
HETATM   26  C   UNK     0       6.399  20.905  -0.459  0.00  0.00     0.011 A 
HETATM   27  C   UNK     0       6.205  21.762  -1.542  0.00  0.00     0.001 A 
HETATM   28  C   UNK     0       7.141  21.803  -2.575  0.00  0.00     0.000 A 
HETATM   29  C   UNK     0       8.271  20.987  -2.524  0.00  0.00     0.001 A 
HETATM   30  C   UNK     0       8.466  20.130  -1.441  0.00  0.00     0.011 A 
ENDBRANCH  24  25
ENDBRANCH  22  23
ENDBRANCH  21  22
ENDBRANCH   6  21
BRANCH   3  31
HETATM   31  O   UNK     0      13.135  23.161   2.558  0.00  0.00    -0.390 OA
HETATM   32  H   UNK     0      12.359  23.624   2.199  0.00  0.00     0.210 HD
ENDBRANCH   3  31
BRANCH   5  33
HETATM   33  O   UNK     0       9.628  20.892   4.915  0.00  0.00    -0.388 OA
HETATM   34  H   UNK     0       9.070  21.430   4.330  0.00  0.00     0.210 HD
ENDBRANCH   5  33
BRANCH   4  35
HETATM   35  O   UNK     0      12.000  22.623   5.161  0.00  0.00    -0.390 OA
HETATM   36  H   UNK     0      12.018  21.925   5.838  0.00  0.00     0.210 HD
ENDBRANCH   4  35
TORSDOF 13
ENDMDL
MODEL 7
REMARK VINA RESULT:      -6.7      4.606      7.335
REMARK  13 active torsions:
REMARK  status: ('A' for Active; 'I' for Inactive)
REMARK    1  A    between atoms: O_2  and  C_16 
REMARK    2  A    between atoms: O_2  and  C_17 
REMARK    3  A    between atoms: O_4  and  C_12 
REMARK    4  A    between atoms: O_5  and  C_13 
REMARK    5  A    between atoms: O_6  and  C_15 
REMARK    6  A    between atoms: O_6  and  C_22 
REMARK    7  A    between atoms: O_7  and  C_14 
REMARK    8  A    between atoms: O_8  and  C_18 
REMARK    9  A    between atoms: O_9  and  C_19 
REMARK   10  A    between atoms: O_10  and  C_20 
REMARK   11  A    between atoms: C_11  and  C_16 
REMARK   12  A    between atoms: C_22  and  C_23 
REMARK   13  A    between atoms: C_24  and  C_25 
ROOT
HETATM    1  O   UNK     0      29.630  31.789  16.780  0.00  0.00    -0.348 OA
HETATM    2  C   UNK     0      28.643  32.648  16.207  0.00  0.00     0.180 C 
HETATM    3  C   UNK     0      27.550  32.947  17.236  0.00  0.00     0.180 C 
HETATM    4  C   UNK     0      26.937  31.652  17.768  0.00  0.00     0.183 C 
HETATM    5  C   UNK     0      28.021  30.667  18.210  0.00  0.00     0.204 C 
HETATM    6  C   UNK     0      29.103  30.516  17.143  0.00  0.00     0.291 C 
ENDROOT
BRANCH   2   7
HETATM    7  C   UNK     0      29.349  33.920  15.747  0.00  0.00     0.205 C 
BRANCH   7   8
HETATM    8  O   UNK     0      28.597  34.498  14.697  0.00  0.00    -0.356 OA
BRANCH   8   9
HETATM    9  C   UNK     0      29.436  35.045  13.685  0.00  0.00     0.290 C 
HETATM   10  O   UNK     0      29.662  36.446  13.875  0.00  0.00    -0.356 OA
HETATM   11  C   UNK     0      28.493  37.245  13.705  0.00  0.00     0.205 C 
HETATM   12  C   UNK     0      27.939  37.092  12.295  0.00  0.00     0.173 C 
HETATM   13  C   UNK     0      27.623  35.626  11.996  0.00  0.00     0.182 C 
HETATM   14  C   UNK     0      28.844  34.751  12.298  0.00  0.00     0.204 C 
BRANCH  12  15
HETATM   15  O   UNK     0      26.767  37.880  12.135  0.00  0.00    -0.391 OA
HETATM   16  H   UNK     0      26.358  37.979  13.013  0.00  0.00     0.210 HD
ENDBRANCH  12  15
BRANCH  13  17
HETATM   17  O   UNK     0      26.523  35.207  12.802  0.00  0.00    -0.390 OA
HETATM   18  H   UNK     0      26.780  34.376  13.239  0.00  0.00     0.210 HD
ENDBRANCH  13  17
BRANCH  14  19
HETATM   19  O   UNK     0      29.856  34.998  11.324  0.00  0.00    -0.388 OA
HETATM   20  H   UNK     0      29.528  35.673  10.706  0.00  0.00     0.210 HD
ENDBRANCH  14  19
ENDBRANCH   8   9
ENDBRANCH   7   8
ENDBRANCH   2   7
BRANCH   6  21
HETATM   21  O   UNK     0      30.142  29.700  17.682  0.00  0.00    -0.355 OA
BRANCH  21  22
HETATM   22  C   UNK     0      31.126  29.402  16.704  0.00  0.00     0.198 C 
BRANCH  22  23
HETATM   23  C   UNK     0      30.484  28.633  15.595  0.00  0.00     0.000 C 
HETATM   24  C   UNK     0      30.847  27.386  15.257  0.00  0.00     0.009 C 
BRANCH  24  25
HETATM   25  C   UNK     0      30.235  26.584  14.184  0.00  0.00    -0.036 A 
HETATM   26  C   UNK     0      29.183  27.116  13.455  0.00  0.00     0.011 A 
HETATM   27  C   UNK     0      28.603  26.357  12.438  0.00  0.00     0.001 A 
HETATM   28  C   UNK     0      29.083  25.077  12.163  0.00  0.00     0.000 A 
HETATM   29  C   UNK     0      30.143  24.555  12.904  0.00  0.00     0.001 A 
HETATM   30  C   UNK     0      30.723  25.314  13.922  0.00  0.00     0.011 A 
ENDBRANCH  24  25
ENDBRANCH  22  23
ENDBRANCH  21  22
ENDBRANCH   6  21
BRANCH   3  31
HETATM   31  O   UNK     0      26.531  33.735  16.626  0.00  0.00    -0.390 OA
HETATM   32  H   UNK     0      26.813  34.666  16.657  0.00  0.00     0.210 HD
ENDBRANCH   3  31
BRANCH   5  33
HETATM   33  O   UNK     0      27.432  29.387  18.438  0.00  0.00    -0.388 OA
HETATM   34  H   UNK     0      27.863  28.990  19.213  0.00  0.00     0.210 HD
ENDBRANCH   5  33
BRANCH   4  35
HETATM   35  O   UNK     0      26.109  31.981  18.884  0.00  0.00    -0.390 OA
HETATM   36  H   UNK     0      25.266  31.509  18.771  0.00  0.00     0.210 HD
ENDBRANCH   4  35
TORSDOF 13
ENDMDL
MODEL 8
REMARK VINA RESULT:      -6.6     20.487     23.588
REMARK  13 active torsions:
REMARK  status: ('A' for Active; 'I' for Inactive)
REMARK    1  A    between atoms: O_2  and  C_16 
REMARK    2  A    between atoms: O_2  and  C_17 
REMARK    3  A    between atoms: O_4  and  C_12 
REMARK    4  A    between atoms: O_5  and  C_13 
REMARK    5  A    between atoms: O_6  and  C_15 
REMARK    6  A    between atoms: O_6  and  C_22 
REMARK    7  A    between atoms: O_7  and  C_14 
REMARK    8  A    between atoms: O_8  and  C_18 
REMARK    9  A    between atoms: O_9  and  C_19 
REMARK   10  A    between atoms: O_10  and  C_20 
REMARK   11  A    between atoms: C_11  and  C_16 
REMARK   12  A    between atoms: C_22  and  C_23 
REMARK   13  A    between atoms: C_24  and  C_25 
ROOT
HETATM    1  O   UNK     0      32.941  13.198   1.236  0.00  0.00    -0.348 OA
HETATM    2  C   UNK     0      32.215  12.697   0.113  0.00  0.00     0.180 C 
HETATM    3  C   UNK     0      31.702  11.286   0.410  0.00  0.00     0.180 C 
HETATM    4  C   UNK     0      32.854  10.361   0.801  0.00  0.00     0.183 C 
HETATM    5  C   UNK     0      33.731  10.995   1.882  0.00  0.00     0.204 C 
HETATM    6  C   UNK     0      34.108  12.431   1.520  0.00  0.00     0.291 C 
ENDROOT
BRANCH   2   7
HETATM    7  C   UNK     0      31.071  13.668  -0.166  0.00  0.00     0.205 C 
BRANCH   7   8
HETATM    8  O   UNK     0      29.856  13.056   0.227  0.00  0.00    -0.356 OA
BRANCH   8   9
HETATM    9  C   UNK     0      29.058  13.928   1.020  0.00  0.00     0.290 C 
HETATM   10  O   UNK     0      29.680  14.233   2.273  0.00  0.00    -0.356 OA
HETATM   11  C   UNK     0      29.791  13.113   3.148  0.00  0.00     0.205 C 
HETATM   12  C   UNK     0      28.413  12.555   3.483  0.00  0.00     0.173 C 
HETATM   13  C   UNK     0      27.668  12.157   2.207  0.00  0.00     0.182 C 
HETATM   14  C   UNK     0      27.659  13.325   1.216  0.00  0.00     0.204 C 
BRANCH  12  15
HETATM   15  O   UNK     0      28.530  11.431   4.343  0.00  0.00    -0.391 OA
HETATM   16  H   UNK     0      27.717  11.383   4.876  0.00  0.00     0.210 HD
ENDBRANCH  12  15
BRANCH  13  17
HETATM   17  O   UNK     0      28.316  11.032   1.615  0.00  0.00    -0.390 OA
HETATM   18  H   UNK     0      27.639  10.352   1.460  0.00  0.00     0.210 HD
ENDBRANCH  13  17
BRANCH  14  19
HETATM   19  O   UNK     0      26.799  14.353   1.704  0.00  0.00    -0.388 OA
HETATM   20  H   UNK     0      26.024  14.407   1.120  0.00  0.00     0.210 HD
ENDBRANCH  14  19
ENDBRANCH   8   9
ENDBRANCH   7   8
ENDBRANCH   2   7
BRANCH   6  21
HETATM   21  O   UNK     0      34.800  12.997   2.632  0.00  0.00    -0.355 OA
BRANCH  21  22
HETATM   22  C   UNK     0      34.785  14.415   2.581  0.00  0.00     0.198 C 
BRANCH  22  23
HETATM   23  C   UNK     0      36.145  14.923   2.942  0.00  0.00     0.000 C 
HETATM   24  C   UNK     0      36.390  16.199   3.276  0.00  0.00     0.009 C 
BRANCH  24  25
HETATM   25  C   UNK     0      37.707  16.741   3.652  0.00  0.00    -0.036 A 
HETATM   26  C   UNK     0      37.849  18.105   3.850  0.00  0.00     0.011 A 
HETATM   27  C   UNK     0      39.096  18.619   4.207  0.00  0.00     0.001 A 
HETATM   28  C   UNK     0      40.185  17.761   4.361  0.00  0.00     0.000 A 
HETATM   29  C   UNK     0      40.027  16.390   4.158  0.00  0.00     0.001 A 
HETATM   30  C   UNK     0      38.779  15.876   3.802  0.00  0.00     0.011 A 
ENDBRANCH  24  25
ENDBRANCH  22  23
ENDBRANCH  21  22
ENDBRANCH   6  21
BRANCH   3  31
HETATM   31  O   UNK     0      31.052  10.767  -0.747  0.00  0.00    -0.390 OA
HETATM   32  H   UNK     0      30.117  11.033  -0.710  0.00  0.00     0.210 HD
ENDBRANCH   3  31
BRANCH   5  33
HETATM   33  O   UNK     0      34.932  10.237   2.020  0.00  0.00    -0.388 OA
HETATM   34  H   UNK     0      35.622  10.663   1.484  0.00  0.00     0.210 HD
ENDBRANCH   5  33
BRANCH   4  35
HETATM   35  O   UNK     0      32.294   9.143   1.295  0.00  0.00    -0.390 OA
HETATM   36  H   UNK     0      33.031   8.532   1.465  0.00  0.00     0.210 HD
ENDBRANCH   4  35
TORSDOF 13
ENDMDL
MODEL 9
REMARK VINA RESULT:      -6.5     20.341     23.994
REMARK  13 active torsions:
REMARK  status: ('A' for Active; 'I' for Inactive)
REMARK    1  A    between atoms: O_2  and  C_16 
REMARK    2  A    between atoms: O_2  and  C_17 
REMARK    3  A    between atoms: O_4  and  C_12 
REMARK    4  A    between atoms: O_5  and  C_13 
REMARK    5  A    between atoms: O_6  and  C_15 
REMARK    6  A    between atoms: O_6  and  C_22 
REMARK    7  A    between atoms: O_7  and  C_14 
REMARK    8  A    between atoms: O_8  and  C_18 
REMARK    9  A    between atoms: O_9  and  C_19 
REMARK   10  A    between atoms: O_10  and  C_20 
REMARK   11  A    between atoms: C_11  and  C_16 
REMARK   12  A    between atoms: C_22  and  C_23 
REMARK   13  A    between atoms: C_24  and  C_25 
ROOT
HETATM    1  O   UNK     0      31.201  12.590   0.518  0.00  0.00    -0.348 OA
HETATM    2  C   UNK     0      30.859  11.599  -0.453  0.00  0.00     0.180 C 
HETATM    3  C   UNK     0      31.040  10.201   0.143  0.00  0.00     0.180 C 
HETATM    4  C   UNK     0      32.462  10.014   0.669  0.00  0.00     0.183 C 
HETATM    5  C   UNK     0      32.878  11.181   1.565  0.00  0.00     0.204 C 
HETATM    6  C   UNK     0      32.571  12.525   0.907  0.00  0.00     0.291 C 
ENDROOT
BRANCH   2   7
HETATM    7  C   UNK     0      29.416  11.851  -0.879  0.00  0.00     0.205 C 
BRANCH   7   8
HETATM    8  O   UNK     0      28.830  12.762   0.032  0.00  0.00    -0.356 OA
BRANCH   8   9
HETATM    9  C   UNK     0      27.757  12.168   0.756  0.00  0.00     0.290 C 
HETATM   10  O   UNK     0      26.686  13.092   0.981  0.00  0.00    -0.356 OA
HETATM   11  C   UNK     0      27.027  14.166   1.853  0.00  0.00     0.205 C 
HETATM   12  C   UNK     0      27.426  13.638   3.225  0.00  0.00     0.173 C 
HETATM   13  C   UNK     0      28.598  12.662   3.107  0.00  0.00     0.182 C 
HETATM   14  C   UNK     0      28.279  11.576   2.074  0.00  0.00     0.204 C 
BRANCH  12  15
HETATM   15  O   UNK     0      27.777  14.711   4.086  0.00  0.00    -0.391 OA
HETATM   16  H   UNK     0      28.607  14.470   4.534  0.00  0.00     0.210 HD
ENDBRANCH  12  15
BRANCH  13  17
HETATM   17  O   UNK     0      29.766  13.376   2.704  0.00  0.00    -0.390 OA
HETATM   18  H   UNK     0      29.644  14.306   2.961  0.00  0.00     0.210 HD
ENDBRANCH  13  17
BRANCH  14  19
HETATM   19  O   UNK     0      27.275  10.708   2.596  0.00  0.00    -0.388 OA
HETATM   20  H   UNK     0      27.648   9.813   2.663  0.00  0.00     0.210 HD
ENDBRANCH  14  19
ENDBRANCH   8   9
ENDBRANCH   7   8
ENDBRANCH   2   7
BRANCH   6  21
HETATM   21  O   UNK     0      32.853  13.554   1.854  0.00  0.00    -0.355 OA
BRANCH  21  22
HETATM   22  C   UNK     0      32.978  14.818   1.223  0.00  0.00     0.198 C 
BRANCH  22  23
HETATM   23  C   UNK     0      34.275  15.436   1.638  0.00  0.00     0.000 C 
HETATM   24  C   UNK     0      35.199  14.790   2.365  0.00  0.00     0.009 C 
BRANCH  24  25
HETATM   25  C   UNK     0      36.495  15.352   2.784  0.00  0.00    -0.036 A 
HETATM   26  C   UNK     0      37.651  14.612   2.589  0.00  0.00     0.011 A 
HETATM   27  C   UNK     0      38.878  15.144   2.986  0.00  0.00     0.001 A 
HETATM   28  C   UNK     0      38.933  16.409   3.571  0.00  0.00     0.000 A 
HETATM   29  C   UNK     0      37.762  17.142   3.760  0.00  0.00     0.001 A 
HETATM   30  C   UNK     0      36.534  16.610   3.363  0.00  0.00     0.011 A 
ENDBRANCH  24  25
ENDBRANCH  22  23
ENDBRANCH  21  22
ENDBRANCH   6  21
BRANCH   3  31
HETATM   31  O   UNK     0      30.775   9.224  -0.861  0.00  0.00    -0.390 OA
HETATM   32  H   UNK     0      30.460   9.688  -1.656  0.00  0.00     0.210 HD
ENDBRANCH   3  31
BRANCH   5  33
HETATM   33  O   UNK     0      34.283  11.112   1.809  0.00  0.00    -0.388 OA
HETATM   34  H   UNK     0      34.744  11.278   0.970  0.00  0.00     0.210 HD
ENDBRANCH   5  33
BRANCH   4  35
HETATM   35  O   UNK     0      32.499   8.800   1.420  0.00  0.00    -0.390 OA
HETATM   36  H   UNK     0      31.735   8.806   2.021  0.00  0.00     0.210 HD
ENDBRANCH   4  35
TORSDOF 13
ENDMDL
