MODEL 1
REMARK VINA RESULT:      -7.7      0.000      0.000
REMARK  10 active torsions:
REMARK  status: ('A' for Active; 'I' for Inactive)
REMARK    1  A    between atoms: O_2  and  C_12 
REMARK    2  A    between atoms: O_2  and  C_14 
REMARK    3  A    between atoms: O_3  and  C_8 
REMARK    4  A    between atoms: O_4  and  C_9 
REMARK    5  A    between atoms: O_5  and  C_10 
REMARK    6  A    between atoms: O_6  and  C_13 
REMARK    7  A    between atoms: O_7  and  C_21 
REMARK    8  A    between atoms: C_11  and  C_13 
REMARK    9  A    between atoms: C_14  and  C_15 
REMARK   10  A    between atoms: C_15  and  C_16 
ROOT
HETATM    1  O   UNK     0     182.215 176.177 179.019  0.00  0.00    -0.348 OA
HETATM    2  C   UNK     0     181.605 178.379 177.278  0.00  0.00     0.183 C 
HETATM    3  C   UNK     0     180.943 177.008 177.130  0.00  0.00     0.180 C 
HETATM    4  C   UNK     0     182.934 178.273 178.026  0.00  0.00     0.204 C 
HETATM    5  C   UNK     0     180.898 176.279 178.475  0.00  0.00     0.179 C 
HETATM    6  C   UNK     0     182.789 177.451 179.306  0.00  0.00     0.291 C 
ENDROOT
BRANCH   5   7
HETATM    7  C   UNK     0     180.350 174.863 178.332  0.00  0.00     0.198 C 
BRANCH   7   8
HETATM    8  O   UNK     0     181.284 173.958 178.890  0.00  0.00    -0.398 OA
HETATM    9  H   UNK     0     181.877 173.670 178.175  0.00  0.00     0.209 HD
ENDBRANCH   7   8
ENDBRANCH   5   7
BRANCH   6  10
HETATM   10  O   UNK     0     184.089 177.278 179.867  0.00  0.00    -0.358 OA
BRANCH  10  11
HETATM   11  C   UNK     0     184.916 176.492 179.022  0.00  0.00     0.175 C 
BRANCH  11  12
HETATM   12  C   UNK     0     186.248 177.199 178.803  0.00  0.00     0.065 C 
BRANCH  12  13
HETATM   13  C   UNK     0     187.303 176.276 178.243  0.00  0.00    -0.056 A 
HETATM   14  C   UNK     0     186.923 175.059 177.703  0.00  0.00     0.010 A 
HETATM   15  C   UNK     0     187.897 174.205 177.186  0.00  0.00     0.037 A 
HETATM   16  C   UNK     0     189.241 174.581 177.217  0.00  0.00     0.065 A 
HETATM   17  C   UNK     0     189.609 175.810 177.764  0.00  0.00     0.037 A 
HETATM   18  C   UNK     0     188.633 176.663 178.281  0.00  0.00     0.010 A 
BRANCH  16  19
HETATM   19  O   UNK     0     190.191 173.748 176.712  0.00  0.00    -0.361 OA
HETATM   20  H   UNK     0     190.964 173.757 177.302  0.00  0.00     0.217 HD
ENDBRANCH  16  19
ENDBRANCH  12  13
ENDBRANCH  11  12
ENDBRANCH  10  11
ENDBRANCH   6  10
BRANCH   3  21
HETATM   21  O   UNK     0     179.616 177.176 176.641  0.00  0.00    -0.390 OA
HETATM   22  H   UNK     0     178.999 176.908 177.343  0.00  0.00     0.210 HD
ENDBRANCH   3  21
BRANCH   4  23
HETATM   23  O   UNK     0     183.382 179.581 178.384  0.00  0.00    -0.388 OA
HETATM   24  H   UNK     0     183.088 179.762 179.293  0.00  0.00     0.210 HD
ENDBRANCH   4  23
BRANCH   2  25
HETATM   25  O   UNK     0     181.836 178.901 175.969  0.00  0.00    -0.390 OA
HETATM   26  H   UNK     0     181.242 178.431 175.359  0.00  0.00     0.210 HD
ENDBRANCH   2  25
TORSDOF 10
ENDMDL
MODEL 2
REMARK VINA RESULT:      -7.6      2.185      7.634
REMARK  10 active torsions:
REMARK  status: ('A' for Active; 'I' for Inactive)
REMARK    1  A    between atoms: O_2  and  C_12 
REMARK    2  A    between atoms: O_2  and  C_14 
REMARK    3  A    between atoms: O_3  and  C_8 
REMARK    4  A    between atoms: O_4  and  C_9 
REMARK    5  A    between atoms: O_5  and  C_10 
REMARK    6  A    between atoms: O_6  and  C_13 
REMARK    7  A    between atoms: O_7  and  C_21 
REMARK    8  A    between atoms: C_11  and  C_13 
REMARK    9  A    between atoms: C_14  and  C_15 
REMARK   10  A    between atoms: C_15  and  C_16 
ROOT
HETATM    1  O   UNK     0     188.112 175.352 179.080  0.00  0.00    -0.348 OA
HETATM    2  C   UNK     0     190.214 176.819 177.784  0.00  0.00     0.183 C 
HETATM    3  C   UNK     0     190.416 175.406 178.333  0.00  0.00     0.180 C 
HETATM    4  C   UNK     0     189.034 177.513 178.467  0.00  0.00     0.204 C 
HETATM    5  C   UNK     0     189.097 174.631 178.339  0.00  0.00     0.179 C 
HETATM    6  C   UNK     0     187.799 176.613 178.493  0.00  0.00     0.291 C 
ENDROOT
BRANCH   5   7
HETATM    7  C   UNK     0     189.250 173.261 178.990  0.00  0.00     0.198 C 
BRANCH   7   8
HETATM    8  O   UNK     0     190.357 173.300 179.871  0.00  0.00    -0.398 OA
HETATM    9  H   UNK     0     190.117 172.798 180.668  0.00  0.00     0.209 HD
ENDBRANCH   7   8
ENDBRANCH   5   7
BRANCH   6  10
HETATM   10  O   UNK     0     186.794 177.268 179.265  0.00  0.00    -0.358 OA
BRANCH  10  11
HETATM   11  C   UNK     0     185.609 177.468 178.509  0.00  0.00     0.175 C 
BRANCH  11  12
HETATM   12  C   UNK     0     184.393 177.376 179.424  0.00  0.00     0.065 C 
BRANCH  12  13
HETATM   13  C   UNK     0     183.097 177.586 178.678  0.00  0.00    -0.056 A 
HETATM   14  C   UNK     0     181.907 177.181 179.258  0.00  0.00     0.010 A 
HETATM   15  C   UNK     0     180.710 177.375 178.568  0.00  0.00     0.037 A 
HETATM   16  C   UNK     0     180.720 177.972 177.307  0.00  0.00     0.065 A 
HETATM   17  C   UNK     0     181.927 178.375 176.736  0.00  0.00     0.037 A 
HETATM   18  C   UNK     0     183.123 178.181 177.426  0.00  0.00     0.010 A 
BRANCH  16  19
HETATM   19  O   UNK     0     179.552 178.161 176.635  0.00  0.00    -0.361 OA
HETATM   20  H   UNK     0     179.742 178.605 175.791  0.00  0.00     0.217 HD
ENDBRANCH  16  19
ENDBRANCH  12  13
ENDBRANCH  11  12
ENDBRANCH  10  11
ENDBRANCH   6  10
BRANCH   3  21
HETATM   21  O   UNK     0     191.364 174.718 177.520  0.00  0.00    -0.390 OA
HETATM   22  H   UNK     0     191.219 173.763 177.633  0.00  0.00     0.210 HD
ENDBRANCH   3  21
BRANCH   4  23
HETATM   23  O   UNK     0     188.705 178.703 177.750  0.00  0.00    -0.388 OA
HETATM   24  H   UNK     0     188.047 178.474 177.071  0.00  0.00     0.210 HD
ENDBRANCH   4  23
BRANCH   2  25
HETATM   25  O   UNK     0     191.408 177.563 178.027  0.00  0.00    -0.390 OA
HETATM   26  H   UNK     0     191.720 177.901 177.170  0.00  0.00     0.210 HD
ENDBRANCH   2  25
TORSDOF 10
ENDMDL
MODEL 3
REMARK VINA RESULT:      -7.6      2.824      7.656
REMARK  10 active torsions:
REMARK  status: ('A' for Active; 'I' for Inactive)
REMARK    1  A    between atoms: O_2  and  C_12 
REMARK    2  A    between atoms: O_2  and  C_14 
REMARK    3  A    between atoms: O_3  and  C_8 
REMARK    4  A    between atoms: O_4  and  C_9 
REMARK    5  A    between atoms: O_5  and  C_10 
REMARK    6  A    between atoms: O_6  and  C_13 
REMARK    7  A    between atoms: O_7  and  C_21 
REMARK    8  A    between atoms: C_11  and  C_13 
REMARK    9  A    between atoms: C_14  and  C_15 
REMARK   10  A    between atoms: C_15  and  C_16 
ROOT
HETATM    1  O   UNK     0     189.933 175.620 180.145  0.00  0.00    -0.348 OA
HETATM    2  C   UNK     0     189.792 173.821 177.910  0.00  0.00     0.183 C 
HETATM    3  C   UNK     0     190.617 175.109 177.877  0.00  0.00     0.180 C 
HETATM    4  C   UNK     0     188.690 173.898 178.968  0.00  0.00     0.204 C 
HETATM    5  C   UNK     0     191.067 175.502 179.285  0.00  0.00     0.179 C 
HETATM    6  C   UNK     0     189.238 174.385 180.308  0.00  0.00     0.291 C 
ENDROOT
BRANCH   5   7
HETATM    7  C   UNK     0     191.791 176.844 179.293  0.00  0.00     0.198 C 
BRANCH   7   8
HETATM    8  O   UNK     0     191.636 177.448 178.022  0.00  0.00    -0.398 OA
HETATM    9  H   UNK     0     191.828 176.773 177.349  0.00  0.00     0.209 HD
ENDBRANCH   7   8
ENDBRANCH   5   7
BRANCH   6  10
HETATM   10  O   UNK     0     188.135 174.567 181.194  0.00  0.00    -0.358 OA
BRANCH  10  11
HETATM   11  C   UNK     0     187.865 175.944 181.408  0.00  0.00     0.175 C 
BRANCH  11  12
HETATM   12  C   UNK     0     186.359 176.172 181.459  0.00  0.00     0.065 C 
BRANCH  12  13
HETATM   13  C   UNK     0     185.807 176.654 180.139  0.00  0.00    -0.056 A 
HETATM   14  C   UNK     0     186.680 176.960 179.108  0.00  0.00     0.010 A 
HETATM   15  C   UNK     0     186.169 177.405 177.889  0.00  0.00     0.037 A 
HETATM   16  C   UNK     0     184.791 177.540 177.718  0.00  0.00     0.065 A 
HETATM   17  C   UNK     0     183.924 177.228 178.764  0.00  0.00     0.037 A 
HETATM   18  C   UNK     0     184.435 176.783 179.983  0.00  0.00     0.010 A 
BRANCH  16  19
HETATM   19  O   UNK     0     184.293 177.975 176.527  0.00  0.00    -0.361 OA
HETATM   20  H   UNK     0     183.449 177.524 176.355  0.00  0.00     0.217 HD
ENDBRANCH  16  19
ENDBRANCH  12  13
ENDBRANCH  11  12
ENDBRANCH  10  11
ENDBRANCH   6  10
BRANCH   3  21
HETATM   21  O   UNK     0     191.763 174.912 177.053  0.00  0.00    -0.390 OA
HETATM   22  H   UNK     0     191.578 175.302 176.181  0.00  0.00     0.210 HD
ENDBRANCH   3  21
BRANCH   4  23
HETATM   23  O   UNK     0     188.127 172.600 179.160  0.00  0.00    -0.388 OA
HETATM   24  H   UNK     0     188.112 172.147 178.299  0.00  0.00     0.210 HD
ENDBRANCH   4  23
BRANCH   2  25
HETATM   25  O   UNK     0     189.204 173.640 176.622  0.00  0.00    -0.390 OA
HETATM   26  H   UNK     0     189.865 173.904 175.960  0.00  0.00     0.210 HD
ENDBRANCH   2  25
TORSDOF 10
ENDMDL
MODEL 4
REMARK VINA RESULT:      -7.4     30.112     33.827
REMARK  10 active torsions:
REMARK  status: ('A' for Active; 'I' for Inactive)
REMARK    1  A    between atoms: O_2  and  C_12 
REMARK    2  A    between atoms: O_2  and  C_14 
REMARK    3  A    between atoms: O_3  and  C_8 
REMARK    4  A    between atoms: O_4  and  C_9 
REMARK    5  A    between atoms: O_5  and  C_10 
REMARK    6  A    between atoms: O_6  and  C_13 
REMARK    7  A    between atoms: O_7  and  C_21 
REMARK    8  A    between atoms: C_11  and  C_13 
REMARK    9  A    between atoms: C_14  and  C_15 
REMARK   10  A    between atoms: C_15  and  C_16 
ROOT
HETATM    1  O   UNK     0     157.894 186.709 158.859  0.00  0.00    -0.348 OA
HETATM    2  C   UNK     0     155.320 185.641 158.164  0.00  0.00     0.183 C 
HETATM    3  C   UNK     0     156.085 185.193 159.409  0.00  0.00     0.180 C 
HETATM    4  C   UNK     0     156.263 186.242 157.121  0.00  0.00     0.204 C 
HETATM    5  C   UNK     0     157.012 186.304 159.907  0.00  0.00     0.179 C 
HETATM    6  C   UNK     0     157.201 187.274 157.747  0.00  0.00     0.291 C 
ENDROOT
BRANCH   5   7
HETATM    7  C   UNK     0     157.873 185.840 161.077  0.00  0.00     0.198 C 
BRANCH   7   8
HETATM    8  O   UNK     0     159.080 185.306 160.566  0.00  0.00    -0.398 OA
HETATM    9  H   UNK     0     159.809 185.663 161.100  0.00  0.00     0.209 HD
ENDBRANCH   7   8
ENDBRANCH   5   7
BRANCH   6  10
HETATM   10  O   UNK     0     158.137 187.679 156.750  0.00  0.00    -0.358 OA
BRANCH  10  11
HETATM   11  C   UNK     0     158.982 188.716 157.227  0.00  0.00     0.175 C 
BRANCH  11  12
HETATM   12  C   UNK     0     160.435 188.384 156.907  0.00  0.00     0.065 C 
BRANCH  12  13
HETATM   13  C   UNK     0     161.226 188.025 158.142  0.00  0.00    -0.056 A 
HETATM   14  C   UNK     0     162.412 187.323 158.009  0.00  0.00     0.010 A 
HETATM   15  C   UNK     0     163.143 186.992 159.149  0.00  0.00     0.037 A 
HETATM   16  C   UNK     0     162.677 187.367 160.410  0.00  0.00     0.065 A 
HETATM   17  C   UNK     0     161.481 188.074 160.529  0.00  0.00     0.037 A 
HETATM   18  C   UNK     0     160.750 188.405 159.387  0.00  0.00     0.010 A 
BRANCH  16  19
HETATM   19  O   UNK     0     163.390 187.044 161.523  0.00  0.00    -0.361 OA
HETATM   20  H   UNK     0     164.334 187.006 161.292  0.00  0.00     0.217 HD
ENDBRANCH  16  19
ENDBRANCH  12  13
ENDBRANCH  11  12
ENDBRANCH  10  11
ENDBRANCH   6  10
BRANCH   3  21
HETATM   21  O   UNK     0     155.157 184.857 160.437  0.00  0.00    -0.390 OA
HETATM   22  H   UNK     0     155.662 184.566 161.215  0.00  0.00     0.210 HD
ENDBRANCH   3  21
BRANCH   4  23
HETATM   23  O   UNK     0     155.496 186.892 156.107  0.00  0.00    -0.388 OA
HETATM   24  H   UNK     0     154.557 186.830 156.353  0.00  0.00     0.210 HD
ENDBRANCH   4  23
BRANCH   2  25
HETATM   25  O   UNK     0     154.666 184.498 157.611  0.00  0.00    -0.390 OA
HETATM   26  H   UNK     0     153.985 184.821 156.997  0.00  0.00     0.210 HD
ENDBRANCH   2  25
TORSDOF 10
ENDMDL
MODEL 5
REMARK VINA RESULT:      -7.3      2.556      3.698
REMARK  10 active torsions:
REMARK  status: ('A' for Active; 'I' for Inactive)
REMARK    1  A    between atoms: O_2  and  C_12 
REMARK    2  A    between atoms: O_2  and  C_14 
REMARK    3  A    between atoms: O_3  and  C_8 
REMARK    4  A    between atoms: O_4  and  C_9 
REMARK    5  A    between atoms: O_5  and  C_10 
REMARK    6  A    between atoms: O_6  and  C_13 
REMARK    7  A    between atoms: O_7  and  C_21 
REMARK    8  A    between atoms: C_11  and  C_13 
REMARK    9  A    between atoms: C_14  and  C_15 
REMARK   10  A    between atoms: C_15  and  C_16 
ROOT
HETATM    1  O   UNK     0     179.837 177.713 179.651  0.00  0.00    -0.348 OA
HETATM    2  C   UNK     0     178.724 177.228 177.048  0.00  0.00     0.183 C 
HETATM    3  C   UNK     0     177.854 177.511 178.273  0.00  0.00     0.180 C 
HETATM    4  C   UNK     0     180.102 176.707 177.457  0.00  0.00     0.204 C 
HETATM    5  C   UNK     0     178.614 178.359 179.295  0.00  0.00     0.179 C 
HETATM    6  C   UNK     0     180.727 177.580 178.545  0.00  0.00     0.291 C 
ENDROOT
BRANCH   5   7
HETATM    7  C   UNK     0     177.809 178.555 180.576  0.00  0.00     0.198 C 
BRANCH   7   8
HETATM    8  O   UNK     0     176.786 179.500 180.326  0.00  0.00    -0.398 OA
HETATM    9  H   UNK     0     176.768 180.119 181.075  0.00  0.00     0.209 HD
ENDBRANCH   7   8
ENDBRANCH   5   7
BRANCH   6  10
HETATM   10  O   UNK     0     181.935 176.952 178.971  0.00  0.00    -0.358 OA
BRANCH  10  11
HETATM   11  C   UNK     0     182.989 177.895 179.101  0.00  0.00     0.175 C 
BRANCH  11  12
HETATM   12  C   UNK     0     183.899 177.823 177.880  0.00  0.00     0.065 C 
BRANCH  12  13
HETATM   13  C   UNK     0     185.361 177.805 178.254  0.00  0.00    -0.056 A 
HETATM   14  C   UNK     0     186.149 176.735 177.866  0.00  0.00     0.010 A 
HETATM   15  C   UNK     0     187.500 176.719 178.211  0.00  0.00     0.037 A 
HETATM   16  C   UNK     0     188.045 177.775 178.943  0.00  0.00     0.065 A 
HETATM   17  C   UNK     0     187.240 178.846 179.327  0.00  0.00     0.037 A 
HETATM   18  C   UNK     0     185.888 178.861 178.981  0.00  0.00     0.010 A 
BRANCH  16  19
HETATM   19  O   UNK     0     189.364 177.759 179.280  0.00  0.00    -0.361 OA
HETATM   20  H   UNK     0     189.455 177.402 180.180  0.00  0.00     0.217 HD
ENDBRANCH  16  19
ENDBRANCH  12  13
ENDBRANCH  11  12
ENDBRANCH  10  11
ENDBRANCH   6  10
BRANCH   3  21
HETATM   21  O   UNK     0     176.678 178.206 177.865  0.00  0.00    -0.390 OA
HETATM   22  H   UNK     0     176.340 178.701 178.631  0.00  0.00     0.210 HD
ENDBRANCH   3  21
BRANCH   4  23
HETATM   23  O   UNK     0     180.969 176.717 176.322  0.00  0.00    -0.388 OA
HETATM   24  H   UNK     0     180.425 176.863 175.529  0.00  0.00     0.210 HD
ENDBRANCH   4  23
BRANCH   2  25
HETATM   25  O   UNK     0     178.061 176.246 176.252  0.00  0.00    -0.390 OA
HETATM   26  H   UNK     0     178.607 176.093 175.462  0.00  0.00     0.210 HD
ENDBRANCH   2  25
TORSDOF 10
ENDMDL
MODEL 6
REMARK VINA RESULT:      -7.1     33.758     37.994
REMARK  10 active torsions:
REMARK  status: ('A' for Active; 'I' for Inactive)
REMARK    1  A    between atoms: O_2  and  C_12 
REMARK    2  A    between atoms: O_2  and  C_14 
REMARK    3  A    between atoms: O_3  and  C_8 
REMARK    4  A    between atoms: O_4  and  C_9 
REMARK    5  A    between atoms: O_5  and  C_10 
REMARK    6  A    between atoms: O_6  and  C_13 
REMARK    7  A    between atoms: O_7  and  C_21 
REMARK    8  A    between atoms: C_11  and  C_13 
REMARK    9  A    between atoms: C_14  and  C_15 
REMARK   10  A    between atoms: C_15  and  C_16 
ROOT
HETATM    1  O   UNK     0     157.119 186.514 158.414  0.00  0.00    -0.348 OA
HETATM    2  C   UNK     0     155.279 184.605 159.517  0.00  0.00     0.183 C 
HETATM    3  C   UNK     0     156.555 185.030 160.244  0.00  0.00     0.180 C 
HETATM    4  C   UNK     0     155.389 184.859 158.013  0.00  0.00     0.204 C 
HETATM    5  C   UNK     0     156.970 186.443 159.833  0.00  0.00     0.179 C 
HETATM    6  C   UNK     0     155.896 186.271 157.722  0.00  0.00     0.291 C 
ENDROOT
BRANCH   5   7
HETATM    7  C   UNK     0     158.304 186.844 160.455  0.00  0.00     0.198 C 
BRANCH   7   8
HETATM    8  O   UNK     0     159.120 185.692 160.555  0.00  0.00    -0.398 OA
HETATM    9  H   UNK     0     158.553 184.954 160.836  0.00  0.00     0.209 HD
ENDBRANCH   7   8
ENDBRANCH   5   7
BRANCH   6  10
HETATM   10  O   UNK     0     156.108 186.380 156.316  0.00  0.00    -0.358 OA
BRANCH  10  11
HETATM   11  C   UNK     0     155.613 187.612 155.813  0.00  0.00     0.175 C 
BRANCH  11  12
HETATM   12  C   UNK     0     154.784 188.310 156.885  0.00  0.00     0.065 C 
BRANCH  12  13
HETATM   13  C   UNK     0     153.320 188.380 156.524  0.00  0.00    -0.056 A 
HETATM   14  C   UNK     0     152.374 188.452 157.532  0.00  0.00     0.010 A 
HETATM   15  C   UNK     0     151.021 188.516 157.198  0.00  0.00     0.037 A 
HETATM   16  C   UNK     0     150.633 188.508 155.857  0.00  0.00     0.065 A 
HETATM   17  C   UNK     0     151.597 188.436 154.853  0.00  0.00     0.037 A 
HETATM   18  C   UNK     0     152.950 188.372 155.188  0.00  0.00     0.010 A 
BRANCH  16  19
HETATM   19  O   UNK     0     149.313 188.571 155.531  0.00  0.00    -0.361 OA
HETATM   20  H   UNK     0     148.784 188.518 156.346  0.00  0.00     0.217 HD
ENDBRANCH  16  19
ENDBRANCH  12  13
ENDBRANCH  11  12
ENDBRANCH  10  11
ENDBRANCH   6  10
BRANCH   3  21
HETATM   21  O   UNK     0     156.329 184.996 161.651  0.00  0.00    -0.390 OA
HETATM   22  H   UNK     0     157.095 185.405 162.089  0.00  0.00     0.210 HD
ENDBRANCH   3  21
BRANCH   4  23
HETATM   23  O   UNK     0     154.102 184.713 157.412  0.00  0.00    -0.388 OA
HETATM   24  H   UNK     0     153.860 185.565 157.009  0.00  0.00     0.210 HD
ENDBRANCH   4  23
BRANCH   2  25
HETATM   25  O   UNK     0     155.079 183.211 159.751  0.00  0.00    -0.390 OA
HETATM   26  H   UNK     0     154.121 183.046 159.730  0.00  0.00     0.210 HD
ENDBRANCH   2  25
TORSDOF 10
ENDMDL
MODEL 7
REMARK VINA RESULT:      -7.1     37.246     41.578
REMARK  10 active torsions:
REMARK  status: ('A' for Active; 'I' for Inactive)
REMARK    1  A    between atoms: O_2  and  C_12 
REMARK    2  A    between atoms: O_2  and  C_14 
REMARK    3  A    between atoms: O_3  and  C_8 
REMARK    4  A    between atoms: O_4  and  C_9 
REMARK    5  A    between atoms: O_5  and  C_10 
REMARK    6  A    between atoms: O_6  and  C_13 
REMARK    7  A    between atoms: O_7  and  C_21 
REMARK    8  A    between atoms: C_11  and  C_13 
REMARK    9  A    between atoms: C_14  and  C_15 
REMARK   10  A    between atoms: C_15  and  C_16 
ROOT
HETATM    1  O   UNK     0     152.184 197.215 167.439  0.00  0.00    -0.348 OA
HETATM    2  C   UNK     0     153.309 194.633 168.004  0.00  0.00     0.183 C 
HETATM    3  C   UNK     0     154.142 195.786 167.441  0.00  0.00     0.180 C 
HETATM    4  C   UNK     0     151.822 194.829 167.707  0.00  0.00     0.204 C 
HETATM    5  C   UNK     0     153.549 197.135 167.852  0.00  0.00     0.179 C 
HETATM    6  C   UNK     0     151.362 196.239 168.075  0.00  0.00     0.291 C 
ENDROOT
BRANCH   5   7
HETATM    7  C   UNK     0     154.293 198.299 167.207  0.00  0.00     0.198 C 
BRANCH   7   8
HETATM    8  O   UNK     0     154.946 197.828 166.042  0.00  0.00    -0.398 OA
HETATM    9  H   UNK     0     155.572 197.136 166.315  0.00  0.00     0.209 HD
ENDBRANCH   7   8
ENDBRANCH   5   7
BRANCH   6  10
HETATM   10  O   UNK     0     150.012 196.388 167.638  0.00  0.00    -0.358 OA
BRANCH  10  11
HETATM   11  C   UNK     0     149.926 196.400 166.221  0.00  0.00     0.175 C 
BRANCH  11  12
HETATM   12  C   UNK     0     148.807 197.337 165.780  0.00  0.00     0.065 C 
BRANCH  12  13
HETATM   13  C   UNK     0     147.440 196.804 166.134  0.00  0.00    -0.056 A 
HETATM   14  C   UNK     0     146.635 197.522 167.003  0.00  0.00     0.010 A 
HETATM   15  C   UNK     0     145.371 197.030 167.330  0.00  0.00     0.037 A 
HETATM   16  C   UNK     0     144.930 195.825 166.783  0.00  0.00     0.065 A 
HETATM   17  C   UNK     0     145.751 195.113 165.909  0.00  0.00     0.037 A 
HETATM   18  C   UNK     0     147.014 195.606 165.583  0.00  0.00     0.010 A 
BRANCH  16  19
HETATM   19  O   UNK     0     143.697 195.345 167.102  0.00  0.00    -0.361 OA
HETATM   20  H   UNK     0     143.754 194.864 167.946  0.00  0.00     0.217 HD
ENDBRANCH  16  19
ENDBRANCH  12  13
ENDBRANCH  11  12
ENDBRANCH  10  11
ENDBRANCH   6  10
BRANCH   3  21
HETATM   21  O   UNK     0     155.476 195.687 167.933  0.00  0.00    -0.390 OA
HETATM   22  H   UNK     0     155.433 195.406 168.863  0.00  0.00     0.210 HD
ENDBRANCH   3  21
BRANCH   4  23
HETATM   23  O   UNK     0     151.059 193.895 168.472  0.00  0.00    -0.388 OA
HETATM   24  H   UNK     0     150.426 193.462 167.874  0.00  0.00     0.210 HD
ENDBRANCH   4  23
BRANCH   2  25
HETATM   25  O   UNK     0     153.761 193.423 167.394  0.00  0.00    -0.390 OA
HETATM   26  H   UNK     0     153.708 192.722 168.066  0.00  0.00     0.210 HD
ENDBRANCH   2  25
TORSDOF 10
ENDMDL
MODEL 8
REMARK VINA RESULT:      -7.1      2.494      3.366
REMARK  10 active torsions:
REMARK  status: ('A' for Active; 'I' for Inactive)
REMARK    1  A    between atoms: O_2  and  C_12 
REMARK    2  A    between atoms: O_2  and  C_14 
REMARK    3  A    between atoms: O_3  and  C_8 
REMARK    4  A    between atoms: O_4  and  C_9 
REMARK    5  A    between atoms: O_5  and  C_10 
REMARK    6  A    between atoms: O_6  and  C_13 
REMARK    7  A    between atoms: O_7  and  C_21 
REMARK    8  A    between atoms: C_11  and  C_13 
REMARK    9  A    between atoms: C_14  and  C_15 
REMARK   10  A    between atoms: C_15  and  C_16 
ROOT
HETATM    1  O   UNK     0     184.301 177.980 180.135  0.00  0.00    -0.348 OA
HETATM    2  C   UNK     0     184.814 177.902 177.310  0.00  0.00     0.183 C 
HETATM    3  C   UNK     0     183.398 177.914 177.887  0.00  0.00     0.180 C 
HETATM    4  C   UNK     0     185.826 177.394 178.338  0.00  0.00     0.204 C 
HETATM    5  C   UNK     0     183.373 178.609 179.250  0.00  0.00     0.179 C 
HETATM    6  C   UNK     0     185.650 178.094 179.685  0.00  0.00     0.291 C 
ENDROOT
BRANCH   5   7
HETATM    7  C   UNK     0     181.995 178.530 179.899  0.00  0.00     0.198 C 
BRANCH   7   8
HETATM    8  O   UNK     0     182.042 179.205 181.142  0.00  0.00    -0.398 OA
HETATM    9  H   UNK     0     182.190 178.538 181.834  0.00  0.00     0.209 HD
ENDBRANCH   7   8
ENDBRANCH   5   7
BRANCH   6  10
HETATM   10  O   UNK     0     186.525 177.470 180.622  0.00  0.00    -0.358 OA
BRANCH  10  11
HETATM   11  C   UNK     0     186.302 176.069 180.683  0.00  0.00     0.175 C 
BRANCH  11  12
HETATM   12  C   UNK     0     187.447 175.396 181.431  0.00  0.00     0.065 C 
BRANCH  12  13
HETATM   13  C   UNK     0     188.575 174.994 180.512  0.00  0.00    -0.056 A 
HETATM   14  C   UNK     0     189.696 175.800 180.419  0.00  0.00     0.010 A 
HETATM   15  C   UNK     0     190.738 175.428 179.569  0.00  0.00     0.037 A 
HETATM   16  C   UNK     0     190.643 174.253 178.824  0.00  0.00     0.065 A 
HETATM   17  C   UNK     0     189.508 173.450 178.928  0.00  0.00     0.037 A 
HETATM   18  C   UNK     0     188.467 173.823 179.778  0.00  0.00     0.010 A 
BRANCH  16  19
HETATM   19  O   UNK     0     191.661 173.890 177.995  0.00  0.00    -0.361 OA
HETATM   20  H   UNK     0     191.479 174.234 177.104  0.00  0.00     0.217 HD
ENDBRANCH  16  19
ENDBRANCH  12  13
ENDBRANCH  11  12
ENDBRANCH  10  11
ENDBRANCH   6  10
BRANCH   3  21
HETATM   21  O   UNK     0     182.530 178.603 176.991  0.00  0.00    -0.390 OA
HETATM   22  H   UNK     0     182.569 179.551 177.203  0.00  0.00     0.210 HD
ENDBRANCH   3  21
BRANCH   4  23
HETATM   23  O   UNK     0     187.149 177.653 177.868  0.00  0.00    -0.388 OA
HETATM   24  H   UNK     0     187.499 178.417 178.359  0.00  0.00     0.210 HD
ENDBRANCH   4  23
BRANCH   2  25
HETATM   25  O   UNK     0     184.819 177.040 176.171  0.00  0.00    -0.390 OA
HETATM   26  H   UNK     0     183.970 176.566 176.160  0.00  0.00     0.210 HD
ENDBRANCH   2  25
TORSDOF 10
ENDMDL
MODEL 9
REMARK VINA RESULT:      -7.0      2.190      7.470
REMARK  10 active torsions:
REMARK  status: ('A' for Active; 'I' for Inactive)
REMARK    1  A    between atoms: O_2  and  C_12 
REMARK    2  A    between atoms: O_2  and  C_14 
REMARK    3  A    between atoms: O_3  and  C_8 
REMARK    4  A    between atoms: O_4  and  C_9 
REMARK    5  A    between atoms: O_5  and  C_10 
REMARK    6  A    between atoms: O_6  and  C_13 
REMARK    7  A    between atoms: O_7  and  C_21 
REMARK    8  A    between atoms: C_11  and  C_13 
REMARK    9  A    between atoms: C_14  and  C_15 
REMARK   10  A    between atoms: C_15  and  C_16 
ROOT
HETATM    1  O   UNK     0     186.882 175.904 178.505  0.00  0.00    -0.348 OA
HETATM    2  C   UNK     0     189.344 177.333 178.881  0.00  0.00     0.183 C 
HETATM    3  C   UNK     0     189.301 175.828 178.619  0.00  0.00     0.180 C 
HETATM    4  C   UNK     0     188.015 177.835 179.445  0.00  0.00     0.204 C 
HETATM    5  C   UNK     0     188.051 175.450 177.822  0.00  0.00     0.179 C 
HETATM    6  C   UNK     0     186.833 177.325 178.621  0.00  0.00     0.291 C 
ENDROOT
BRANCH   5   7
HETATM    7  C   UNK     0     187.925 173.940 177.650  0.00  0.00     0.198 C 
BRANCH   7   8
HETATM    8  O   UNK     0     187.412 173.674 176.358  0.00  0.00    -0.398 OA
HETATM    9  H   UNK     0     187.997 173.021 175.937  0.00  0.00     0.209 HD
ENDBRANCH   7   8
ENDBRANCH   5   7
BRANCH   6  10
HETATM   10  O   UNK     0     185.633 177.712 179.289  0.00  0.00    -0.358 OA
BRANCH  10  11
HETATM   11  C   UNK     0     184.520 177.685 178.407  0.00  0.00     0.175 C 
BRANCH  11  12
HETATM   12  C   UNK     0     183.315 177.080 179.117  0.00  0.00     0.065 C 
BRANCH  12  13
HETATM   13  C   UNK     0     182.010 177.472 178.468  0.00  0.00    -0.056 A 
HETATM   14  C   UNK     0     182.028 178.196 177.288  0.00  0.00     0.010 A 
HETATM   15  C   UNK     0     180.822 178.559 176.688  0.00  0.00     0.037 A 
HETATM   16  C   UNK     0     179.612 178.192 177.280  0.00  0.00     0.065 A 
HETATM   17  C   UNK     0     179.609 177.463 178.468  0.00  0.00     0.037 A 
HETATM   18  C   UNK     0     180.816 177.101 179.067  0.00  0.00     0.010 A 
BRANCH  16  19
HETATM   19  O   UNK     0     178.435 178.546 176.694  0.00  0.00    -0.361 OA
HETATM   20  H   UNK     0     178.101 179.353 177.122  0.00  0.00     0.217 HD
ENDBRANCH  16  19
ENDBRANCH  12  13
ENDBRANCH  11  12
ENDBRANCH  10  11
ENDBRANCH   6  10
BRANCH   3  21
HETATM   21  O   UNK     0     190.461 175.443 177.886  0.00  0.00    -0.390 OA
HETATM   22  H   UNK     0     190.805 176.231 177.432  0.00  0.00     0.210 HD
ENDBRANCH   3  21
BRANCH   4  23
HETATM   23  O   UNK     0     187.996 179.262 179.417  0.00  0.00    -0.388 OA
HETATM   24  H   UNK     0     188.911 179.578 179.521  0.00  0.00     0.210 HD
ENDBRANCH   4  23
BRANCH   2  25
HETATM   25  O   UNK     0     190.387 177.589 179.822  0.00  0.00    -0.390 OA
HETATM   26  H   UNK     0     191.231 177.542 179.341  0.00  0.00     0.210 HD
ENDBRANCH   2  25
TORSDOF 10
ENDMDL
