MODEL 1
REMARK VINA RESULT:      -5.7      0.000      0.000
REMARK  5 active torsions:
REMARK  status: ('A' for Active; 'I' for Inactive)
REMARK    1  A    between atoms: C_3  and  O_1 
REMARK    2  A    between atoms: C_4  and  O_14 
REMARK    3  A    between atoms: C_7  and  C_8 
REMARK    4  A    between atoms: C_9  and  C_10 
REMARK    5  A    between atoms: C_10  and  O_12 
ROOT
ATOM      1  C   LIG     1     134.680 154.141 157.924  0.00  0.00     0.162 A 
ATOM      2  C   LIG     1     134.684 153.832 156.564  0.00  0.00     0.158 A 
ATOM      3  C   LIG     1     135.770 153.159 156.005  0.00  0.00     0.050 A 
ATOM      4  C   LIG     1     136.853 152.796 156.806  0.00  0.00     0.012 A 
ATOM      5  C   LIG     1     136.849 153.106 158.166  0.00  0.00    -0.021 A 
ATOM      6  C   LIG     1     135.763 153.778 158.726  0.00  0.00     0.057 A 
ENDROOT
BRANCH   5   7
ATOM      7  C   LIG     1     137.977 152.727 159.001  0.00  0.00     0.015 C 
ATOM      8  C   LIG     1     137.891 152.084 160.187  0.00  0.00     0.092 C 
BRANCH   8   9
ATOM      9  C   LIG     1     139.117 151.746 160.937  0.00  0.00     0.330 C 
ATOM     10  O   LIG     1     139.686 152.452 161.753  0.00  0.00    -0.246 OA
BRANCH   9  11
ATOM     11  O   LIG     1     139.520 150.506 160.573  0.00  0.00    -0.478 OA
ATOM     12  H   LIG     1     140.068 150.522 159.759  0.00  0.00     0.295 HD
ENDBRANCH   9  11
ENDBRANCH   8   9
ENDBRANCH   5   7
BRANCH   1  13
ATOM     13  O   LIG     1     133.624 154.798 158.482  0.00  0.00    -0.491 OA
ATOM     14  C   LIG     1     132.680 154.011 159.205  0.00  0.00     0.277 C 
ENDBRANCH   1  13
BRANCH   2  15
ATOM     15  O   LIG     1     133.632 154.182 155.771  0.00  0.00    -0.503 OA
ATOM     16  H   LIG     1     133.941 154.812 155.097  0.00  0.00     0.292 HD
ENDBRANCH   2  15
TORSDOF 5
ENDMDL
MODEL 2
REMARK VINA RESULT:      -5.7      1.905      5.830
REMARK  5 active torsions:
REMARK  status: ('A' for Active; 'I' for Inactive)
REMARK    1  A    between atoms: C_3  and  O_1 
REMARK    2  A    between atoms: C_4  and  O_14 
REMARK    3  A    between atoms: C_7  and  C_8 
REMARK    4  A    between atoms: C_9  and  C_10 
REMARK    5  A    between atoms: C_10  and  O_12 
ROOT
ATOM      1  C   LIG     1     138.191 152.676 162.193  0.00  0.00     0.162 A 
ATOM      2  C   LIG     1     139.084 151.624 161.987  0.00  0.00     0.158 A 
ATOM      3  C   LIG     1     139.194 151.040 160.726  0.00  0.00     0.050 A 
ATOM      4  C   LIG     1     138.411 151.507 159.670  0.00  0.00     0.012 A 
ATOM      5  C   LIG     1     137.519 152.558 159.875  0.00  0.00    -0.021 A 
ATOM      6  C   LIG     1     137.408 153.143 161.137  0.00  0.00     0.057 A 
ENDROOT
BRANCH   5   7
ATOM      7  C   LIG     1     136.704 153.045 158.774  0.00  0.00     0.015 C 
ATOM      8  C   LIG     1     137.032 152.970 157.465  0.00  0.00     0.092 C 
BRANCH   8   9
ATOM      9  C   LIG     1     136.109 153.495 156.439  0.00  0.00     0.330 C 
ATOM     10  O   LIG     1     135.550 154.579 156.453  0.00  0.00    -0.246 OA
BRANCH   9  11
ATOM     11  O   LIG     1     135.978 152.570 155.459  0.00  0.00    -0.478 OA
ATOM     12  H   LIG     1     135.079 152.575 155.068  0.00  0.00     0.295 HD
ENDBRANCH   9  11
ENDBRANCH   8   9
ENDBRANCH   5   7
BRANCH   1  13
ATOM     13  O   LIG     1     138.073 153.255 163.421  0.00  0.00    -0.491 OA
ATOM     14  C   LIG     1     136.894 152.956 164.167  0.00  0.00     0.277 C 
ENDBRANCH   1  13
BRANCH   2  15
ATOM     15  O   LIG     1     139.853 151.159 163.011  0.00  0.00    -0.503 OA
ATOM     16  H   LIG     1     139.314 151.122 163.820  0.00  0.00     0.292 HD
ENDBRANCH   2  15
TORSDOF 5
ENDMDL
MODEL 3
REMARK VINA RESULT:      -5.5      2.859      5.986
REMARK  5 active torsions:
REMARK  status: ('A' for Active; 'I' for Inactive)
REMARK    1  A    between atoms: C_3  and  O_1 
REMARK    2  A    between atoms: C_4  and  O_14 
REMARK    3  A    between atoms: C_7  and  C_8 
REMARK    4  A    between atoms: C_9  and  C_10 
REMARK    5  A    between atoms: C_10  and  O_12 
ROOT
ATOM      1  C   LIG     1     137.528 152.475 163.248  0.00  0.00     0.162 A 
ATOM      2  C   LIG     1     138.812 152.148 163.684  0.00  0.00     0.158 A 
ATOM      3  C   LIG     1     139.803 151.827 162.756  0.00  0.00     0.050 A 
ATOM      4  C   LIG     1     139.509 151.833 161.392  0.00  0.00     0.012 A 
ATOM      5  C   LIG     1     138.226 152.160 160.956  0.00  0.00    -0.021 A 
ATOM      6  C   LIG     1     137.235 152.481 161.883  0.00  0.00     0.057 A 
ENDROOT
BRANCH   5   7
ATOM      7  C   LIG     1     137.921 152.167 159.535  0.00  0.00     0.015 C 
ATOM      8  C   LIG     1     137.677 153.270 158.792  0.00  0.00     0.092 C 
BRANCH   8   9
ATOM      9  C   LIG     1     137.388 153.144 157.350  0.00  0.00     0.330 C 
ATOM     10  O   LIG     1     136.421 152.593 156.850  0.00  0.00    -0.246 OA
BRANCH   9  11
ATOM     11  O   LIG     1     138.380 153.747 156.654  0.00  0.00    -0.478 OA
ATOM     12  H   LIG     1     138.031 154.311 155.932  0.00  0.00     0.295 HD
ENDBRANCH   9  11
ENDBRANCH   8   9
ENDBRANCH   5   7
BRANCH   1  13
ATOM     13  O   LIG     1     136.552 152.789 164.145  0.00  0.00    -0.491 OA
ATOM     14  C   LIG     1     135.270 153.122 163.616  0.00  0.00     0.277 C 
ENDBRANCH   1  13
BRANCH   2  15
ATOM     15  O   LIG     1     139.111 152.137 165.013  0.00  0.00    -0.503 OA
ATOM     16  H   LIG     1     139.513 152.990 165.254  0.00  0.00     0.292 HD
ENDBRANCH   2  15
TORSDOF 5
ENDMDL
MODEL 4
REMARK VINA RESULT:      -5.5     18.953     20.769
REMARK  5 active torsions:
REMARK  status: ('A' for Active; 'I' for Inactive)
REMARK    1  A    between atoms: C_3  and  O_1 
REMARK    2  A    between atoms: C_4  and  O_14 
REMARK    3  A    between atoms: C_7  and  C_8 
REMARK    4  A    between atoms: C_9  and  C_10 
REMARK    5  A    between atoms: C_10  and  O_12 
ROOT
ATOM      1  C   LIG     1     147.193 148.141 143.911  0.00  0.00     0.162 A 
ATOM      2  C   LIG     1     146.822 149.471 143.715  0.00  0.00     0.158 A 
ATOM      3  C   LIG     1     146.222 149.858 142.517  0.00  0.00     0.050 A 
ATOM      4  C   LIG     1     145.994 148.916 141.514  0.00  0.00     0.012 A 
ATOM      5  C   LIG     1     146.365 147.586 141.710  0.00  0.00    -0.021 A 
ATOM      6  C   LIG     1     146.965 147.198 142.908  0.00  0.00     0.057 A 
ENDROOT
BRANCH   5   7
ATOM      7  C   LIG     1     146.127 146.604 140.665  0.00  0.00     0.015 C 
ATOM      8  C   LIG     1     144.986 145.896 140.503  0.00  0.00     0.092 C 
BRANCH   8   9
ATOM      9  C   LIG     1     144.865 144.931 139.391  0.00  0.00     0.330 C 
ATOM     10  O   LIG     1     143.857 144.329 139.061  0.00  0.00    -0.246 OA
BRANCH   9  11
ATOM     11  O   LIG     1     146.068 144.817 138.783  0.00  0.00    -0.478 OA
ATOM     12  H   LIG     1     146.471 143.935 138.929  0.00  0.00     0.295 HD
ENDBRANCH   9  11
ENDBRANCH   8   9
ENDBRANCH   5   7
BRANCH   1  13
ATOM     13  O   LIG     1     147.780 147.750 145.077  0.00  0.00    -0.491 OA
ATOM     14  C   LIG     1     149.075 147.160 144.983  0.00  0.00     0.277 C 
ENDBRANCH   1  13
BRANCH   2  15
ATOM     15  O   LIG     1     147.040 150.401 144.686  0.00  0.00    -0.503 OA
ATOM     16  H   LIG     1     147.270 149.945 145.515  0.00  0.00     0.292 HD
ENDBRANCH   2  15
TORSDOF 5
ENDMDL
MODEL 5
REMARK VINA RESULT:      -5.5      1.753      3.102
REMARK  5 active torsions:
REMARK  status: ('A' for Active; 'I' for Inactive)
REMARK    1  A    between atoms: C_3  and  O_1 
REMARK    2  A    between atoms: C_4  and  O_14 
REMARK    3  A    between atoms: C_7  and  C_8 
REMARK    4  A    between atoms: C_9  and  C_10 
REMARK    5  A    between atoms: C_10  and  O_12 
ROOT
ATOM      1  C   LIG     1     136.727 153.578 158.165  0.00  0.00     0.162 A 
ATOM      2  C   LIG     1     135.570 154.111 158.734  0.00  0.00     0.158 A 
ATOM      3  C   LIG     1     135.354 154.002 160.107  0.00  0.00     0.050 A 
ATOM      4  C   LIG     1     136.295 153.360 160.913  0.00  0.00     0.012 A 
ATOM      5  C   LIG     1     137.451 152.827 160.344  0.00  0.00    -0.021 A 
ATOM      6  C   LIG     1     137.668 152.936 158.971  0.00  0.00     0.057 A 
ENDROOT
BRANCH   5   7
ATOM      7  C   LIG     1     138.433 152.159 161.184  0.00  0.00     0.015 C 
ATOM      8  C   LIG     1     138.616 152.385 162.504  0.00  0.00     0.092 C 
BRANCH   8   9
ATOM      9  C   LIG     1     139.644 151.630 163.249  0.00  0.00     0.330 C 
ATOM     10  O   LIG     1     139.497 151.075 164.325  0.00  0.00    -0.246 OA
BRANCH   9  11
ATOM     11  O   LIG     1     140.796 151.649 162.539  0.00  0.00    -0.478 OA
ATOM     12  H   LIG     1     141.254 152.514 162.605  0.00  0.00     0.295 HD
ENDBRANCH   9  11
ENDBRANCH   8   9
ENDBRANCH   5   7
BRANCH   1  13
ATOM     13  O   LIG     1     136.949 153.678 156.825  0.00  0.00    -0.491 OA
ATOM     14  C   LIG     1     136.448 152.623 156.006  0.00  0.00     0.277 C 
ENDBRANCH   1  13
BRANCH   2  15
ATOM     15  O   LIG     1     134.643 154.739 157.958  0.00  0.00    -0.503 OA
ATOM     16  H   LIG     1     134.128 155.351 158.512  0.00  0.00     0.292 HD
ENDBRANCH   2  15
TORSDOF 5
ENDMDL
MODEL 6
REMARK VINA RESULT:      -5.5     19.627     21.076
REMARK  5 active torsions:
REMARK  status: ('A' for Active; 'I' for Inactive)
REMARK    1  A    between atoms: C_3  and  O_1 
REMARK    2  A    between atoms: C_4  and  O_14 
REMARK    3  A    between atoms: C_7  and  C_8 
REMARK    4  A    between atoms: C_9  and  C_10 
REMARK    5  A    between atoms: C_10  and  O_12 
ROOT
ATOM      1  C   LIG     1     145.074 146.031 140.228  0.00  0.00     0.162 A 
ATOM      2  C   LIG     1     145.987 145.469 139.335  0.00  0.00     0.158 A 
ATOM      3  C   LIG     1     147.263 146.018 139.205  0.00  0.00     0.050 A 
ATOM      4  C   LIG     1     147.626 147.129 139.967  0.00  0.00     0.012 A 
ATOM      5  C   LIG     1     146.713 147.690 140.858  0.00  0.00    -0.021 A 
ATOM      6  C   LIG     1     145.437 147.142 140.990  0.00  0.00     0.057 A 
ENDROOT
BRANCH   5   7
ATOM      7  C   LIG     1     147.091 148.848 141.653  0.00  0.00     0.015 C 
ATOM      8  C   LIG     1     147.256 148.855 142.995  0.00  0.00     0.092 C 
BRANCH   8   9
ATOM      9  C   LIG     1     147.653 150.098 143.686  0.00  0.00     0.330 C 
ATOM     10  O   LIG     1     148.569 150.840 143.373  0.00  0.00    -0.246 OA
BRANCH   9  11
ATOM     11  O   LIG     1     146.827 150.291 144.741  0.00  0.00    -0.478 OA
ATOM     12  H   LIG     1     146.335 149.476 144.975  0.00  0.00     0.295 HD
ENDBRANCH   9  11
ENDBRANCH   8   9
ENDBRANCH   5   7
BRANCH   1  13
ATOM     13  O   LIG     1     143.825 145.505 140.363  0.00  0.00    -0.491 OA
ATOM     14  C   LIG     1     143.578 144.713 141.523  0.00  0.00     0.277 C 
ENDBRANCH   1  13
BRANCH   2  15
ATOM     15  O   LIG     1     145.644 144.385 138.585  0.00  0.00    -0.503 OA
ATOM     16  H   LIG     1     146.331 144.235 137.912  0.00  0.00     0.292 HD
ENDBRANCH   2  15
TORSDOF 5
ENDMDL
MODEL 7
REMARK VINA RESULT:      -5.5     17.904     19.537
REMARK  5 active torsions:
REMARK  status: ('A' for Active; 'I' for Inactive)
REMARK    1  A    between atoms: C_3  and  O_1 
REMARK    2  A    between atoms: C_4  and  O_14 
REMARK    3  A    between atoms: C_7  and  C_8 
REMARK    4  A    between atoms: C_9  and  C_10 
REMARK    5  A    between atoms: C_10  and  O_12 
ROOT
ATOM      1  C   LIG     1     134.897 152.699 138.688  0.00  0.00     0.162 A 
ATOM      2  C   LIG     1     135.418 152.067 139.818  0.00  0.00     0.158 A 
ATOM      3  C   LIG     1     135.158 152.583 141.087  0.00  0.00     0.050 A 
ATOM      4  C   LIG     1     134.378 153.730 141.228  0.00  0.00     0.012 A 
ATOM      5  C   LIG     1     133.857 154.362 140.099  0.00  0.00    -0.021 A 
ATOM      6  C   LIG     1     134.117 153.847 138.829  0.00  0.00     0.057 A 
ENDROOT
BRANCH   5   7
ATOM      7  C   LIG     1     133.043 155.557 140.246  0.00  0.00     0.015 C 
ATOM      8  C   LIG     1     132.610 156.070 141.419  0.00  0.00     0.092 C 
BRANCH   8   9
ATOM      9  C   LIG     1     131.794 157.300 141.434  0.00  0.00     0.330 C 
ATOM     10  O   LIG     1     130.588 157.368 141.606  0.00  0.00    -0.246 OA
BRANCH   9  11
ATOM     11  O   LIG     1     132.607 158.363 141.225  0.00  0.00    -0.478 OA
ATOM     12  H   LIG     1     133.546 158.148 141.410  0.00  0.00     0.295 HD
ENDBRANCH   9  11
ENDBRANCH   8   9
ENDBRANCH   5   7
BRANCH   1  13
ATOM     13  O   LIG     1     135.145 152.205 137.442  0.00  0.00    -0.491 OA
ATOM     14  C   LIG     1     134.083 151.502 136.802  0.00  0.00     0.277 C 
ENDBRANCH   1  13
BRANCH   2  15
ATOM     15  O   LIG     1     136.183 150.947 139.693  0.00  0.00    -0.503 OA
ATOM     16  H   LIG     1     135.610 150.163 139.761  0.00  0.00     0.292 HD
ENDBRANCH   2  15
TORSDOF 5
ENDMDL
MODEL 8
REMARK VINA RESULT:      -5.4     17.720     19.430
REMARK  5 active torsions:
REMARK  status: ('A' for Active; 'I' for Inactive)
REMARK    1  A    between atoms: C_3  and  O_1 
REMARK    2  A    between atoms: C_4  and  O_14 
REMARK    3  A    between atoms: C_7  and  C_8 
REMARK    4  A    between atoms: C_9  and  C_10 
REMARK    5  A    between atoms: C_10  and  O_12 
ROOT
ATOM      1  C   LIG     1     154.683 158.440 151.746  0.00  0.00     0.162 A 
ATOM      2  C   LIG     1     154.766 157.213 152.406  0.00  0.00     0.158 A 
ATOM      3  C   LIG     1     153.601 156.540 152.774  0.00  0.00     0.050 A 
ATOM      4  C   LIG     1     152.354 157.093 152.483  0.00  0.00     0.012 A 
ATOM      5  C   LIG     1     152.272 158.318 151.823  0.00  0.00    -0.021 A 
ATOM      6  C   LIG     1     153.436 158.992 151.455  0.00  0.00     0.057 A 
ENDROOT
BRANCH   5   7
ATOM      7  C   LIG     1     150.972 158.894 151.518  0.00  0.00     0.015 C 
ATOM      8  C   LIG     1     150.515 160.081 151.976  0.00  0.00     0.092 C 
BRANCH   8   9
ATOM      9  C   LIG     1     149.175 160.560 151.584  0.00  0.00     0.330 C 
ATOM     10  O   LIG     1     148.722 160.599 150.452  0.00  0.00    -0.246 OA
BRANCH   9  11
ATOM     11  O   LIG     1     148.512 160.956 152.696  0.00  0.00    -0.478 OA
ATOM     12  H   LIG     1     148.429 160.231 153.351  0.00  0.00     0.295 HD
ENDBRANCH   9  11
ENDBRANCH   8   9
ENDBRANCH   5   7
BRANCH   1  13
ATOM     13  O   LIG     1     155.814 159.107 151.383  0.00  0.00    -0.491 OA
ATOM     14  C   LIG     1     156.004 159.348 149.990  0.00  0.00     0.277 C 
ENDBRANCH   1  13
BRANCH   2  15
ATOM     15  O   LIG     1     155.978 156.664 152.698  0.00  0.00    -0.503 OA
ATOM     16  H   LIG     1     156.020 155.769 152.318  0.00  0.00     0.292 HD
ENDBRANCH   2  15
TORSDOF 5
ENDMDL
MODEL 9
REMARK VINA RESULT:      -5.4     17.041     18.806
REMARK  5 active torsions:
REMARK  status: ('A' for Active; 'I' for Inactive)
REMARK    1  A    between atoms: C_3  and  O_1 
REMARK    2  A    between atoms: C_4  and  O_14 
REMARK    3  A    between atoms: C_7  and  C_8 
REMARK    4  A    between atoms: C_9  and  C_10 
REMARK    5  A    between atoms: C_10  and  O_12 
ROOT
ATOM      1  C   LIG     1     153.624 156.220 152.562  0.00  0.00     0.162 A 
ATOM      2  C   LIG     1     154.807 156.954 152.462  0.00  0.00     0.158 A 
ATOM      3  C   LIG     1     154.770 158.281 152.035  0.00  0.00     0.050 A 
ATOM      4  C   LIG     1     153.550 158.875 151.708  0.00  0.00     0.012 A 
ATOM      5  C   LIG     1     152.369 158.142 151.808  0.00  0.00    -0.021 A 
ATOM      6  C   LIG     1     152.405 156.814 152.235  0.00  0.00     0.057 A 
ENDROOT
BRANCH   5   7
ATOM      7  C   LIG     1     151.098 158.761 151.468  0.00  0.00     0.015 C 
ATOM      8  C   LIG     1     150.607 159.893 152.021  0.00  0.00     0.092 C 
BRANCH   8   9
ATOM      9  C   LIG     1     149.303 160.428 151.581  0.00  0.00     0.330 C 
ATOM     10  O   LIG     1     148.860 160.413 150.444  0.00  0.00    -0.246 OA
BRANCH   9  11
ATOM     11  O   LIG     1     148.662 160.946 152.654  0.00  0.00    -0.478 OA
ATOM     12  H   LIG     1     149.149 160.780 153.488  0.00  0.00     0.295 HD
ENDBRANCH   9  11
ENDBRANCH   8   9
ENDBRANCH   5   7
BRANCH   1  13
ATOM     13  O   LIG     1     153.647 154.922 152.977  0.00  0.00    -0.491 OA
ATOM     14  C   LIG     1     153.338 154.675 154.347  0.00  0.00     0.277 C 
ENDBRANCH   1  13
BRANCH   2  15
ATOM     15  O   LIG     1     156.003 156.384 152.777  0.00  0.00    -0.503 OA
ATOM     16  H   LIG     1     156.077 155.529 152.319  0.00  0.00     0.292 HD
ENDBRANCH   2  15
TORSDOF 5
ENDMDL
MODEL 10
REMARK VINA RESULT:      -5.3     17.483     19.143
REMARK  5 active torsions:
REMARK  status: ('A' for Active; 'I' for Inactive)
REMARK    1  A    between atoms: C_3  and  O_1 
REMARK    2  A    between atoms: C_4  and  O_14 
REMARK    3  A    between atoms: C_7  and  C_8 
REMARK    4  A    between atoms: C_9  and  C_10 
REMARK    5  A    between atoms: C_10  and  O_12 
ROOT
ATOM      1  C   LIG     1     153.396 154.149 152.196  0.00  0.00     0.162 A 
ATOM      2  C   LIG     1     154.776 154.194 151.991  0.00  0.00     0.158 A 
ATOM      3  C   LIG     1     155.423 155.424 151.876  0.00  0.00     0.050 A 
ATOM      4  C   LIG     1     154.691 156.609 151.964  0.00  0.00     0.012 A 
ATOM      5  C   LIG     1     153.313 156.563 152.169  0.00  0.00    -0.021 A 
ATOM      6  C   LIG     1     152.664 155.333 152.284  0.00  0.00     0.057 A 
ENDROOT
BRANCH   5   7
ATOM      7  C   LIG     1     152.550 157.797 152.262  0.00  0.00     0.015 C 
ATOM      8  C   LIG     1     153.032 159.035 152.011  0.00  0.00     0.092 C 
BRANCH   8   9
ATOM      9  C   LIG     1     152.149 160.212 152.133  0.00  0.00     0.330 C 
ATOM     10  O   LIG     1     152.332 161.310 151.632  0.00  0.00    -0.246 OA
BRANCH   9  11
ATOM     11  O   LIG     1     151.085 159.879 152.899  0.00  0.00    -0.478 OA
ATOM     12  H   LIG     1     150.813 158.946 152.765  0.00  0.00     0.295 HD
ENDBRANCH   9  11
ENDBRANCH   8   9
ENDBRANCH   5   7
BRANCH   1  13
ATOM     13  O   LIG     1     152.752 152.953 152.309  0.00  0.00    -0.491 OA
ATOM     14  C   LIG     1     151.987 152.521 151.186  0.00  0.00     0.277 C 
ENDBRANCH   1  13
BRANCH   2  15
ATOM     15  O   LIG     1     155.500 153.044 151.901  0.00  0.00    -0.503 OA
ATOM     16  H   LIG     1     155.155 152.401 152.544  0.00  0.00     0.292 HD
ENDBRANCH   2  15
TORSDOF 5
ENDMDL
