MODEL 1
REMARK VINA RESULT:      -9.9      0.000      0.000
REMARK  Name = 5280637
REMARK                            x       y       z     vdW  Elec       q    Type
REMARK                         _______ _______ _______ _____ _____    ______ ____
ROOT
ATOM     13  C   LIG    1      186.042 177.225 179.542  0.00  0.00    +0.131 A 
ATOM     14  C   LIG    1      186.098 176.688 180.828  0.00  0.00    +0.092 A 
ATOM     15  C   LIG    1      184.920 176.429 181.531  0.00  0.00    +0.135 A 
ATOM     16  C   LIG    1      183.688 176.710 180.938  0.00  0.00    +0.105 A 
ATOM     17  C   LIG    1      182.430 176.450 181.655  0.00  0.00    +0.197 A 
ATOM     18  C   LIG    1      181.186 176.784 180.932  0.00  0.00    +0.098 A 
ATOM     19  C   LIG    1      181.262 177.291 179.691  0.00  0.00    +0.139 A 
ATOM     30  O   LIG    1      182.449 177.543 179.022  0.00  0.00    -0.454 OA
ATOM     31  O   LIG    1      182.406 175.984 182.785  0.00  0.00    -0.287 OA
ATOM     32  C   LIG    1      183.631 177.247 179.652  0.00  0.00    +0.146 A 
ATOM     35  C   LIG    1      184.809 177.505 178.952  0.00  0.00    +0.093 A 
ENDROOT
BRANCH  19  20
ATOM     20  C   LIG    1      180.052 177.652 178.924  0.00  0.00    +0.021 A 
ATOM     21  C   LIG    1      180.107 177.747 177.532  0.00  0.00    +0.015 A 
ATOM     22  C   LIG    1      178.965 178.089 176.808  0.00  0.00    +0.050 A 
ATOM     23  C   LIG    1      177.765 178.335 177.474  0.00  0.00    +0.158 A 
ATOM     24  C   LIG    1      177.707 178.242 178.864  0.00  0.00    +0.159 A 
ATOM     29  C   LIG    1      178.849 177.900 179.589  0.00  0.00    +0.060 A 
BRANCH  24  25
ATOM     25  O   LIG    1      176.539 178.479 179.525  0.00  0.00    -0.503 OA
ATOM     26  H   LIG    1      176.751 178.757 180.432  0.00  0.00    +0.292 HD
ENDBRANCH  24  25
BRANCH  23  27
ATOM     27  O   LIG    1      176.657 178.669 176.755  0.00  0.00    -0.503 OA
ATOM     28  H   LIG    1      176.196 179.400 177.204  0.00  0.00    +0.292 HD
ENDBRANCH  23  27
ENDBRANCH  19  20
BRANCH  15  33
ATOM     33  O   LIG    1      185.028 175.905 182.784  0.00  0.00    -0.506 OA
ATOM     34  H   LIG    1      185.954 175.895 183.071  0.00  0.00    +0.292 HD
ENDBRANCH  15  33
BRANCH  13  12
ATOM     12  O   LIG    1      187.196 177.477 178.859  0.00  0.00    -0.461 OA
BRANCH  12   2
ATOM      1  O   LIG    1      189.352 177.498 179.750  0.00  0.00    -0.331 OA
ATOM      2  C   LIG    1      188.327 176.676 179.199  0.00  0.00    +0.339 C 
ATOM      3  C   LIG    1      188.817 175.990 177.923  0.00  0.00    +0.214 C 
ATOM      4  C   LIG    1      190.120 175.227 178.168  0.00  0.00    +0.180 C 
ATOM      5  C   LIG    1      191.139 176.095 178.905  0.00  0.00    +0.177 C 
ATOM     36  C   LIG    1      190.507 176.749 180.135  0.00  0.00    +0.179 C 
BRANCH   5   6
ATOM      6  O   LIG    1      192.239 175.285 179.314  0.00  0.00    -0.386 OA
ATOM      7  H   LIG    1      192.428 174.653 178.600  0.00  0.00    +0.210 HD
ENDBRANCH   5   6
BRANCH   4   8
ATOM      8  O   LIG    1      190.688 174.844 176.914  0.00  0.00    -0.386 OA
ATOM      9  H   LIG    1      191.471 175.402 176.768  0.00  0.00    +0.210 HD
ENDBRANCH   4   8
BRANCH   3  10
ATOM     10  O   LIG    1      187.808 175.078 177.489  0.00  0.00    -0.383 OA
ATOM     11  H   LIG    1      187.612 175.268 176.556  0.00  0.00    +0.210 HD
ENDBRANCH   3  10
BRANCH  36  37
ATOM     37  C   LIG    1      191.472 177.712 180.821  0.00  0.00    +0.190 C 
BRANCH  37  38
ATOM     38  O   LIG    1      190.718 178.650 181.566  0.00  0.00    -0.392 OA
ATOM     39  H   LIG    1      189.802 178.325 181.611  0.00  0.00    +0.210 HD
ENDBRANCH  37  38
ENDBRANCH  36  37
ENDBRANCH  12   2
ENDBRANCH  13  12
TORSDOF 11
ENDMDL
MODEL 2
REMARK VINA RESULT:      -9.4      1.917      2.861
REMARK  Name = 5280637
REMARK                            x       y       z     vdW  Elec       q    Type
REMARK                         _______ _______ _______ _____ _____    ______ ____
ROOT
ATOM     13  C   LIG    1      186.207 177.445 181.784  0.00  0.00    +0.131 A 
ATOM     14  C   LIG    1      185.877 177.759 183.102  0.00  0.00    +0.092 A 
ATOM     15  C   LIG    1      184.539 177.895 183.477  0.00  0.00    +0.135 A 
ATOM     16  C   LIG    1      183.535 177.714 182.524  0.00  0.00    +0.105 A 
ATOM     17  C   LIG    1      182.117 177.853 182.888  0.00  0.00    +0.197 A 
ATOM     18  C   LIG    1      181.140 177.638 181.801  0.00  0.00    +0.098 A 
ATOM     19  C   LIG    1      181.581 177.333 180.571  0.00  0.00    +0.139 A 
ATOM     30  O   LIG    1      182.919 177.211 180.228  0.00  0.00    -0.454 OA
ATOM     31  O   LIG    1      181.758 178.130 184.024  0.00  0.00    -0.287 OA
ATOM     32  C   LIG    1      183.864 177.399 181.206  0.00  0.00    +0.146 A 
ATOM     35  C   LIG    1      185.201 177.265 180.834  0.00  0.00    +0.093 A 
ENDROOT
BRANCH  19  20
ATOM     20  C   LIG    1      180.651 177.116 179.443  0.00  0.00    +0.021 A 
ATOM     21  C   LIG    1      179.277 177.275 179.628  0.00  0.00    +0.015 A 
ATOM     22  C   LIG    1      178.399 177.068 178.564  0.00  0.00    +0.050 A 
ATOM     23  C   LIG    1      178.894 176.704 177.311  0.00  0.00    +0.158 A 
ATOM     24  C   LIG    1      180.267 176.544 177.124  0.00  0.00    +0.159 A 
ATOM     29  C   LIG    1      181.145 176.751 178.188  0.00  0.00    +0.060 A 
BRANCH  24  25
ATOM     25  O   LIG    1      180.761 176.191 175.905  0.00  0.00    -0.503 OA
ATOM     26  H   LIG    1      180.190 176.577 175.219  0.00  0.00    +0.292 HD
ENDBRANCH  24  25
BRANCH  23  27
ATOM     27  O   LIG    1      178.026 176.505 176.280  0.00  0.00    -0.503 OA
ATOM     28  H   LIG    1      178.364 175.788 175.716  0.00  0.00    +0.292 HD
ENDBRANCH  23  27
ENDBRANCH  19  20
BRANCH  15  33
ATOM     33  O   LIG    1      184.269 178.204 184.776  0.00  0.00    -0.506 OA
ATOM     34  H   LIG    1      184.713 177.583 185.373  0.00  0.00    +0.292 HD
ENDBRANCH  15  33
BRANCH  13  12
ATOM     12  O   LIG    1      187.516 177.314 181.423  0.00  0.00    -0.461 OA
BRANCH  12   2
ATOM      1  O   LIG    1      188.272 175.395 180.332  0.00  0.00    -0.331 OA
ATOM      2  C   LIG    1      187.770 176.717 180.152  0.00  0.00    +0.339 C 
ATOM      3  C   LIG    1      188.795 177.585 179.422  0.00  0.00    +0.214 C 
ATOM      4  C   LIG    1      189.239 176.936 178.110  0.00  0.00    +0.180 C 
ATOM      5  C   LIG    1      189.618 175.470 178.318  0.00  0.00    +0.177 C 
ATOM     36  C   LIG    1      188.524 174.731 179.093  0.00  0.00    +0.179 C 
BRANCH   5   6
ATOM      6  O   LIG    1      189.801 174.846 177.049  0.00  0.00    -0.386 OA
ATOM      7  H   LIG    1      189.205 174.079 177.004  0.00  0.00    +0.210 HD
ENDBRANCH   5   6
BRANCH   4   8
ATOM      8  O   LIG    1      190.386 177.622 177.605  0.00  0.00    -0.386 OA
ATOM      9  H   LIG    1      190.268 177.717 176.644  0.00  0.00    +0.210 HD
ENDBRANCH   4   8
BRANCH   3  10
ATOM     10  O   LIG    1      188.195 178.850 179.145  0.00  0.00    -0.383 OA
ATOM     11  H   LIG    1      187.232 178.723 179.096  0.00  0.00    +0.210 HD
ENDBRANCH   3  10
BRANCH  36  37
ATOM     37  C   LIG    1      188.932 173.296 179.414  0.00  0.00    +0.190 C 
BRANCH  37  38
ATOM     38  O   LIG    1      190.328 173.266 179.648  0.00  0.00    -0.392 OA
ATOM     39  H   LIG    1      190.472 172.870 180.525  0.00  0.00    +0.210 HD
ENDBRANCH  37  38
ENDBRANCH  36  37
ENDBRANCH  12   2
ENDBRANCH  13  12
TORSDOF 11
ENDMDL
MODEL 3
REMARK VINA RESULT:      -9.1     37.325     42.810
REMARK  Name = 5280637
REMARK                            x       y       z     vdW  Elec       q    Type
REMARK                         _______ _______ _______ _____ _____    ______ ____
ROOT
ATOM     13  C   LIG    1      150.305 197.936 165.585  0.00  0.00    +0.131 A 
ATOM     14  C   LIG    1      150.130 199.309 165.756  0.00  0.00    +0.092 A 
ATOM     15  C   LIG    1      148.902 199.811 166.191  0.00  0.00    +0.135 A 
ATOM     16  C   LIG    1      147.852 198.929 166.454  0.00  0.00    +0.105 A 
ATOM     17  C   LIG    1      146.546 199.427 166.912  0.00  0.00    +0.197 A 
ATOM     18  C   LIG    1      145.508 198.406 167.161  0.00  0.00    +0.098 A 
ATOM     19  C   LIG    1      145.800 197.110 166.966  0.00  0.00    +0.139 A 
ATOM     30  O   LIG    1      147.030 196.644 166.526  0.00  0.00    -0.454 OA
ATOM     31  O   LIG    1      146.323 200.618 167.079  0.00  0.00    -0.287 OA
ATOM     32  C   LIG    1      148.026 197.556 166.284  0.00  0.00    +0.146 A 
ATOM     35  C   LIG    1      149.253 197.057 165.848  0.00  0.00    +0.093 A 
ENDROOT
BRANCH  19  20
ATOM     20  C   LIG    1      144.800 196.046 167.190  0.00  0.00    +0.021 A 
ATOM     21  C   LIG    1      144.769 194.927 166.356  0.00  0.00    +0.015 A 
ATOM     22  C   LIG    1      143.824 193.923 166.567  0.00  0.00    +0.050 A 
ATOM     23  C   LIG    1      142.909 194.035 167.614  0.00  0.00    +0.158 A 
ATOM     24  C   LIG    1      142.938 195.152 168.448  0.00  0.00    +0.159 A 
ATOM     29  C   LIG    1      143.883 196.156 168.237  0.00  0.00    +0.060 A 
BRANCH  24  25
ATOM     25  O   LIG    1      142.049 195.271 169.475  0.00  0.00    -0.503 OA
ATOM     26  H   LIG    1      142.546 195.279 170.310  0.00  0.00    +0.292 HD
ENDBRANCH  24  25
BRANCH  23  27
ATOM     27  O   LIG    1      141.990 193.048 167.809  0.00  0.00    -0.503 OA
ATOM     28  H   LIG    1      142.107 192.678 168.701  0.00  0.00    +0.292 HD
ENDBRANCH  23  27
ENDBRANCH  19  20
BRANCH  15  33
ATOM     33  O   LIG    1      148.781 201.159 166.342  0.00  0.00    -0.506 OA
ATOM     34  H   LIG    1      148.659 201.589 165.482  0.00  0.00    +0.292 HD
ENDBRANCH  15  33
BRANCH  13  12
ATOM     12  O   LIG    1      151.507 197.451 165.159  0.00  0.00    -0.461 OA
BRANCH  12   2
ATOM      1  O   LIG    1      153.461 197.852 166.368  0.00  0.00    -0.331 OA
ATOM      2  C   LIG    1      152.382 196.943 166.165  0.00  0.00    +0.339 C 
ATOM      3  C   LIG    1      152.906 195.587 165.690  0.00  0.00    +0.214 C 
ATOM      4  C   LIG    1      153.970 195.038 166.641  0.00  0.00    +0.180 C 
ATOM      5  C   LIG    1      155.025 196.097 166.962  0.00  0.00    +0.177 C 
ATOM     36  C   LIG    1      154.364 197.411 167.385  0.00  0.00    +0.179 C 
BRANCH   5   6
ATOM      6  O   LIG    1      155.858 195.627 168.018  0.00  0.00    -0.386 OA
ATOM      7  H   LIG    1      156.230 196.402 168.475  0.00  0.00    +0.210 HD
ENDBRANCH   5   6
BRANCH   4   8
ATOM      8  O   LIG    1      154.629 193.929 166.027  0.00  0.00    -0.386 OA
ATOM      9  H   LIG    1      154.446 193.144 166.573  0.00  0.00    +0.210 HD
ENDBRANCH   4   8
BRANCH   3  10
ATOM     10  O   LIG    1      151.808 194.677 165.633  0.00  0.00    -0.383 OA
ATOM     11  H   LIG    1      151.339 194.823 164.793  0.00  0.00    +0.210 HD
ENDBRANCH   3  10
BRANCH  36  37
ATOM     37  C   LIG    1      155.393 198.517 167.597  0.00  0.00    +0.190 C 
BRANCH  37  38
ATOM     38  O   LIG    1      156.570 198.179 166.888  0.00  0.00    -0.392 OA
ATOM     39  H   LIG    1      156.317 197.586 166.160  0.00  0.00    +0.210 HD
ENDBRANCH  37  38
ENDBRANCH  36  37
ENDBRANCH  12   2
ENDBRANCH  13  12
TORSDOF 11
ENDMDL
MODEL 4
REMARK VINA RESULT:      -9.0     14.503     19.907
REMARK  Name = 5280637
REMARK                            x       y       z     vdW  Elec       q    Type
REMARK                         _______ _______ _______ _____ _____    ______ ____
ROOT
ATOM     13  C   LIG    1      167.613 180.275 171.206  0.00  0.00    +0.131 A 
ATOM     14  C   LIG    1      167.337 181.512 170.624  0.00  0.00    +0.092 A 
ATOM     15  C   LIG    1      166.094 182.117 170.818  0.00  0.00    +0.135 A 
ATOM     16  C   LIG    1      165.130 181.475 171.598  0.00  0.00    +0.105 A 
ATOM     17  C   LIG    1      163.811 182.087 171.820  0.00  0.00    +0.197 A 
ATOM     18  C   LIG    1      162.870 181.322 172.663  0.00  0.00    +0.098 A 
ATOM     19  C   LIG    1      163.255 180.141 173.174  0.00  0.00    +0.139 A 
ATOM     30  O   LIG    1      164.496 179.563 172.957  0.00  0.00    -0.454 OA
ATOM     31  O   LIG    1      163.502 183.167 171.336  0.00  0.00    -0.287 OA
ATOM     32  C   LIG    1      165.405 180.239 172.182  0.00  0.00    +0.146 A 
ATOM     35  C   LIG    1      166.647 179.636 171.986  0.00  0.00    +0.093 A 
ENDROOT
BRANCH  19  20
ATOM     20  C   LIG    1      162.353 179.329 174.016  0.00  0.00    +0.021 A 
ATOM     21  C   LIG    1      162.819 178.154 174.611  0.00  0.00    +0.015 A 
ATOM     22  C   LIG    1      161.968 177.386 175.405  0.00  0.00    +0.050 A 
ATOM     23  C   LIG    1      160.649 177.791 175.608  0.00  0.00    +0.158 A 
ATOM     24  C   LIG    1      160.180 178.964 175.014  0.00  0.00    +0.159 A 
ATOM     29  C   LIG    1      161.032 179.732 174.220  0.00  0.00    +0.060 A 
BRANCH  24  25
ATOM     25  O   LIG    1      158.894 179.369 175.207  0.00  0.00    -0.503 OA
ATOM     26  H   LIG    1      158.495 178.806 175.892  0.00  0.00    +0.292 HD
ENDBRANCH  24  25
BRANCH  23  27
ATOM     27  O   LIG    1      159.827 177.032 176.385  0.00  0.00    -0.503 OA
ATOM     28  H   LIG    1      159.324 176.425 175.815  0.00  0.00    +0.292 HD
ENDBRANCH  23  27
ENDBRANCH  19  20
BRANCH  15  33
ATOM     33  O   LIG    1      165.874 183.324 170.227  0.00  0.00    -0.506 OA
ATOM     34  H   LIG    1      165.388 183.214 169.397  0.00  0.00    +0.292 HD
ENDBRANCH  15  33
BRANCH  13  12
ATOM     12  O   LIG    1      168.829 179.687 171.013  0.00  0.00    -0.461 OA
BRANCH  12   2
ATOM      1  O   LIG    1      170.683 180.626 172.073  0.00  0.00    -0.331 OA
ATOM      2  C   LIG    1      169.687 179.609 172.150  0.00  0.00    +0.339 C 
ATOM      3  C   LIG    1      170.335 178.224 172.155  0.00  0.00    +0.214 C 
ATOM      4  C   LIG    1      171.388 178.106 173.258  0.00  0.00    +0.180 C 
ATOM      5  C   LIG    1      172.341 179.300 173.242  0.00  0.00    +0.177 C 
ATOM     36  C   LIG    1      171.563 180.617 173.199  0.00  0.00    +0.179 C 
BRANCH   5   6
ATOM      6  O   LIG    1      173.153 179.271 174.414  0.00  0.00    -0.386 OA
ATOM      7  H   LIG    1      172.574 179.410 175.183  0.00  0.00    +0.210 HD
ENDBRANCH   5   6
BRANCH   4   8
ATOM      8  O   LIG    1      172.159 176.921 173.055  0.00  0.00    -0.386 OA
ATOM      9  H   LIG    1      171.561 176.162 173.170  0.00  0.00    +0.210 HD
ENDBRANCH   4   8
BRANCH   3  10
ATOM     10  O   LIG    1      169.313 177.251 172.370  0.00  0.00    -0.383 OA
ATOM     11  H   LIG    1      169.628 176.627 173.046  0.00  0.00    +0.210 HD
ENDBRANCH   3  10
BRANCH  36  37
ATOM     37  C   LIG    1      172.493 181.819 173.064  0.00  0.00    +0.190 C 
BRANCH  37  38
ATOM     38  O   LIG    1      172.925 182.200 174.357  0.00  0.00    -0.392 OA
ATOM     39  H   LIG    1      173.831 182.545 174.276  0.00  0.00    +0.210 HD
ENDBRANCH  37  38
ENDBRANCH  36  37
ENDBRANCH  12   2
ENDBRANCH  13  12
TORSDOF 11
ENDMDL
MODEL 5
REMARK VINA RESULT:      -8.8     14.463     19.035
REMARK  Name = 5280637
REMARK                            x       y       z     vdW  Elec       q    Type
REMARK                         _______ _______ _______ _____ _____    ______ ____
ROOT
ATOM     13  C   LIG    1      169.917 183.190 172.484  0.00  0.00    +0.131 A 
ATOM     14  C   LIG    1      170.547 183.074 171.245  0.00  0.00    +0.092 A 
ATOM     15  C   LIG    1      170.693 184.194 170.425  0.00  0.00    +0.135 A 
ATOM     16  C   LIG    1      170.205 185.430 170.854  0.00  0.00    +0.105 A 
ATOM     17  C   LIG    1      170.343 186.628 170.012  0.00  0.00    +0.197 A 
ATOM     18  C   LIG    1      169.793 187.882 170.565  0.00  0.00    +0.098 A 
ATOM     19  C   LIG    1      169.213 187.868 171.776  0.00  0.00    +0.139 A 
ATOM     30  O   LIG    1      169.077 186.736 172.564  0.00  0.00    -0.454 OA
ATOM     31  O   LIG    1      170.881 186.596 168.914  0.00  0.00    -0.287 OA
ATOM     32  C   LIG    1      169.576 185.547 172.093  0.00  0.00    +0.146 A 
ATOM     35  C   LIG    1      169.430 184.427 172.910  0.00  0.00    +0.093 A 
ENDROOT
BRANCH  19  20
ATOM     20  C   LIG    1      168.637 189.089 172.376  0.00  0.00    +0.021 A 
ATOM     21  C   LIG    1      168.190 190.128 171.557  0.00  0.00    +0.015 A 
ATOM     22  C   LIG    1      167.647 191.281 172.124  0.00  0.00    +0.050 A 
ATOM     23  C   LIG    1      167.551 191.399 173.511  0.00  0.00    +0.158 A 
ATOM     24  C   LIG    1      167.999 190.363 174.331  0.00  0.00    +0.159 A 
ATOM     29  C   LIG    1      168.541 189.209 173.764  0.00  0.00    +0.060 A 
BRANCH  24  25
ATOM     25  O   LIG    1      167.907 190.466 175.686  0.00  0.00    -0.503 OA
ATOM     26  H   LIG    1      168.525 189.829 176.084  0.00  0.00    +0.292 HD
ENDBRANCH  24  25
BRANCH  23  27
ATOM     27  O   LIG    1      167.021 192.530 174.052  0.00  0.00    -0.503 OA
ATOM     28  H   LIG    1      166.649 193.078 173.339  0.00  0.00    +0.292 HD
ENDBRANCH  23  27
ENDBRANCH  19  20
BRANCH  15  33
ATOM     33  O   LIG    1      171.315 184.028 169.225  0.00  0.00    -0.506 OA
ATOM     34  H   LIG    1      170.707 184.223 168.496  0.00  0.00    +0.292 HD
ENDBRANCH  15  33
BRANCH  13  12
ATOM     12  O   LIG    1      169.776 182.092 173.282  0.00  0.00    -0.461 OA
BRANCH  12   2
ATOM      1  O   LIG    1      169.926 179.925 172.431  0.00  0.00    -0.331 OA
ATOM      2  C   LIG    1      170.654 180.998 173.023  0.00  0.00    +0.339 C 
ATOM      3  C   LIG    1      171.266 180.561 174.354  0.00  0.00    +0.214 C 
ATOM      4  C   LIG    1      172.107 179.294 174.190  0.00  0.00    +0.180 C 
ATOM      5  C   LIG    1      171.347 178.222 173.409  0.00  0.00    +0.177 C 
ATOM     36  C   LIG    1      170.757 178.803 172.123  0.00  0.00    +0.179 C 
BRANCH   5   6
ATOM      6  O   LIG    1      172.237 177.158 173.081  0.00  0.00    -0.386 OA
ATOM      7  H   LIG    1      173.056 177.284 173.591  0.00  0.00    +0.210 HD
ENDBRANCH   5   6
BRANCH   4   8
ATOM      8  O   LIG    1      172.423 178.764 175.479  0.00  0.00    -0.386 OA
ATOM      9  H   LIG    1      173.027 178.013 175.343  0.00  0.00    +0.210 HD
ENDBRANCH   4   8
BRANCH   3  10
ATOM     10  O   LIG    1      172.093 181.620 174.836  0.00  0.00    -0.383 OA
ATOM     11  H   LIG    1      171.823 181.822 175.748  0.00  0.00    +0.210 HD
ENDBRANCH   3  10
BRANCH  36  37
ATOM     37  C   LIG    1      169.895 177.782 171.386  0.00  0.00    +0.190 C 
BRANCH  37  38
ATOM     38  O   LIG    1      169.374 176.866 172.331  0.00  0.00    -0.392 OA
ATOM     39  H   LIG    1      170.127 176.468 172.802  0.00  0.00    +0.210 HD
ENDBRANCH  37  38
ENDBRANCH  36  37
ENDBRANCH  12   2
ENDBRANCH  13  12
TORSDOF 11
ENDMDL
MODEL 6
REMARK VINA RESULT:      -8.8     14.638     19.958
REMARK  Name = 5280637
REMARK                            x       y       z     vdW  Elec       q    Type
REMARK                         _______ _______ _______ _____ _____    ______ ____
ROOT
ATOM     13  C   LIG    1      167.970 179.501 171.541  0.00  0.00    +0.131 A 
ATOM     14  C   LIG    1      167.362 178.279 171.828  0.00  0.00    +0.092 A 
ATOM     15  C   LIG    1      165.976 178.202 171.971  0.00  0.00    +0.135 A 
ATOM     16  C   LIG    1      165.203 179.355 171.825  0.00  0.00    +0.105 A 
ATOM     17  C   LIG    1      163.741 179.306 171.971  0.00  0.00    +0.197 A 
ATOM     18  C   LIG    1      163.023 180.585 171.794  0.00  0.00    +0.098 A 
ATOM     19  C   LIG    1      163.721 181.697 171.513  0.00  0.00    +0.139 A 
ATOM     30  O   LIG    1      165.100 181.742 171.384  0.00  0.00    -0.454 OA
ATOM     31  O   LIG    1      163.144 178.269 172.226  0.00  0.00    -0.287 OA
ATOM     32  C   LIG    1      165.810 180.578 171.537  0.00  0.00    +0.146 A 
ATOM     35  C   LIG    1      167.195 180.652 171.396  0.00  0.00    +0.093 A 
ENDROOT
BRANCH  19  20
ATOM     20  C   LIG    1      163.058 183.005 171.334  0.00  0.00    +0.021 A 
ATOM     21  C   LIG    1      162.348 183.277 170.163  0.00  0.00    +0.015 A 
ATOM     22  C   LIG    1      161.723 184.512 169.994  0.00  0.00    +0.050 A 
ATOM     23  C   LIG    1      161.807 185.480 170.996  0.00  0.00    +0.158 A 
ATOM     24  C   LIG    1      162.517 185.211 172.166  0.00  0.00    +0.159 A 
ATOM     29  C   LIG    1      163.142 183.976 172.336  0.00  0.00    +0.060 A 
BRANCH  24  25
ATOM     25  O   LIG    1      162.604 186.148 173.152  0.00  0.00    -0.503 OA
ATOM     26  H   LIG    1      163.160 186.879 172.831  0.00  0.00    +0.292 HD
ENDBRANCH  24  25
BRANCH  23  27
ATOM     27  O   LIG    1      161.194 186.683 170.818  0.00  0.00    -0.503 OA
ATOM     28  H   LIG    1      160.357 186.689 171.314  0.00  0.00    +0.292 HD
ENDBRANCH  23  27
ENDBRANCH  19  20
BRANCH  15  33
ATOM     33  O   LIG    1      165.431 176.985 172.252  0.00  0.00    -0.506 OA
ATOM     34  H   LIG    1      166.080 176.414 172.691  0.00  0.00    +0.292 HD
ENDBRANCH  15  33
BRANCH  13  12
ATOM     12  O   LIG    1      169.326 179.572 171.403  0.00  0.00    -0.461 OA
BRANCH  12   2
ATOM      1  O   LIG    1      170.616 181.481 171.765  0.00  0.00    -0.331 OA
ATOM      2  C   LIG    1      170.028 180.338 172.380  0.00  0.00    +0.339 C 
ATOM      3  C   LIG    1      171.106 179.444 172.993  0.00  0.00    +0.214 C 
ATOM      4  C   LIG    1      172.006 180.231 173.946  0.00  0.00    +0.180 C 
ATOM      5  C   LIG    1      172.488 181.532 173.304  0.00  0.00    +0.177 C 
ATOM     36  C   LIG    1      171.316 182.307 172.698  0.00  0.00    +0.179 C 
BRANCH   5   6
ATOM      6  O   LIG    1      173.126 182.338 174.292  0.00  0.00    -0.386 OA
ATOM      7  H   LIG    1      174.074 182.120 174.290  0.00  0.00    +0.210 HD
ENDBRANCH   5   6
BRANCH   4   8
ATOM      8  O   LIG    1      173.154 179.447 174.273  0.00  0.00    -0.386 OA
ATOM      9  H   LIG    1      172.954 178.968 175.096  0.00  0.00    +0.210 HD
ENDBRANCH   4   8
BRANCH   3  10
ATOM     10  O   LIG    1      170.462 178.392 173.711  0.00  0.00    -0.383 OA
ATOM     11  H   LIG    1      169.527 178.372 173.442  0.00  0.00    +0.210 HD
ENDBRANCH   3  10
BRANCH  36  37
ATOM     37  C   LIG    1      171.787 183.550 171.950  0.00  0.00    +0.190 C 
BRANCH  37  38
ATOM     38  O   LIG    1      173.113 183.332 171.505  0.00  0.00    -0.392 OA
ATOM     39  H   LIG    1      173.222 183.800 170.659  0.00  0.00    +0.210 HD
ENDBRANCH  37  38
ENDBRANCH  36  37
ENDBRANCH  12   2
ENDBRANCH  13  12
TORSDOF 11
ENDMDL
MODEL 7
REMARK VINA RESULT:      -8.6     35.705     42.734
REMARK  Name = 5280637
REMARK                            x       y       z     vdW  Elec       q    Type
REMARK                         _______ _______ _______ _____ _____    ______ ____
ROOT
ATOM     13  C   LIG    1      153.449 189.313 152.587  0.00  0.00    +0.131 A 
ATOM     14  C   LIG    1      152.189 189.876 152.784  0.00  0.00    +0.092 A 
ATOM     15  C   LIG    1      151.568 189.787 154.031  0.00  0.00    +0.135 A 
ATOM     16  C   LIG    1      152.217 189.130 155.078  0.00  0.00    +0.105 A 
ATOM     17  C   LIG    1      151.588 189.018 156.403  0.00  0.00    +0.197 A 
ATOM     18  C   LIG    1      152.365 188.304 157.437  0.00  0.00    +0.098 A 
ATOM     19  C   LIG    1      153.574 187.809 157.126  0.00  0.00    +0.139 A 
ATOM     30  O   LIG    1      154.161 187.909 155.874  0.00  0.00    -0.454 OA
ATOM     31  O   LIG    1      150.484 189.486 156.644  0.00  0.00    -0.287 OA
ATOM     32  C   LIG    1      153.478 188.566 154.882  0.00  0.00    +0.146 A 
ATOM     35  C   LIG    1      154.095 188.656 153.635  0.00  0.00    +0.093 A 
ENDROOT
BRANCH  19  20
ATOM     20  C   LIG    1      154.392 187.078 158.116  0.00  0.00    +0.021 A 
ATOM     21  C   LIG    1      154.936 187.753 159.210  0.00  0.00    +0.015 A 
ATOM     22  C   LIG    1      155.710 187.064 160.144  0.00  0.00    +0.050 A 
ATOM     23  C   LIG    1      155.940 185.697 159.986  0.00  0.00    +0.158 A 
ATOM     24  C   LIG    1      155.398 185.020 158.893  0.00  0.00    +0.159 A 
ATOM     29  C   LIG    1      154.624 185.710 157.959  0.00  0.00    +0.060 A 
BRANCH  24  25
ATOM     25  O   LIG    1      155.615 183.685 158.731  0.00  0.00    -0.503 OA
ATOM     26  H   LIG    1      156.312 183.567 158.063  0.00  0.00    +0.292 HD
ENDBRANCH  24  25
BRANCH  23  27
ATOM     27  O   LIG    1      156.698 185.035 160.904  0.00  0.00    -0.503 OA
ATOM     28  H   LIG    1      156.143 184.811 161.671  0.00  0.00    +0.292 HD
ENDBRANCH  23  27
ENDBRANCH  19  20
BRANCH  15  33
ATOM     33  O   LIG    1      150.337 190.353 154.173  0.00  0.00    -0.506 OA
ATOM     34  H   LIG    1      150.232 190.722 155.062  0.00  0.00    +0.292 HD
ENDBRANCH  15  33
BRANCH  13  12
ATOM     12  O   LIG    1      154.051 189.402 151.366  0.00  0.00    -0.461 OA
BRANCH  12   2
ATOM      1  O   LIG    1      153.271 187.852 149.807  0.00  0.00    -0.331 OA
ATOM      2  C   LIG    1      153.214 189.213 150.226  0.00  0.00    +0.339 C 
ATOM      3  C   LIG    1      153.716 190.137 149.116  0.00  0.00    +0.214 C 
ATOM      4  C   LIG    1      152.968 189.889 147.806  0.00  0.00    +0.180 C 
ATOM      5  C   LIG    1      152.912 188.398 147.473  0.00  0.00    +0.177 C 
ATOM     36  C   LIG    1      152.432 187.590 148.681  0.00  0.00    +0.179 C 
BRANCH   5   6
ATOM      6  O   LIG    1      152.019 188.191 146.382  0.00  0.00    -0.386 OA
ATOM      7  H   LIG    1      151.110 188.239 146.725  0.00  0.00    +0.210 HD
ENDBRANCH   5   6
BRANCH   4   8
ATOM      8  O   LIG    1      153.644 190.556 146.739  0.00  0.00    -0.386 OA
ATOM      9  H   LIG    1      152.985 191.097 146.270  0.00  0.00    +0.210 HD
ENDBRANCH   4   8
BRANCH   3  10
ATOM     10  O   LIG    1      153.512 191.487 149.530  0.00  0.00    -0.383 OA
ATOM     11  H   LIG    1      154.165 192.045 149.073  0.00  0.00    +0.210 HD
ENDBRANCH   3  10
BRANCH  36  37
ATOM     37  C   LIG    1      152.480 186.089 148.410  0.00  0.00    +0.190 C 
BRANCH  37  38
ATOM     38  O   LIG    1      153.495 185.836 147.457  0.00  0.00    -0.392 OA
ATOM     39  H   LIG    1      153.446 186.532 146.780  0.00  0.00    +0.210 HD
ENDBRANCH  37  38
ENDBRANCH  36  37
ENDBRANCH  12   2
ENDBRANCH  13  12
TORSDOF 11
ENDMDL
MODEL 8
REMARK VINA RESULT:      -8.6     36.303     43.122
REMARK  Name = 5280637
REMARK                            x       y       z     vdW  Elec       q    Type
REMARK                         _______ _______ _______ _____ _____    ______ ____
ROOT
ATOM     13  C   LIG    1      151.777 189.148 151.330  0.00  0.00    +0.131 A 
ATOM     14  C   LIG    1      150.672 189.717 151.962  0.00  0.00    +0.092 A 
ATOM     15  C   LIG    1      150.668 189.889 153.347  0.00  0.00    +0.135 A 
ATOM     16  C   LIG    1      151.777 189.487 154.094  0.00  0.00    +0.105 A 
ATOM     17  C   LIG    1      151.802 189.653 155.555  0.00  0.00    +0.197 A 
ATOM     18  C   LIG    1      153.026 189.195 156.244  0.00  0.00    +0.098 A 
ATOM     19  C   LIG    1      154.027 188.667 155.523  0.00  0.00    +0.139 A 
ATOM     30  O   LIG    1      153.998 188.504 154.147  0.00  0.00    -0.454 OA
ATOM     31  O   LIG    1      150.866 190.141 156.173  0.00  0.00    -0.287 OA
ATOM     32  C   LIG    1      152.883 188.918 153.463  0.00  0.00    +0.146 A 
ATOM     35  C   LIG    1      152.884 188.747 152.079  0.00  0.00    +0.093 A 
ENDROOT
BRANCH  19  20
ATOM     20  C   LIG    1      155.271 188.185 156.158  0.00  0.00    +0.021 A 
ATOM     21  C   LIG    1      156.505 188.716 155.777  0.00  0.00    +0.015 A 
ATOM     22  C   LIG    1      157.679 188.259 156.376  0.00  0.00    +0.050 A 
ATOM     23  C   LIG    1      157.622 187.270 157.358  0.00  0.00    +0.158 A 
ATOM     24  C   LIG    1      156.391 186.737 157.739  0.00  0.00    +0.159 A 
ATOM     29  C   LIG    1      155.217 187.194 157.141  0.00  0.00    +0.060 A 
BRANCH  24  25
ATOM     25  O   LIG    1      156.324 185.772 158.699  0.00  0.00    -0.503 OA
ATOM     26  H   LIG    1      155.565 185.197 158.502  0.00  0.00    +0.292 HD
ENDBRANCH  24  25
BRANCH  23  27
ATOM     27  O   LIG    1      158.776 186.832 157.934  0.00  0.00    -0.503 OA
ATOM     28  H   LIG    1      159.413 186.605 157.235  0.00  0.00    +0.292 HD
ENDBRANCH  23  27
ENDBRANCH  19  20
BRANCH  15  33
ATOM     33  O   LIG    1      149.564 190.449 153.917  0.00  0.00    -0.506 OA
ATOM     34  H   LIG    1      149.736 190.673 154.844  0.00  0.00    +0.292 HD
ENDBRANCH  15  33
BRANCH  13  12
ATOM     12  O   LIG    1      151.776 188.982 149.975  0.00  0.00    -0.461 OA
BRANCH  12   2
ATOM      1  O   LIG    1      153.650 188.650 148.627  0.00  0.00    -0.331 OA
ATOM      2  C   LIG    1      152.679 188.010 149.451  0.00  0.00    +0.339 C 
ATOM      3  C   LIG    1      151.866 187.003 148.638  0.00  0.00    +0.214 C 
ATOM      4  C   LIG    1      152.775 186.009 147.914  0.00  0.00    +0.180 C 
ATOM      5  C   LIG    1      153.901 186.728 147.171  0.00  0.00    +0.177 C 
ATOM     36  C   LIG    1      154.603 187.731 148.089  0.00  0.00    +0.179 C 
BRANCH   5   6
ATOM      6  O   LIG    1      154.848 185.769 146.708  0.00  0.00    -0.386 OA
ATOM      7  H   LIG    1      154.368 184.948 146.502  0.00  0.00    +0.210 HD
ENDBRANCH   5   6
BRANCH   4   8
ATOM      8  O   LIG    1      152.010 185.275 146.956  0.00  0.00    -0.386 OA
ATOM      9  H   LIG    1      151.788 185.886 146.233  0.00  0.00    +0.210 HD
ENDBRANCH   4   8
BRANCH   3  10
ATOM     10  O   LIG    1      151.007 186.295 149.532  0.00  0.00    -0.383 OA
ATOM     11  H   LIG    1      151.324 185.377 149.590  0.00  0.00    +0.210 HD
ENDBRANCH   3  10
BRANCH  36  37
ATOM     37  C   LIG    1      155.653 188.544 147.337  0.00  0.00    +0.190 C 
BRANCH  37  38
ATOM     38  O   LIG    1      156.751 187.701 147.043  0.00  0.00    -0.392 OA
ATOM     39  H   LIG    1      156.629 187.362 146.139  0.00  0.00    +0.210 HD
ENDBRANCH  37  38
ENDBRANCH  36  37
ENDBRANCH  12   2
ENDBRANCH  13  12
TORSDOF 11
ENDMDL
MODEL 9
REMARK VINA RESULT:      -8.5     25.290     33.190
REMARK  Name = 5280637
REMARK                            x       y       z     vdW  Elec       q    Type
REMARK                         _______ _______ _______ _____ _____    ______ ____
ROOT
ATOM     13  C   LIG    1      160.133 187.188 159.785  0.00  0.00    +0.131 A 
ATOM     14  C   LIG    1      159.349 187.921 160.677  0.00  0.00    +0.092 A 
ATOM     15  C   LIG    1      159.841 188.243 161.942  0.00  0.00    +0.135 A 
ATOM     16  C   LIG    1      161.123 187.827 162.309  0.00  0.00    +0.105 A 
ATOM     17  C   LIG    1      161.669 188.150 163.636  0.00  0.00    +0.197 A 
ATOM     18  C   LIG    1      163.035 187.663 163.916  0.00  0.00    +0.098 A 
ATOM     19  C   LIG    1      163.693 186.972 162.972  0.00  0.00    +0.139 A 
ATOM     30  O   LIG    1      163.173 186.662 161.725  0.00  0.00    -0.454 OA
ATOM     31  O   LIG    1      161.035 188.785 164.467  0.00  0.00    -0.287 OA
ATOM     32  C   LIG    1      161.908 187.096 161.418  0.00  0.00    +0.146 A 
ATOM     35  C   LIG    1      161.414 186.775 160.155  0.00  0.00    +0.093 A 
ENDROOT
BRANCH  19  20
ATOM     20  C   LIG    1      165.058 186.452 163.199  0.00  0.00    +0.021 A 
ATOM     21  C   LIG    1      166.161 187.122 162.666  0.00  0.00    +0.015 A 
ATOM     22  C   LIG    1      167.448 186.631 162.880  0.00  0.00    +0.050 A 
ATOM     23  C   LIG    1      167.637 185.468 163.628  0.00  0.00    +0.158 A 
ATOM     24  C   LIG    1      166.536 184.796 164.160  0.00  0.00    +0.159 A 
ATOM     29  C   LIG    1      165.248 185.288 163.947  0.00  0.00    +0.060 A 
BRANCH  24  25
ATOM     25  O   LIG    1      166.709 183.661 164.893  0.00  0.00    -0.503 OA
ATOM     26  H   LIG    1      165.995 183.040 164.670  0.00  0.00    +0.292 HD
ENDBRANCH  24  25
BRANCH  23  27
ATOM     27  O   LIG    1      168.899 184.998 163.828  0.00  0.00    -0.503 OA
ATOM     28  H   LIG    1      169.538 185.677 163.550  0.00  0.00    +0.292 HD
ENDBRANCH  23  27
ENDBRANCH  19  20
BRANCH  15  33
ATOM     33  O   LIG    1      159.036 188.959 162.776  0.00  0.00    -0.506 OA
ATOM     34  H   LIG    1      158.380 188.382 163.194  0.00  0.00    +0.292 HD
ENDBRANCH  15  33
BRANCH  13  12
ATOM     12  O   LIG    1      159.647 186.876 158.550  0.00  0.00    -0.461 OA
BRANCH  12   2
ATOM      1  O   LIG    1      157.423 186.181 158.422  0.00  0.00    -0.331 OA
ATOM      2  C   LIG    1      158.310 187.286 158.267  0.00  0.00    +0.339 C 
ATOM      3  C   LIG    1      158.272 187.806 156.830  0.00  0.00    +0.214 C 
ATOM      4  C   LIG    1      156.842 188.128 156.393  0.00  0.00    +0.180 C 
ATOM      5  C   LIG    1      155.890 186.979 156.723  0.00  0.00    +0.177 C 
ATOM     36  C   LIG    1      156.060 186.533 158.177  0.00  0.00    +0.179 C 
BRANCH   5   6
ATOM      6  O   LIG    1      154.546 187.405 156.515  0.00  0.00    -0.386 OA
ATOM      7  H   LIG    1      154.414 188.232 157.008  0.00  0.00    +0.210 HD
ENDBRANCH   5   6
BRANCH   4   8
ATOM      8  O   LIG    1      156.812 188.336 154.980  0.00  0.00    -0.386 OA
ATOM      9  H   LIG    1      156.525 189.253 154.827  0.00  0.00    +0.210 HD
ENDBRANCH   4   8
BRANCH   3  10
ATOM     10  O   LIG    1      159.066 188.990 156.760  0.00  0.00    -0.383 OA
ATOM     11  H   LIG    1      158.478 189.735 156.547  0.00  0.00    +0.210 HD
ENDBRANCH   3  10
BRANCH  36  37
ATOM     37  C   LIG    1      155.205 185.311 158.496  0.00  0.00    +0.190 C 
BRANCH  37  38
ATOM     38  O   LIG    1      154.773 184.733 157.278  0.00  0.00    -0.392 OA
ATOM     39  H   LIG    1      154.007 185.244 156.964  0.00  0.00    +0.210 HD
ENDBRANCH  37  38
ENDBRANCH  36  37
ENDBRANCH  12   2
ENDBRANCH  13  12
TORSDOF 11
ENDMDL
