MODEL 1
REMARK VINA RESULT:    -6.246      0.000      0.000
REMARK INTER + INTRA:          -7.450
REMARK INTER:                  -7.341
REMARK INTRA:                  -0.109
REMARK UNBOUND:                -0.109
REMARK  Name = 287064
REMARK  5 active torsions:
REMARK  status: ('A' for Active; 'I' for Inactive)
REMARK    1  A    between atoms: O_1  and  C_11
REMARK    2  A    between atoms: O_1  and  C_12
REMARK    3  A    between atoms: O_2  and  C_8
REMARK    4  A    between atoms: O_3  and  C_9
REMARK    5  A    between atoms: C_5  and  C_11
REMARK                            x       y       z     vdW  Elec       q    Type
REMARK                         _______ _______ _______ _____ _____    ______ ____
ROOT
ATOM      1  C   UNL     1     102.206 133.516 155.624  0.00  0.00    +0.000 A 
ATOM      2  C   UNL     1     103.041 134.275 154.803  0.00  0.00    +0.000 A 
ATOM      3  C   UNL     1     101.013 134.060 156.100  0.00  0.00    +0.000 A 
ATOM      4  C   UNL     1     102.683 135.578 154.461  0.00  0.00    +0.000 A 
ATOM      5  C   UNL     1     101.491 136.123 154.937  0.00  0.00    +0.000 A 
ATOM      6  C   UNL     1     100.656 135.365 155.757  0.00  0.00    +0.000 A 
ENDROOT
BRANCH   4   7
ATOM      7  O   UNL     1     103.507 136.311 153.660  0.00  0.00    +0.000 OA
ATOM      8  H   UNL     1     104.283 136.578 154.181  0.00  0.00    +0.000 HD
ENDBRANCH   4   7
BRANCH   5   9
ATOM      9  O   UNL     1     101.131 137.395 154.609  0.00  0.00    +0.000 OA
ATOM     10  H   UNL     1     101.104 137.935 155.418  0.00  0.00    +0.000 HD
ENDBRANCH   5   9
BRANCH   1  12
ATOM     11  O   UNL     1     101.921 131.453 156.753  0.00  0.00    +0.000 OA
ATOM     12  C   UNL     1     102.579 132.156 155.983  0.00  0.00    +0.000 C 
BRANCH  12  13
ATOM     13  O   UNL     1     103.738 131.731 155.381  0.00  0.00    +0.000 OA
ATOM     14  C   UNL     1     104.774 131.266 156.253  0.00  0.00    +0.000 C 
ENDBRANCH  12  13
ENDBRANCH   1  12
TORSDOF 4
ENDMDL
MODEL 2
REMARK VINA RESULT:    -6.228     25.706     26.710
REMARK INTER + INTRA:          -7.429
REMARK INTER:                  -7.330
REMARK INTRA:                  -0.099
REMARK UNBOUND:                -0.109
REMARK  Name = 287064
REMARK  5 active torsions:
REMARK  status: ('A' for Active; 'I' for Inactive)
REMARK    1  A    between atoms: O_1  and  C_11
REMARK    2  A    between atoms: O_1  and  C_12
REMARK    3  A    between atoms: O_2  and  C_8
REMARK    4  A    between atoms: O_3  and  C_9
REMARK    5  A    between atoms: C_5  and  C_11
REMARK                            x       y       z     vdW  Elec       q    Type
REMARK                         _______ _______ _______ _____ _____    ______ ____
ROOT
ATOM      1  C   UNL     1     118.516 151.158 142.599  0.00  0.00    +0.000 A 
ATOM      2  C   UNL     1     118.528 151.518 141.250  0.00  0.00    +0.000 A 
ATOM      3  C   UNL     1     117.318 151.171 143.313  0.00  0.00    +0.000 A 
ATOM      4  C   UNL     1     117.342 151.892 140.619  0.00  0.00    +0.000 A 
ATOM      5  C   UNL     1     116.145 151.905 141.333  0.00  0.00    +0.000 A 
ATOM      6  C   UNL     1     116.132 151.545 142.681  0.00  0.00    +0.000 A 
ENDROOT
BRANCH   4   7
ATOM      7  O   UNL     1     117.366 152.242 139.302  0.00  0.00    +0.000 OA
ATOM      8  H   UNL     1     117.304 151.432 138.768  0.00  0.00    +0.000 HD
ENDBRANCH   4   7
BRANCH   5   9
ATOM      9  O   UNL     1     114.980 152.268 140.727  0.00  0.00    +0.000 OA
ATOM     10  H   UNL     1     115.187 152.770 139.920  0.00  0.00    +0.000 HD
ENDBRANCH   5   9
BRANCH   1  12
ATOM     11  O   UNL     1     120.455 151.555 143.899  0.00  0.00    +0.000 OA
ATOM     12  C   UNL     1     119.753 150.770 143.259  0.00  0.00    +0.000 C 
BRANCH  12  13
ATOM     13  O   UNL     1     120.063 149.442 143.100  0.00  0.00    +0.000 OA
ATOM     14  C   UNL     1     119.868 148.602 144.243  0.00  0.00    +0.000 C 
ENDBRANCH  12  13
ENDBRANCH   1  12
TORSDOF 4
ENDMDL
MODEL 3
REMARK VINA RESULT:    -6.213     53.577     55.369
REMARK INTER + INTRA:          -7.412
REMARK INTER:                  -7.290
REMARK INTRA:                  -0.122
REMARK UNBOUND:                -0.109
REMARK  Name = 287064
REMARK  5 active torsions:
REMARK  status: ('A' for Active; 'I' for Inactive)
REMARK    1  A    between atoms: O_1  and  C_11
REMARK    2  A    between atoms: O_1  and  C_12
REMARK    3  A    between atoms: O_2  and  C_8
REMARK    4  A    between atoms: O_3  and  C_9
REMARK    5  A    between atoms: C_5  and  C_11
REMARK                            x       y       z     vdW  Elec       q    Type
REMARK                         _______ _______ _______ _____ _____    ______ ____
ROOT
ATOM      1  C   UNL     1     149.771 126.878 126.548  0.00  0.00    +0.000 A 
ATOM      2  C   UNL     1     148.674 127.713 126.768  0.00  0.00    +0.000 A 
ATOM      3  C   UNL     1     150.020 125.813 127.413  0.00  0.00    +0.000 A 
ATOM      4  C   UNL     1     147.830 127.483 127.853  0.00  0.00    +0.000 A 
ATOM      5  C   UNL     1     148.080 126.418 128.718  0.00  0.00    +0.000 A 
ATOM      6  C   UNL     1     149.175 125.583 128.499  0.00  0.00    +0.000 A 
ENDROOT
BRANCH   4   7
ATOM      7  O   UNL     1     146.763 128.305 128.059  0.00  0.00    +0.000 OA
ATOM      8  H   UNL     1     146.055 128.049 127.443  0.00  0.00    +0.000 HD
ENDBRANCH   4   7
BRANCH   5   9
ATOM      9  O   UNL     1     147.261 126.183 129.782  0.00  0.00    +0.000 OA
ATOM     10  H   UNL     1     147.159 125.223 129.897  0.00  0.00    +0.000 HD
ENDBRANCH   5   9
BRANCH   1  12
ATOM     11  O   UNL     1     151.366 128.120 125.314  0.00  0.00    +0.000 OA
ATOM     12  C   UNL     1     150.653 127.119 125.417  0.00  0.00    +0.000 C 
BRANCH  12  13
ATOM     13  O   UNL     1     150.616 126.123 124.473  0.00  0.00    +0.000 OA
ATOM     14  C   UNL     1     149.649 126.274 123.427  0.00  0.00    +0.000 C 
ENDBRANCH  12  13
ENDBRANCH   1  12
TORSDOF 4
ENDMDL
MODEL 4
REMARK VINA RESULT:    -6.208     24.580     26.210
REMARK INTER + INTRA:          -7.407
REMARK INTER:                  -7.315
REMARK INTRA:                  -0.092
REMARK UNBOUND:                -0.109
REMARK  Name = 287064
REMARK  5 active torsions:
REMARK  status: ('A' for Active; 'I' for Inactive)
REMARK    1  A    between atoms: O_1  and  C_11
REMARK    2  A    between atoms: O_1  and  C_12
REMARK    3  A    between atoms: O_2  and  C_8
REMARK    4  A    between atoms: O_3  and  C_9
REMARK    5  A    between atoms: C_5  and  C_11
REMARK                            x       y       z     vdW  Elec       q    Type
REMARK                         _______ _______ _______ _____ _____    ______ ____
ROOT
ATOM      1  C   UNL     1     117.383 151.207 143.328  0.00  0.00    +0.000 A 
ATOM      2  C   UNL     1     116.189 151.563 142.700  0.00  0.00    +0.000 A 
ATOM      3  C   UNL     1     118.574 151.190 142.603  0.00  0.00    +0.000 A 
ATOM      4  C   UNL     1     116.187 151.900 141.347  0.00  0.00    +0.000 A 
ATOM      5  C   UNL     1     117.378 151.882 140.622  0.00  0.00    +0.000 A 
ATOM      6  C   UNL     1     118.572 151.527 141.249  0.00  0.00    +0.000 A 
ENDROOT
BRANCH   4   7
ATOM      7  O   UNL     1     115.015 152.245 140.744  0.00  0.00    +0.000 OA
ATOM      8  H   UNL     1     115.016 153.207 140.599  0.00  0.00    +0.000 HD
ENDBRANCH   4   7
BRANCH   5   9
ATOM      9  O   UNL     1     117.388 152.209 139.299  0.00  0.00    +0.000 OA
ATOM     10  H   UNL     1     118.191 151.846 138.889  0.00  0.00    +0.000 HD
ENDBRANCH   5   9
BRANCH   1  12
ATOM     11  O   UNL     1     116.448 150.278 145.296  0.00  0.00    +0.000 OA
ATOM     12  C   UNL     1     117.386 150.854 144.739  0.00  0.00    +0.000 C 
BRANCH  12  13
ATOM     13  O   UNL     1     118.535 151.224 145.393  0.00  0.00    +0.000 OA
ATOM     14  C   UNL     1     118.626 150.860 146.775  0.00  0.00    +0.000 C 
ENDBRANCH  12  13
ENDBRANCH   1  12
TORSDOF 4
ENDMDL
MODEL 5
REMARK VINA RESULT:    -6.062     25.069     26.445
REMARK INTER + INTRA:          -7.234
REMARK INTER:                  -7.143
REMARK INTRA:                  -0.091
REMARK UNBOUND:                -0.109
REMARK  Name = 287064
REMARK  5 active torsions:
REMARK  status: ('A' for Active; 'I' for Inactive)
REMARK    1  A    between atoms: O_1  and  C_11
REMARK    2  A    between atoms: O_1  and  C_12
REMARK    3  A    between atoms: O_2  and  C_8
REMARK    4  A    between atoms: O_3  and  C_9
REMARK    5  A    between atoms: C_5  and  C_11
REMARK                            x       y       z     vdW  Elec       q    Type
REMARK                         _______ _______ _______ _____ _____    ______ ____
ROOT
ATOM      1  C   UNL     1     118.253 150.986 142.834  0.00  0.00    +0.000 A 
ATOM      2  C   UNL     1     116.989 150.928 143.421  0.00  0.00    +0.000 A 
ATOM      3  C   UNL     1     118.398 151.478 141.537  0.00  0.00    +0.000 A 
ATOM      4  C   UNL     1     115.870 151.361 142.710  0.00  0.00    +0.000 A 
ATOM      5  C   UNL     1     116.015 151.853 141.413  0.00  0.00    +0.000 A 
ATOM      6  C   UNL     1     117.279 151.911 140.826  0.00  0.00    +0.000 A 
ENDROOT
BRANCH   4   7
ATOM      7  O   UNL     1     114.640 151.299 143.292  0.00  0.00    +0.000 OA
ATOM      8  H   UNL     1     114.449 152.162 143.697  0.00  0.00    +0.000 HD
ENDBRANCH   4   7
BRANCH   5   9
ATOM      9  O   UNL     1     114.930 152.278 140.708  0.00  0.00    +0.000 OA
ATOM     10  H   UNL     1     115.183 152.394 139.776  0.00  0.00    +0.000 HD
ENDBRANCH   5   9
BRANCH   1  12
ATOM     11  O   UNL     1     119.675 149.344 143.778  0.00  0.00    +0.000 OA
ATOM     12  C   UNL     1     119.420 150.533 143.575  0.00  0.00    +0.000 C 
BRANCH  12  13
ATOM     13  O   UNL     1     120.213 151.559 144.028  0.00  0.00    +0.000 OA
ATOM     14  C   UNL     1     121.627 151.342 143.977  0.00  0.00    +0.000 C 
ENDBRANCH  12  13
ENDBRANCH   1  12
TORSDOF 4
ENDMDL
MODEL 6
REMARK VINA RESULT:    -5.928     25.611     26.775
REMARK INTER + INTRA:          -7.077
REMARK INTER:                  -6.950
REMARK INTRA:                  -0.127
REMARK UNBOUND:                -0.109
REMARK  Name = 287064
REMARK  5 active torsions:
REMARK  status: ('A' for Active; 'I' for Inactive)
REMARK    1  A    between atoms: O_1  and  C_11
REMARK    2  A    between atoms: O_1  and  C_12
REMARK    3  A    between atoms: O_2  and  C_8
REMARK    4  A    between atoms: O_3  and  C_9
REMARK    5  A    between atoms: C_5  and  C_11
REMARK                            x       y       z     vdW  Elec       q    Type
REMARK                         _______ _______ _______ _____ _____    ______ ____
ROOT
ATOM      1  C   UNL     1     119.009 151.497 143.183  0.00  0.00    +0.000 A 
ATOM      2  C   UNL     1     118.587 152.367 144.189  0.00  0.00    +0.000 A 
ATOM      3  C   UNL     1     118.256 151.362 142.017  0.00  0.00    +0.000 A 
ATOM      4  C   UNL     1     117.413 153.101 144.028  0.00  0.00    +0.000 A 
ATOM      5  C   UNL     1     116.660 152.967 142.861  0.00  0.00    +0.000 A 
ATOM      6  C   UNL     1     117.081 152.097 141.856  0.00  0.00    +0.000 A 
ENDROOT
BRANCH   4   7
ATOM      7  O   UNL     1     117.010 153.947 145.017  0.00  0.00    +0.000 OA
ATOM      8  H   UNL     1     117.059 154.858 144.680  0.00  0.00    +0.000 HD
ENDBRANCH   4   7
BRANCH   5   9
ATOM      9  O   UNL     1     115.511 153.679 142.693  0.00  0.00    +0.000 OA
ATOM     10  H   UNL     1     114.803 153.075 142.409  0.00  0.00    +0.000 HD
ENDBRANCH   5   9
BRANCH   1  12
ATOM     11  O   UNL     1     121.307 151.231 143.690  0.00  0.00    +0.000 OA
ATOM     12  C   UNL     1     120.233 150.729 143.352  0.00  0.00    +0.000 C 
BRANCH  12  13
ATOM     13  O   UNL     1     120.077 149.389 143.098  0.00  0.00    +0.000 OA
ATOM     14  C   UNL     1     119.540 148.598 144.163  0.00  0.00    +0.000 C 
ENDBRANCH  12  13
ENDBRANCH   1  12
TORSDOF 4
ENDMDL
MODEL 7
REMARK VINA RESULT:    -5.788     21.528     23.559
REMARK INTER + INTRA:          -6.912
REMARK INTER:                  -6.813
REMARK INTRA:                  -0.099
REMARK UNBOUND:                -0.109
REMARK  Name = 287064
REMARK  5 active torsions:
REMARK  status: ('A' for Active; 'I' for Inactive)
REMARK    1  A    between atoms: O_1  and  C_11
REMARK    2  A    between atoms: O_1  and  C_12
REMARK    3  A    between atoms: O_2  and  C_8
REMARK    4  A    between atoms: O_3  and  C_9
REMARK    5  A    between atoms: C_5  and  C_11
REMARK                            x       y       z     vdW  Elec       q    Type
REMARK                         _______ _______ _______ _____ _____    ______ ____
ROOT
ATOM      1  C   UNL     1     119.240 133.103 171.046  0.00  0.00    +0.000 A 
ATOM      2  C   UNL     1     118.020 132.531 171.408  0.00  0.00    +0.000 A 
ATOM      3  C   UNL     1     120.295 133.131 171.958  0.00  0.00    +0.000 A 
ATOM      4  C   UNL     1     117.856 131.988 172.682  0.00  0.00    +0.000 A 
ATOM      5  C   UNL     1     118.911 132.016 173.594  0.00  0.00    +0.000 A 
ATOM      6  C   UNL     1     120.131 132.588 173.232  0.00  0.00    +0.000 A 
ENDROOT
BRANCH   4   7
ATOM      7  O   UNL     1     116.660 131.433 173.026  0.00  0.00    +0.000 OA
ATOM      8  H   UNL     1     116.636 131.332 173.993  0.00  0.00    +0.000 HD
ENDBRANCH   4   7
BRANCH   5   9
ATOM      9  O   UNL     1     118.763 131.489 174.841  0.00  0.00    +0.000 OA
ATOM     10  H   UNL     1     118.653 132.214 175.480  0.00  0.00    +0.000 HD
ENDBRANCH   5   9
BRANCH   1  12
ATOM     11  O   UNL     1     119.939 134.766 169.511  0.00  0.00    +0.000 OA
ATOM     12  C   UNL     1     119.411 133.671 169.718  0.00  0.00    +0.000 C 
BRANCH  12  13
ATOM     13  O   UNL     1     118.926 132.869 168.714  0.00  0.00    +0.000 OA
ATOM     14  C   UNL     1     119.851 132.516 167.680  0.00  0.00    +0.000 C 
ENDBRANCH  12  13
ENDBRANCH   1  12
TORSDOF 4
ENDMDL
MODEL 8
REMARK VINA RESULT:    -5.781     19.112     21.426
REMARK INTER + INTRA:          -6.904
REMARK INTER:                  -6.800
REMARK INTRA:                  -0.104
REMARK UNBOUND:                -0.109
REMARK  Name = 287064
REMARK  5 active torsions:
REMARK  status: ('A' for Active; 'I' for Inactive)
REMARK    1  A    between atoms: O_1  and  C_11
REMARK    2  A    between atoms: O_1  and  C_12
REMARK    3  A    between atoms: O_2  and  C_8
REMARK    4  A    between atoms: O_3  and  C_9
REMARK    5  A    between atoms: C_5  and  C_11
REMARK                            x       y       z     vdW  Elec       q    Type
REMARK                         _______ _______ _______ _____ _____    ______ ____
ROOT
ATOM      1  C   UNL     1     115.081 148.209 145.567  0.00  0.00    +0.000 A 
ATOM      2  C   UNL     1     114.019 147.544 144.953  0.00  0.00    +0.000 A 
ATOM      3  C   UNL     1     115.935 147.516 146.424  0.00  0.00    +0.000 A 
ATOM      4  C   UNL     1     113.811 146.187 145.199  0.00  0.00    +0.000 A 
ATOM      5  C   UNL     1     114.666 145.494 146.056  0.00  0.00    +0.000 A 
ATOM      6  C   UNL     1     115.728 146.158 146.670  0.00  0.00    +0.000 A 
ENDROOT
BRANCH   4   7
ATOM      7  O   UNL     1     112.770 145.548 144.595  0.00  0.00    +0.000 OA
ATOM      8  H   UNL     1     112.902 145.589 143.632  0.00  0.00    +0.000 HD
ENDBRANCH   4   7
BRANCH   5   9
ATOM      9  O   UNL     1     114.473 144.168 146.303  0.00  0.00    +0.000 OA
ATOM     10  H   UNL     1     114.161 143.736 145.490  0.00  0.00    +0.000 HD
ENDBRANCH   5   9
BRANCH   1  12
ATOM     11  O   UNL     1     115.935 150.360 146.069  0.00  0.00    +0.000 OA
ATOM     12  C   UNL     1     115.297 149.625 145.313  0.00  0.00    +0.000 C 
BRANCH  12  13
ATOM     13  O   UNL     1     114.720 150.065 144.147  0.00  0.00    +0.000 OA
ATOM     14  C   UNL     1     115.524 150.912 143.319  0.00  0.00    +0.000 C 
ENDBRANCH  12  13
ENDBRANCH   1  12
TORSDOF 4
ENDMDL
MODEL 9
REMARK VINA RESULT:    -5.729     53.992     55.731
REMARK INTER + INTRA:          -6.843
REMARK INTER:                  -6.724
REMARK INTRA:                  -0.119
REMARK UNBOUND:                -0.109
REMARK  Name = 287064
REMARK  5 active torsions:
REMARK  status: ('A' for Active; 'I' for Inactive)
REMARK    1  A    between atoms: O_1  and  C_11
REMARK    2  A    between atoms: O_1  and  C_12
REMARK    3  A    between atoms: O_2  and  C_8
REMARK    4  A    between atoms: O_3  and  C_9
REMARK    5  A    between atoms: C_5  and  C_11
REMARK                            x       y       z     vdW  Elec       q    Type
REMARK                         _______ _______ _______ _____ _____    ______ ____
ROOT
ATOM      1  C   UNL     1     149.173 126.290 126.819  0.00  0.00    +0.000 A 
ATOM      2  C   UNL     1     148.778 126.167 125.486  0.00  0.00    +0.000 A 
ATOM      3  C   UNL     1     150.257 127.101 127.152  0.00  0.00    +0.000 A 
ATOM      4  C   UNL     1     149.468 126.854 124.488  0.00  0.00    +0.000 A 
ATOM      5  C   UNL     1     150.553 127.665 124.822  0.00  0.00    +0.000 A 
ATOM      6  C   UNL     1     150.948 127.789 126.154  0.00  0.00    +0.000 A 
ENDROOT
BRANCH   4   7
ATOM      7  O   UNL     1     149.075 126.726 123.190  0.00  0.00    +0.000 OA
ATOM      8  H   UNL     1     148.166 127.063 123.111  0.00  0.00    +0.000 HD
ENDBRANCH   4   7
BRANCH   5   9
ATOM      9  O   UNL     1     151.235 128.341 123.856  0.00  0.00    +0.000 OA
ATOM     10  H   UNL     1     151.770 127.710 123.345  0.00  0.00    +0.000 HD
ENDBRANCH   5   9
BRANCH   1  12
ATOM     11  O   UNL     1     147.925 124.473 127.683  0.00  0.00    +0.000 OA
ATOM     12  C   UNL     1     148.454 125.572 127.860  0.00  0.00    +0.000 C 
BRANCH  12  13
ATOM     13  O   UNL     1     148.422 126.238 129.060  0.00  0.00    +0.000 OA
ATOM     14  C   UNL     1     147.189 126.883 129.397  0.00  0.00    +0.000 C 
ENDBRANCH  12  13
ENDBRANCH   1  12
TORSDOF 4
ENDMDL
MODEL 10
REMARK VINA RESULT:    -5.685     17.642     19.826
REMARK INTER + INTRA:          -6.791
REMARK INTER:                  -6.690
REMARK INTRA:                  -0.101
REMARK UNBOUND:                -0.109
REMARK  Name = 287064
REMARK  5 active torsions:
REMARK  status: ('A' for Active; 'I' for Inactive)
REMARK    1  A    between atoms: O_1  and  C_11
REMARK    2  A    between atoms: O_1  and  C_12
REMARK    3  A    between atoms: O_2  and  C_8
REMARK    4  A    between atoms: O_3  and  C_9
REMARK    5  A    between atoms: C_5  and  C_11
REMARK                            x       y       z     vdW  Elec       q    Type
REMARK                         _______ _______ _______ _____ _____    ______ ____
ROOT
ATOM      1  C   UNL     1     115.307 146.399 146.681  0.00  0.00    +0.000 A 
ATOM      2  C   UNL     1     114.201 145.937 145.967  0.00  0.00    +0.000 A 
ATOM      3  C   UNL     1     115.811 145.653 147.746  0.00  0.00    +0.000 A 
ATOM      4  C   UNL     1     113.600 144.729 146.318  0.00  0.00    +0.000 A 
ATOM      5  C   UNL     1     114.104 143.982 147.383  0.00  0.00    +0.000 A 
ATOM      6  C   UNL     1     115.209 144.444 148.097  0.00  0.00    +0.000 A 
ENDROOT
BRANCH   4   7
ATOM      7  O   UNL     1     112.520 144.287 145.614  0.00  0.00    +0.000 OA
ATOM      8  H   UNL     1     111.736 144.346 146.186  0.00  0.00    +0.000 HD
ENDBRANCH   4   7
BRANCH   5   9
ATOM      9  O   UNL     1     113.525 142.800 147.735  0.00  0.00    +0.000 OA
ATOM     10  H   UNL     1     113.036 142.447 146.973  0.00  0.00    +0.000 HD
ENDBRANCH   5   9
BRANCH   1  12
ATOM     11  O   UNL     1     115.305 148.710 146.164  0.00  0.00    +0.000 OA
ATOM     12  C   UNL     1     115.933 147.661 146.316  0.00  0.00    +0.000 C 
BRANCH  12  13
ATOM     13  O   UNL     1     117.294 147.569 146.158  0.00  0.00    +0.000 OA
ATOM     14  C   UNL     1     117.809 147.926 144.870  0.00  0.00    +0.000 C 
ENDBRANCH  12  13
ENDBRANCH   1  12
TORSDOF 4
ENDMDL
