MODEL 1
REMARK VINA RESULT:      -6.5      0.000      0.000
REMARK  Name = 159278
REMARK                            x       y       z     vdW  Elec       q    Type
REMARK                         _______ _______ _______ _____ _____    ______ ____
ROOT
ATOM      1  O   LIG    1       29.458  29.417  18.322  0.00  0.00    -0.341 OA
ATOM      2  C   LIG    1       29.035  30.148  17.172  0.00  0.00    +0.282 C 
ATOM      3  C   LIG    1       27.648  30.747  17.399  0.00  0.00    +0.201 C 
ATOM      4  C   LIG    1       27.605  31.583  18.679  0.00  0.00    +0.179 C 
ATOM      5  C   LIG    1       28.214  30.822  19.857  0.00  0.00    +0.177 C 
ATOM     23  C   LIG    1       29.580  30.243  19.482  0.00  0.00    +0.178 C 
ENDROOT
BRANCH   5   6
ATOM      6  O   LIG    1       28.366  31.708  20.962  0.00  0.00    -0.386 OA
ATOM      7  H   LIG    1       28.586  31.177  21.746  0.00  0.00    +0.210 HD
ENDBRANCH   5   6
BRANCH   4   8
ATOM      8  O   LIG    1       26.248  31.887  19.003  0.00  0.00    -0.386 OA
ATOM      9  H   LIG    1       25.685  31.436  18.351  0.00  0.00    +0.210 HD
ENDBRANCH   4   8
BRANCH   3  10
ATOM     10  O   LIG    1       27.332  31.578  16.281  0.00  0.00    -0.384 OA
ATOM     11  H   LIG    1       27.866  31.283  15.525  0.00  0.00    +0.210 HD
ENDBRANCH   3  10
BRANCH   2  12
ATOM     12  O   LIG    1       28.957  29.273  16.048  0.00  0.00    -0.348 OA
BRANCH  12  13
ATOM     13  C   LIG    1       30.190  29.225  15.344  0.00  0.00    +0.168 C 
BRANCH  13  14
ATOM     14  C   LIG    1       29.955  28.715  13.927  0.00  0.00    +0.063 C 
BRANCH  14  15
ATOM     15  C   LIG    1       29.578  27.254  13.899  0.00  0.00    -0.045 A 
ATOM     16  C   LIG    1       30.366  26.336  14.576  0.00  0.00    +0.007 A 
ATOM     17  C   LIG    1       30.019  24.986  14.550  0.00  0.00    +0.045 A 
ATOM     18  C   LIG    1       28.888  24.570  13.848  0.00  0.00    +0.117 A 
ATOM     19  C   LIG    1       28.105  25.505  13.171  0.00  0.00    +0.045 A 
ATOM     22  C   LIG    1       28.453  26.856  13.197  0.00  0.00    +0.007 A 
BRANCH  18  20
ATOM     20  O   LIG    1       28.548  23.252  13.822  0.00  0.00    -0.507 OA
ATOM     21  H   LIG    1       27.834  23.124  13.175  0.00  0.00    +0.292 HD
ENDBRANCH  18  20
ENDBRANCH  14  15
ENDBRANCH  13  14
ENDBRANCH  12  13
ENDBRANCH   2  12
BRANCH  23  24
ATOM     24  C   LIG    1       30.154  29.381  20.600  0.00  0.00    +0.190 C 
BRANCH  24  25
ATOM     25  O   LIG    1       29.125  29.105  21.532  0.00  0.00    -0.392 OA
ATOM     26  H   LIG    1       28.508  29.855  21.520  0.00  0.00    +0.210 HD
ENDBRANCH  24  25
ENDBRANCH  23  24
TORSDOF 10
ENDMDL
MODEL 2
REMARK VINA RESULT:      -6.2      0.979      2.585
REMARK  Name = 159278
REMARK                            x       y       z     vdW  Elec       q    Type
REMARK                         _______ _______ _______ _____ _____    ______ ____
ROOT
ATOM      1  O   LIG    1       28.601  30.240  17.511  0.00  0.00    -0.341 OA
ATOM      2  C   LIG    1       29.305  29.032  17.795  0.00  0.00    +0.282 C 
ATOM      3  C   LIG    1       30.272  29.238  18.960  0.00  0.00    +0.201 C 
ATOM      4  C   LIG    1       29.555  29.807  20.185  0.00  0.00    +0.179 C 
ATOM      5  C   LIG    1       28.685  31.006  19.809  0.00  0.00    +0.177 C 
ATOM     23  C   LIG    1       27.796  30.677  18.608  0.00  0.00    +0.178 C 
ENDROOT
BRANCH   5   6
ATOM      6  O   LIG    1       27.864  31.359  20.919  0.00  0.00    -0.386 OA
ATOM      7  H   LIG    1       27.111  31.876  20.585  0.00  0.00    +0.210 HD
ENDBRANCH   5   6
BRANCH   4   8
ATOM      8  O   LIG    1       30.522  30.245  21.141  0.00  0.00    -0.386 OA
ATOM      9  H   LIG    1       30.332  31.178  21.340  0.00  0.00    +0.210 HD
ENDBRANCH   4   8
BRANCH   3  10
ATOM     10  O   LIG    1       30.846  27.974  19.293  0.00  0.00    -0.384 OA
ATOM     11  H   LIG    1       31.771  28.121  19.554  0.00  0.00    +0.210 HD
ENDBRANCH   3  10
BRANCH   2  12
ATOM     12  O   LIG    1       30.067  28.640  16.655  0.00  0.00    -0.348 OA
BRANCH  12  13
ATOM     13  C   LIG    1       29.588  29.263  15.473  0.00  0.00    +0.168 C 
BRANCH  13  14
ATOM     14  C   LIG    1       30.236  28.621  14.252  0.00  0.00    +0.063 C 
BRANCH  14  15
ATOM     15  C   LIG    1       29.777  27.199  14.039  0.00  0.00    -0.045 A 
ATOM     16  C   LIG    1       30.594  26.154  14.442  0.00  0.00    +0.007 A 
ATOM     17  C   LIG    1       30.170  24.840  14.246  0.00  0.00    +0.045 A 
ATOM     18  C   LIG    1       28.935  24.588  13.650  0.00  0.00    +0.117 A 
ATOM     19  C   LIG    1       28.123  25.650  13.249  0.00  0.00    +0.045 A 
ATOM     22  C   LIG    1       28.548  26.964  13.446  0.00  0.00    +0.007 A 
BRANCH  18  20
ATOM     20  O   LIG    1       28.520  23.306  13.457  0.00  0.00    -0.507 OA
ATOM     21  H   LIG    1       28.029  23.256  12.619  0.00  0.00    +0.292 HD
ENDBRANCH  18  20
ENDBRANCH  14  15
ENDBRANCH  13  14
ENDBRANCH  12  13
ENDBRANCH   2  12
BRANCH  23  24
ATOM     24  C   LIG    1       27.004  31.893  18.140  0.00  0.00    +0.190 C 
BRANCH  24  25
ATOM     25  O   LIG    1       25.910  32.084  19.017  0.00  0.00    -0.392 OA
ATOM     26  H   LIG    1       25.325  31.313  18.931  0.00  0.00    +0.210 HD
ENDBRANCH  24  25
ENDBRANCH  23  24
TORSDOF 10
ENDMDL
MODEL 3
REMARK VINA RESULT:      -6.1      1.362      1.856
REMARK  Name = 159278
REMARK                            x       y       z     vdW  Elec       q    Type
REMARK                         _______ _______ _______ _____ _____    ______ ____
ROOT
ATOM      1  O   LIG    1       29.272  28.816  18.792  0.00  0.00    -0.341 OA
ATOM      2  C   LIG    1       29.205  28.891  17.370  0.00  0.00    +0.282 C 
ATOM      3  C   LIG    1       27.858  29.462  16.927  0.00  0.00    +0.201 C 
ATOM      4  C   LIG    1       27.573  30.803  17.604  0.00  0.00    +0.179 C 
ATOM      5  C   LIG    1       27.812  30.723  19.113  0.00  0.00    +0.177 C 
ATOM     23  C   LIG    1       29.175  30.098  19.414  0.00  0.00    +0.178 C 
ENDROOT
BRANCH   5   6
ATOM      6  O   LIG    1       27.761  32.035  19.668  0.00  0.00    -0.386 OA
ATOM      7  H   LIG    1       27.330  32.619  19.021  0.00  0.00    +0.210 HD
ENDBRANCH   5   6
BRANCH   4   8
ATOM      8  O   LIG    1       26.207  31.163  17.392  0.00  0.00    -0.386 OA
ATOM      9  H   LIG    1       25.707  30.884  18.178  0.00  0.00    +0.210 HD
ENDBRANCH   4   8
BRANCH   3  10
ATOM     10  O   LIG    1       27.893  29.645  15.512  0.00  0.00    -0.384 OA
ATOM     11  H   LIG    1       27.750  30.589  15.326  0.00  0.00    +0.210 HD
ENDBRANCH   3  10
BRANCH   2  12
ATOM     12  O   LIG    1       29.332  27.584  16.812  0.00  0.00    -0.348 OA
BRANCH  12  13
ATOM     13  C   LIG    1       30.670  27.117  16.888  0.00  0.00    +0.168 C 
BRANCH  13  14
ATOM     14  C   LIG    1       31.338  27.240  15.524  0.00  0.00    +0.063 C 
BRANCH  14  15
ATOM     15  C   LIG    1       30.495  26.651  14.418  0.00  0.00    -0.045 A 
ATOM     16  C   LIG    1       29.731  27.493  13.625  0.00  0.00    +0.007 A 
ATOM     17  C   LIG    1       28.953  26.949  12.603  0.00  0.00    +0.045 A 
ATOM     18  C   LIG    1       28.948  25.572  12.388  0.00  0.00    +0.117 A 
ATOM     19  C   LIG    1       29.722  24.737  13.194  0.00  0.00    +0.045 A 
ATOM     22  C   LIG    1       30.501  25.281  14.216  0.00  0.00    +0.007 A 
BRANCH  18  20
ATOM     20  O   LIG    1       28.189  25.041  11.391  0.00  0.00    -0.507 OA
ATOM     21  H   LIG    1       28.560  25.310  10.534  0.00  0.00    +0.292 HD
ENDBRANCH  18  20
ENDBRANCH  14  15
ENDBRANCH  13  14
ENDBRANCH  12  13
ENDBRANCH   2  12
BRANCH  23  24
ATOM     24  C   LIG    1       29.387  29.900  20.911  0.00  0.00    +0.190 C 
BRANCH  24  25
ATOM     25  O   LIG    1       28.154  29.527  21.496  0.00  0.00    -0.392 OA
ATOM     26  H   LIG    1       27.484  30.169  21.205  0.00  0.00    +0.210 HD
ENDBRANCH  24  25
ENDBRANCH  23  24
TORSDOF 10
ENDMDL
MODEL 4
REMARK VINA RESULT:      -6.0      1.972      2.598
REMARK  Name = 159278
REMARK                            x       y       z     vdW  Elec       q    Type
REMARK                         _______ _______ _______ _____ _____    ______ ____
ROOT
ATOM      1  O   LIG    1       30.804  29.493  20.090  0.00  0.00    -0.341 OA
ATOM      2  C   LIG    1       29.686  29.797  19.257  0.00  0.00    +0.282 C 
ATOM      3  C   LIG    1       28.474  30.178  20.106  0.00  0.00    +0.201 C 
ATOM      4  C   LIG    1       28.810  31.307  21.081  0.00  0.00    +0.179 C 
ATOM      5  C   LIG    1       30.104  31.015  21.841  0.00  0.00    +0.177 C 
ATOM     23  C   LIG    1       31.220  30.610  20.877  0.00  0.00    +0.178 C 
ENDROOT
BRANCH   5   6
ATOM      6  O   LIG    1       30.501  32.181  22.559  0.00  0.00    -0.386 OA
ATOM      7  H   LIG    1       30.051  32.171  23.421  0.00  0.00    +0.210 HD
ENDBRANCH   5   6
BRANCH   4   8
ATOM      8  O   LIG    1       27.757  31.440  22.036  0.00  0.00    -0.386 OA
ATOM      9  H   LIG    1       27.036  30.848  21.760  0.00  0.00    +0.210 HD
ENDBRANCH   4   8
BRANCH   3  10
ATOM     10  O   LIG    1       27.430  30.604  19.230  0.00  0.00    -0.384 OA
ATOM     11  H   LIG    1       26.645  30.057  19.407  0.00  0.00    +0.210 HD
ENDBRANCH   3  10
BRANCH   2  12
ATOM     12  O   LIG    1       29.337  28.651  18.483  0.00  0.00    -0.348 OA
BRANCH  12  13
ATOM     13  C   LIG    1       29.988  28.663  17.221  0.00  0.00    +0.168 C 
BRANCH  13  14
ATOM     14  C   LIG    1       30.568  27.284  16.927  0.00  0.00    +0.063 C 
BRANCH  14  15
ATOM     15  C   LIG    1       30.193  26.785  15.552  0.00  0.00    -0.045 A 
ATOM     16  C   LIG    1       30.651  25.546  15.133  0.00  0.00    +0.007 A 
ATOM     17  C   LIG    1       30.305  25.083  13.863  0.00  0.00    +0.045 A 
ATOM     18  C   LIG    1       29.507  25.866  13.030  0.00  0.00    +0.117 A 
ATOM     19  C   LIG    1       29.054  27.112  13.466  0.00  0.00    +0.045 A 
ATOM     22  C   LIG    1       29.400  27.573  14.736  0.00  0.00    +0.007 A 
BRANCH  18  20
ATOM     20  O   LIG    1       29.169  25.416  11.790  0.00  0.00    -0.507 OA
ATOM     21  H   LIG    1       28.578  26.064  11.370  0.00  0.00    +0.292 HD
ENDBRANCH  18  20
ENDBRANCH  14  15
ENDBRANCH  13  14
ENDBRANCH  12  13
ENDBRANCH   2  12
BRANCH  23  24
ATOM     24  C   LIG    1       32.488  30.200  21.620  0.00  0.00    +0.190 C 
BRANCH  24  25
ATOM     25  O   LIG    1       33.239  31.365  21.908  0.00  0.00    -0.392 OA
ATOM     26  H   LIG    1       32.629  32.121  21.888  0.00  0.00    +0.210 HD
ENDBRANCH  24  25
ENDBRANCH  23  24
TORSDOF 10
ENDMDL
MODEL 5
REMARK VINA RESULT:      -6.0      1.707      1.924
REMARK  Name = 159278
REMARK                            x       y       z     vdW  Elec       q    Type
REMARK                         _______ _______ _______ _____ _____    ______ ____
ROOT
ATOM      1  O   LIG    1       29.897  31.094  18.104  0.00  0.00    -0.341 OA
ATOM      2  C   LIG    1       29.375  30.365  16.995  0.00  0.00    +0.282 C 
ATOM      3  C   LIG    1       27.849  30.314  17.059  0.00  0.00    +0.201 C 
ATOM      4  C   LIG    1       27.249  31.716  17.182  0.00  0.00    +0.179 C 
ATOM      5  C   LIG    1       27.947  32.521  18.278  0.00  0.00    +0.177 C 
ATOM     23  C   LIG    1       29.467  32.456  18.118  0.00  0.00    +0.178 C 
ENDROOT
BRANCH   5   6
ATOM      6  O   LIG    1       27.523  33.880  18.206  0.00  0.00    -0.386 OA
ATOM      7  H   LIG    1       28.239  34.437  18.556  0.00  0.00    +0.210 HD
ENDBRANCH   5   6
BRANCH   4   8
ATOM      8  O   LIG    1       25.866  31.614  17.520  0.00  0.00    -0.386 OA
ATOM      9  H   LIG    1       25.769  30.859  18.126  0.00  0.00    +0.210 HD
ENDBRANCH   4   8
BRANCH   3  10
ATOM     10  O   LIG    1       27.371  29.698  15.863  0.00  0.00    -0.384 OA
ATOM     11  H   LIG    1       27.465  28.736  15.960  0.00  0.00    +0.210 HD
ENDBRANCH   3  10
BRANCH   2  12
ATOM     12  O   LIG    1       29.861  29.024  17.027  0.00  0.00    -0.348 OA
BRANCH  12  13
ATOM     13  C   LIG    1       30.969  28.856  16.157  0.00  0.00    +0.168 C 
BRANCH  13  14
ATOM     14  C   LIG    1       30.478  28.680  14.724  0.00  0.00    +0.063 C 
BRANCH  14  15
ATOM     15  C   LIG    1       29.990  27.277  14.453  0.00  0.00    -0.045 A 
ATOM     16  C   LIG    1       30.561  26.216  15.138  0.00  0.00    +0.007 A 
ATOM     17  C   LIG    1       30.111  24.920  14.888  0.00  0.00    +0.045 A 
ATOM     18  C   LIG    1       29.097  24.702  13.957  0.00  0.00    +0.117 A 
ATOM     19  C   LIG    1       28.531  25.780  13.275  0.00  0.00    +0.045 A 
ATOM     22  C   LIG    1       28.982  27.076  13.526  0.00  0.00    +0.007 A 
BRANCH  18  20
ATOM     20  O   LIG    1       28.657  23.437  13.712  0.00  0.00    -0.507 OA
ATOM     21  H   LIG    1       28.940  22.858  14.441  0.00  0.00    +0.292 HD
ENDBRANCH  18  20
ENDBRANCH  14  15
ENDBRANCH  13  14
ENDBRANCH  12  13
ENDBRANCH   2  12
BRANCH  23  24
ATOM     24  C   LIG    1       30.187  33.153  19.266  0.00  0.00    +0.190 C 
BRANCH  24  25
ATOM     25  O   LIG    1       29.307  33.229  20.372  0.00  0.00    -0.392 OA
ATOM     26  H   LIG    1       29.001  34.149  20.443  0.00  0.00    +0.210 HD
ENDBRANCH  24  25
ENDBRANCH  23  24
TORSDOF 10
ENDMDL
MODEL 6
REMARK VINA RESULT:      -5.8      1.557      2.398
REMARK  Name = 159278
REMARK                            x       y       z     vdW  Elec       q    Type
REMARK                         _______ _______ _______ _____ _____    ______ ____
ROOT
ATOM      1  O   LIG    1       29.998  29.423  18.738  0.00  0.00    -0.341 OA
ATOM      2  C   LIG    1       29.128  30.550  18.656  0.00  0.00    +0.282 C 
ATOM      3  C   LIG    1       28.171  30.575  19.848  0.00  0.00    +0.201 C 
ATOM      4  C   LIG    1       28.931  30.509  21.174  0.00  0.00    +0.179 C 
ATOM      5  C   LIG    1       29.968  29.386  21.161  0.00  0.00    +0.177 C 
ATOM     23  C   LIG    1       30.830  29.455  19.899  0.00  0.00    +0.178 C 
ENDROOT
BRANCH   5   6
ATOM      6  O   LIG    1       30.804  29.504  22.309  0.00  0.00    -0.386 OA
ATOM      7  H   LIG    1       30.239  29.707  23.074  0.00  0.00    +0.210 HD
ENDBRANCH   5   6
BRANCH   4   8
ATOM      8  O   LIG    1       28.013  30.252  22.236  0.00  0.00    -0.386 OA
ATOM      9  H   LIG    1       28.065  29.303  22.442  0.00  0.00    +0.210 HD
ENDBRANCH   4   8
BRANCH   3  10
ATOM     10  O   LIG    1       27.420  31.788  19.794  0.00  0.00    -0.384 OA
ATOM     11  H   LIG    1       27.598  32.215  18.938  0.00  0.00    +0.210 HD
ENDBRANCH   3  10
BRANCH   2  12
ATOM     12  O   LIG    1       28.345  30.469  17.467  0.00  0.00    -0.348 OA
BRANCH  12  13
ATOM     13  C   LIG    1       28.290  29.138  16.974  0.00  0.00    +0.168 C 
BRANCH  13  14
ATOM     14  C   LIG    1       28.745  29.108  15.520  0.00  0.00    +0.063 C 
BRANCH  14  15
ATOM     15  C   LIG    1       29.391  27.795  15.147  0.00  0.00    -0.045 A 
ATOM     16  C   LIG    1       30.140  27.115  16.094  0.00  0.00    +0.007 A 
ATOM     17  C   LIG    1       30.736  25.901  15.751  0.00  0.00    +0.045 A 
ATOM     18  C   LIG    1       30.575  25.385  14.467  0.00  0.00    +0.117 A 
ATOM     19  C   LIG    1       29.818  26.081  13.524  0.00  0.00    +0.045 A 
ATOM     22  C   LIG    1       29.222  27.294  13.867  0.00  0.00    +0.007 A 
BRANCH  18  20
ATOM     20  O   LIG    1       31.157  24.200  14.131  0.00  0.00    -0.507 OA
ATOM     21  H   LIG    1       30.464  23.526  14.031  0.00  0.00    +0.292 HD
ENDBRANCH  18  20
ENDBRANCH  14  15
ENDBRANCH  13  14
ENDBRANCH  12  13
ENDBRANCH   2  12
BRANCH  23  24
ATOM     24  C   LIG    1       31.793  28.277  19.806  0.00  0.00    +0.190 C 
BRANCH  24  25
ATOM     25  O   LIG    1       31.187  27.149  20.410  0.00  0.00    -0.392 OA
ATOM     26  H   LIG    1       31.893  26.523  20.641  0.00  0.00    +0.210 HD
ENDBRANCH  24  25
ENDBRANCH  23  24
TORSDOF 10
ENDMDL
MODEL 7
REMARK VINA RESULT:      -5.7      1.912      3.085
REMARK  Name = 159278
REMARK                            x       y       z     vdW  Elec       q    Type
REMARK                         _______ _______ _______ _____ _____    ______ ____
ROOT
ATOM      1  O   LIG    1       30.169  30.944  18.646  0.00  0.00    -0.341 OA
ATOM      2  C   LIG    1       30.283  29.524  18.706  0.00  0.00    +0.282 C 
ATOM      3  C   LIG    1       30.564  29.069  20.138  0.00  0.00    +0.201 C 
ATOM      4  C   LIG    1       29.522  29.621  21.112  0.00  0.00    +0.179 C 
ATOM      5  C   LIG    1       29.313  31.122  20.906  0.00  0.00    +0.177 C 
ATOM     23  C   LIG    1       29.082  31.441  19.428  0.00  0.00    +0.178 C 
ENDROOT
BRANCH   5   6
ATOM      6  O   LIG    1       28.183  31.548  21.663  0.00  0.00    -0.386 OA
ATOM      7  H   LIG    1       28.415  32.381  22.108  0.00  0.00    +0.210 HD
ENDBRANCH   5   6
BRANCH   4   8
ATOM      8  O   LIG    1       29.968  29.417  22.453  0.00  0.00    -0.386 OA
ATOM      9  H   LIG    1       29.193  29.165  22.983  0.00  0.00    +0.210 HD
ENDBRANCH   4   8
BRANCH   3  10
ATOM     10  O   LIG    1       30.531  27.642  20.169  0.00  0.00    -0.384 OA
ATOM     11  H   LIG    1       29.780  27.346  19.627  0.00  0.00    +0.210 HD
ENDBRANCH   3  10
BRANCH   2  12
ATOM     12  O   LIG    1       31.369  29.092  17.888  0.00  0.00    -0.348 OA
BRANCH  12  13
ATOM     13  C   LIG    1       30.915  28.665  16.612  0.00  0.00    +0.168 C 
BRANCH  13  14
ATOM     14  C   LIG    1       30.812  27.144  16.585  0.00  0.00    +0.063 C 
BRANCH  14  15
ATOM     15  C   LIG    1       30.355  26.624  15.243  0.00  0.00    -0.045 A 
ATOM     16  C   LIG    1       30.757  25.363  14.831  0.00  0.00    +0.007 A 
ATOM     17  C   LIG    1       30.335  24.882  13.592  0.00  0.00    +0.045 A 
ATOM     18  C   LIG    1       29.517  25.667  12.781  0.00  0.00    +0.117 A 
ATOM     19  C   LIG    1       29.120  26.935  13.209  0.00  0.00    +0.045 A 
ATOM     22  C   LIG    1       29.542  27.415  14.449  0.00  0.00    +0.007 A 
BRANCH  18  20
ATOM     20  O   LIG    1       29.105  25.198  11.571  0.00  0.00    -0.507 OA
ATOM     21  H   LIG    1       28.148  25.031  11.608  0.00  0.00    +0.292 HD
ENDBRANCH  18  20
ENDBRANCH  14  15
ENDBRANCH  13  14
ENDBRANCH  12  13
ENDBRANCH   2  12
BRANCH  23  24
ATOM     24  C   LIG    1       28.988  32.943  19.182  0.00  0.00    +0.190 C 
BRANCH  24  25
ATOM     25  O   LIG    1       29.488  33.619  20.321  0.00  0.00    -0.392 OA
ATOM     26  H   LIG    1       29.530  32.977  21.049  0.00  0.00    +0.210 HD
ENDBRANCH  24  25
ENDBRANCH  23  24
TORSDOF 10
ENDMDL
MODEL 8
REMARK VINA RESULT:      -5.7      1.618      3.061
REMARK  Name = 159278
REMARK                            x       y       z     vdW  Elec       q    Type
REMARK                         _______ _______ _______ _____ _____    ______ ____
ROOT
ATOM      1  O   LIG    1       29.296  30.382  18.718  0.00  0.00    -0.341 OA
ATOM      2  C   LIG    1       29.539  29.147  18.046  0.00  0.00    +0.282 C 
ATOM      3  C   LIG    1       30.799  28.479  18.595  0.00  0.00    +0.201 C 
ATOM      4  C   LIG    1       30.730  28.322  20.115  0.00  0.00    +0.179 C 
ATOM      5  C   LIG    1       30.309  29.630  20.786  0.00  0.00    +0.177 C 
ATOM     23  C   LIG    1       29.062  30.209  20.116  0.00  0.00    +0.178 C 
ENDROOT
BRANCH   5   6
ATOM      6  O   LIG    1       30.033  29.384  22.163  0.00  0.00    -0.386 OA
ATOM      7  H   LIG    1       29.590  28.522  22.232  0.00  0.00    +0.210 HD
ENDBRANCH   5   6
BRANCH   4   8
ATOM      8  O   LIG    1       32.017  27.962  20.615  0.00  0.00    -0.386 OA
ATOM      9  H   LIG    1       31.912  27.142  21.127  0.00  0.00    +0.210 HD
ENDBRANCH   4   8
BRANCH   3  10
ATOM     10  O   LIG    1       30.921  27.190  17.992  0.00  0.00    -0.384 OA
ATOM     11  H   LIG    1       31.588  26.686  18.488  0.00  0.00    +0.210 HD
ENDBRANCH   3  10
BRANCH   2  12
ATOM     12  O   LIG    1       29.740  29.387  16.654  0.00  0.00    -0.348 OA
BRANCH  12  13
ATOM     13  C   LIG    1       28.694  28.822  15.877  0.00  0.00    +0.168 C 
BRANCH  13  14
ATOM     14  C   LIG    1       29.091  28.818  14.405  0.00  0.00    +0.063 C 
BRANCH  14  15
ATOM     15  C   LIG    1       29.421  27.433  13.904  0.00  0.00    -0.045 A 
ATOM     16  C   LIG    1       28.676  26.891  12.868  0.00  0.00    +0.007 A 
ATOM     17  C   LIG    1       28.980  25.611  12.404  0.00  0.00    +0.045 A 
ATOM     18  C   LIG    1       30.024  24.890  12.982  0.00  0.00    +0.117 A 
ATOM     19  C   LIG    1       30.765  25.448  14.024  0.00  0.00    +0.045 A 
ATOM     22  C   LIG    1       30.460  26.728  14.487  0.00  0.00    +0.007 A 
BRANCH  18  20
ATOM     20  O   LIG    1       30.322  23.641  12.530  0.00  0.00    -0.507 OA
ATOM     21  H   LIG    1       30.004  22.988  13.177  0.00  0.00    +0.292 HD
ENDBRANCH  18  20
ENDBRANCH  14  15
ENDBRANCH  13  14
ENDBRANCH  12  13
ENDBRANCH   2  12
BRANCH  23  24
ATOM     24  C   LIG    1       28.692  31.572  20.692  0.00  0.00    +0.190 C 
BRANCH  24  25
ATOM     25  O   LIG    1       27.860  31.375  21.819  0.00  0.00    -0.392 OA
ATOM     26  H   LIG    1       27.212  32.100  21.837  0.00  0.00    +0.210 HD
ENDBRANCH  24  25
ENDBRANCH  23  24
TORSDOF 10
ENDMDL
MODEL 9
REMARK VINA RESULT:      -5.6      2.773      3.687
REMARK  Name = 159278
REMARK                            x       y       z     vdW  Elec       q    Type
REMARK                         _______ _______ _______ _____ _____    ______ ____
ROOT
ATOM      1  O   LIG    1       31.135  29.677  20.708  0.00  0.00    -0.341 OA
ATOM      2  C   LIG    1       30.069  29.564  19.767  0.00  0.00    +0.282 C 
ATOM      3  C   LIG    1       28.741  29.955  20.414  0.00  0.00    +0.201 C 
ATOM      4  C   LIG    1       28.820  31.341  21.054  0.00  0.00    +0.179 C 
ATOM      5  C   LIG    1       30.065  31.475  21.931  0.00  0.00    +0.177 C 
ATOM     23  C   LIG    1       31.314  31.015  21.176  0.00  0.00    +0.178 C 
ENDROOT
BRANCH   5   6
ATOM      6  O   LIG    1       30.224  32.837  22.319  0.00  0.00    -0.386 OA
ATOM      7  H   LIG    1       29.442  33.097  22.835  0.00  0.00    +0.210 HD
ENDBRANCH   5   6
BRANCH   4   8
ATOM      8  O   LIG    1       27.674  31.550  21.880  0.00  0.00    -0.386 OA
ATOM      9  H   LIG    1       27.705  32.470  22.195  0.00  0.00    +0.210 HD
ENDBRANCH   4   8
BRANCH   3  10
ATOM     10  O   LIG    1       27.734  29.959  19.402  0.00  0.00    -0.384 OA
ATOM     11  H   LIG    1       26.928  29.565  19.776  0.00  0.00    +0.210 HD
ENDBRANCH   3  10
BRANCH   2  12
ATOM     12  O   LIG    1       29.960  28.213  19.323  0.00  0.00    -0.348 OA
BRANCH  12  13
ATOM     13  C   LIG    1       30.976  27.895  18.383  0.00  0.00    +0.168 C 
BRANCH  13  14
ATOM     14  C   LIG    1       30.364  27.181  17.183  0.00  0.00    +0.063 C 
BRANCH  14  15
ATOM     15  C   LIG    1       30.422  28.017  15.928  0.00  0.00    -0.045 A 
ATOM     16  C   LIG    1       31.225  29.147  15.901  0.00  0.00    +0.007 A 
ATOM     17  C   LIG    1       31.280  29.920  14.741  0.00  0.00    +0.045 A 
ATOM     18  C   LIG    1       30.530  29.553  13.624  0.00  0.00    +0.117 A 
ATOM     19  C   LIG    1       29.726  28.414  13.666  0.00  0.00    +0.045 A 
ATOM     22  C   LIG    1       29.672  27.641  14.826  0.00  0.00    +0.007 A 
BRANCH  18  20
ATOM     20  O   LIG    1       30.582  30.307  12.491  0.00  0.00    -0.507 OA
ATOM     21  H   LIG    1       31.426  30.137  12.038  0.00  0.00    +0.292 HD
ENDBRANCH  18  20
ENDBRANCH  14  15
ENDBRANCH  13  14
ENDBRANCH  12  13
ENDBRANCH   2  12
BRANCH  23  24
ATOM     24  C   LIG    1       32.551  31.028  22.068  0.00  0.00    +0.190 C 
BRANCH  24  25
ATOM     25  O   LIG    1       32.142  31.257  23.403  0.00  0.00    -0.392 OA
ATOM     26  H   LIG    1       32.858  30.953  23.986  0.00  0.00    +0.210 HD
ENDBRANCH  24  25
ENDBRANCH  23  24
TORSDOF 10
ENDMDL
