MODEL 1
REMARK VINA RESULT:      -7.7      0.000      0.000
REMARK  6 active torsions:
REMARK  status: ('A' for Active; 'I' for Inactive)
REMARK    1  A    between atoms: O_2  and  C_9 
REMARK    2  A    between atoms: O_4  and  C_14 
REMARK    3  A    between atoms: O_5  and  C_19 
REMARK    4  A    between atoms: O_6  and  C_20 
REMARK    5  A    between atoms: O_7  and  C_22 
REMARK    6  A    between atoms: C_8  and  C_10 
ROOT
HETATM    1  O   UNK     0     150.882 157.058 151.175  0.00  0.00    -0.337 OA
HETATM    2  O   UNK     0     148.349 154.099 149.879  0.00  0.00    -0.289 OA
HETATM    3  C   UNK     0     150.987 155.715 151.674  0.00  0.00     0.198 C 
HETATM    4  C   UNK     0     150.570 154.695 150.614  0.00  0.00     0.227 C 
HETATM    5  C   UNK     0     149.141 154.977 150.203  0.00  0.00     0.196 C 
HETATM    6  C   UNK     0     148.754 156.401 150.179  0.00  0.00     0.079 A 
HETATM    7  C   UNK     0     149.654 157.360 150.651  0.00  0.00     0.089 A 
HETATM    8  C   UNK     0     147.515 156.789 149.661  0.00  0.00     0.085 A 
HETATM    9  C   UNK     0     149.325 158.714 150.573  0.00  0.00     0.074 A 
HETATM   10  C   UNK     0     147.185 158.142 149.604  0.00  0.00     0.074 A 
HETATM   11  C   UNK     0     148.089 159.104 150.054  0.00  0.00     0.071 A 
ENDROOT
BRANCH   3  12
HETATM   12  C   UNK     0     152.423 155.511 152.117  0.00  0.00    -0.023 A 
HETATM   13  C   UNK     0     152.700 155.170 153.439  0.00  0.00     0.049 A 
HETATM   14  C   UNK     0     154.021 154.982 153.847  0.00  0.00     0.099 A 
HETATM   15  C   UNK     0     155.062 155.138 152.932  0.00  0.00     0.098 A 
HETATM   16  C   UNK     0     154.782 155.480 151.609  0.00  0.00     0.040 A 
HETATM   17  C   UNK     0     153.462 155.667 151.201  0.00  0.00     0.013 A 
BRANCH  14  18
HETATM   18  O   UNK     0     154.281 154.648 155.141  0.00  0.00    -0.358 OA
HETATM   19  H   UNK     0     155.122 155.063 155.401  0.00  0.00     0.217 HD
ENDBRANCH  14  18
BRANCH  15  20
HETATM   20  O   UNK     0     156.356 154.957 153.318  0.00  0.00    -0.358 OA
HETATM   21  H   UNK     0     156.929 155.535 152.785  0.00  0.00     0.217 HD
ENDBRANCH  15  20
ENDBRANCH   3  12
BRANCH   4  22
HETATM   22  O   UNK     0     150.625 153.383 151.148  0.00  0.00    -0.385 OA
HETATM   23  H   UNK     0     149.794 152.936 150.914  0.00  0.00     0.210 HD
ENDBRANCH   4  22
BRANCH   8  24
HETATM   24  O   UNK     0     146.601 155.895 149.191  0.00  0.00    -0.360 OA
HETATM   25  H   UNK     0     145.816 155.878 149.759  0.00  0.00     0.217 HD
ENDBRANCH   8  24
BRANCH  11  26
HETATM   26  O   UNK     0     147.766 160.425 149.988  0.00  0.00    -0.361 OA
HETATM   27  H   UNK     0     148.106 160.873 150.782  0.00  0.00     0.217 HD
ENDBRANCH  11  26
TORSDOF 6
ENDMDL
MODEL 2
REMARK VINA RESULT:      -7.6      2.369      6.842
REMARK  6 active torsions:
REMARK  status: ('A' for Active; 'I' for Inactive)
REMARK    1  A    between atoms: O_2  and  C_9 
REMARK    2  A    between atoms: O_4  and  C_14 
REMARK    3  A    between atoms: O_5  and  C_19 
REMARK    4  A    between atoms: O_6  and  C_20 
REMARK    5  A    between atoms: O_7  and  C_22 
REMARK    6  A    between atoms: C_8  and  C_10 
ROOT
HETATM    1  O   UNK     0     151.735 155.601 151.254  0.00  0.00    -0.337 OA
HETATM    2  O   UNK     0     153.320 151.817 151.129  0.00  0.00    -0.289 OA
HETATM    3  C   UNK     0     151.172 154.585 150.410  0.00  0.00     0.198 C 
HETATM    4  C   UNK     0     151.341 153.195 151.026  0.00  0.00     0.227 C 
HETATM    5  C   UNK     0     152.816 152.930 151.230  0.00  0.00     0.196 C 
HETATM    6  C   UNK     0     153.629 154.104 151.603  0.00  0.00     0.079 A 
HETATM    7  C   UNK     0     153.037 155.369 151.609  0.00  0.00     0.089 A 
HETATM    8  C   UNK     0     154.967 153.949 151.974  0.00  0.00     0.085 A 
HETATM    9  C   UNK     0     153.778 156.478 152.022  0.00  0.00     0.074 A 
HETATM   10  C   UNK     0     155.708 155.064 152.367  0.00  0.00     0.074 A 
HETATM   11  C   UNK     0     155.113 156.325 152.396  0.00  0.00     0.071 A 
ENDROOT
BRANCH   3  12
HETATM   12  C   UNK     0     149.711 154.934 150.199  0.00  0.00    -0.023 A 
HETATM   13  C   UNK     0     149.232 155.165 148.912  0.00  0.00     0.049 A 
HETATM   14  C   UNK     0     147.888 155.486 148.717  0.00  0.00     0.099 A 
HETATM   15  C   UNK     0     147.028 155.576 149.811  0.00  0.00     0.098 A 
HETATM   16  C   UNK     0     147.510 155.343 151.099  0.00  0.00     0.040 A 
HETATM   17  C   UNK     0     148.853 155.023 151.293  0.00  0.00     0.013 A 
BRANCH  14  18
HETATM   18  O   UNK     0     147.428 155.710 147.455  0.00  0.00    -0.358 OA
HETATM   19  H   UNK     0     148.160 156.067 146.921  0.00  0.00     0.217 HD
ENDBRANCH  14  18
BRANCH  15  20
HETATM   20  O   UNK     0     145.713 155.888 149.634  0.00  0.00    -0.358 OA
HETATM   21  H   UNK     0     145.200 155.064 149.558  0.00  0.00     0.217 HD
ENDBRANCH  15  20
ENDBRANCH   3  12
BRANCH   4  22
HETATM   22  O   UNK     0     150.832 152.206 150.148  0.00  0.00    -0.385 OA
HETATM   23  H   UNK     0     151.588 151.808 149.685  0.00  0.00     0.210 HD
ENDBRANCH   4  22
BRANCH   8  24
HETATM   24  O   UNK     0     155.594 152.739 151.982  0.00  0.00    -0.360 OA
HETATM   25  H   UNK     0     155.239 152.175 152.686  0.00  0.00     0.217 HD
ENDBRANCH   8  24
BRANCH  11  26
HETATM   26  O   UNK     0     155.837 157.409 152.788  0.00  0.00    -0.361 OA
HETATM   27  H   UNK     0     156.641 157.467 152.242  0.00  0.00     0.217 HD
ENDBRANCH  11  26
TORSDOF 6
ENDMDL
MODEL 3
REMARK VINA RESULT:      -7.5      4.483      7.082
REMARK  6 active torsions:
REMARK  status: ('A' for Active; 'I' for Inactive)
REMARK    1  A    between atoms: O_2  and  C_9 
REMARK    2  A    between atoms: O_4  and  C_14 
REMARK    3  A    between atoms: O_5  and  C_19 
REMARK    4  A    between atoms: O_6  and  C_20 
REMARK    5  A    between atoms: O_7  and  C_22 
REMARK    6  A    between atoms: C_8  and  C_10 
ROOT
HETATM    1  O   UNK     0     154.331 153.621 149.153  0.00  0.00    -0.337 OA
HETATM    2  O   UNK     0     150.661 154.101 150.926  0.00  0.00    -0.289 OA
HETATM    3  C   UNK     0     153.201 152.832 148.751  0.00  0.00     0.198 C 
HETATM    4  C   UNK     0     151.895 153.613 148.910  0.00  0.00     0.227 C 
HETATM    5  C   UNK     0     151.745 154.019 150.360  0.00  0.00     0.196 C 
HETATM    6  C   UNK     0     153.000 154.354 151.061  0.00  0.00     0.079 A 
HETATM    7  C   UNK     0     154.219 154.151 150.411  0.00  0.00     0.089 A 
HETATM    8  C   UNK     0     152.968 154.896 152.349  0.00  0.00     0.085 A 
HETATM    9  C   UNK     0     155.409 154.524 151.039  0.00  0.00     0.074 A 
HETATM   10  C   UNK     0     154.161 155.249 152.978  0.00  0.00     0.074 A 
HETATM   11  C   UNK     0     155.379 155.068 152.323  0.00  0.00     0.071 A 
ENDROOT
BRANCH   3  12
HETATM   12  C   UNK     0     153.434 152.413 147.312  0.00  0.00    -0.023 A 
HETATM   13  C   UNK     0     153.688 151.076 147.012  0.00  0.00     0.049 A 
HETATM   14  C   UNK     0     153.903 150.689 145.688  0.00  0.00     0.099 A 
HETATM   15  C   UNK     0     153.864 151.641 144.670  0.00  0.00     0.098 A 
HETATM   16  C   UNK     0     153.608 152.979 144.973  0.00  0.00     0.040 A 
HETATM   17  C   UNK     0     153.394 153.364 146.295  0.00  0.00     0.013 A 
BRANCH  14  18
HETATM   18  O   UNK     0     154.151 149.381 145.404  0.00  0.00    -0.358 OA
HETATM   19  H   UNK     0     154.369 148.923 146.235  0.00  0.00     0.217 HD
ENDBRANCH  14  18
BRANCH  15  20
HETATM   20  O   UNK     0     154.071 151.276 143.373  0.00  0.00    -0.358 OA
HETATM   21  H   UNK     0     153.879 150.327 143.277  0.00  0.00     0.217 HD
ENDBRANCH  15  20
ENDBRANCH   3  12
BRANCH   4  22
HETATM   22  O   UNK     0     150.791 152.794 148.564  0.00  0.00    -0.385 OA
HETATM   23  H   UNK     0     150.233 152.705 149.356  0.00  0.00     0.210 HD
ENDBRANCH   4  22
BRANCH   8  24
HETATM   24  O   UNK     0     151.807 155.111 153.029  0.00  0.00    -0.360 OA
HETATM   25  H   UNK     0     151.864 154.751 153.927  0.00  0.00     0.217 HD
ENDBRANCH   8  24
BRANCH  11  26
HETATM   26  O   UNK     0     156.541 155.422 152.938  0.00  0.00    -0.361 OA
HETATM   27  H   UNK     0     157.284 155.242 152.337  0.00  0.00     0.217 HD
ENDBRANCH  11  26
TORSDOF 6
ENDMDL
MODEL 4
REMARK VINA RESULT:      -7.5      2.195      3.759
REMARK  6 active torsions:
REMARK  status: ('A' for Active; 'I' for Inactive)
REMARK    1  A    between atoms: O_2  and  C_9 
REMARK    2  A    between atoms: O_4  and  C_14 
REMARK    3  A    between atoms: O_5  and  C_19 
REMARK    4  A    between atoms: O_6  and  C_20 
REMARK    5  A    between atoms: O_7  and  C_22 
REMARK    6  A    between atoms: C_8  and  C_10 
ROOT
HETATM    1  O   UNK     0     151.244 157.300 151.008  0.00  0.00    -0.337 OA
HETATM    2  O   UNK     0     152.277 160.983 152.494  0.00  0.00    -0.289 OA
HETATM    3  C   UNK     0     152.620 157.683 151.161  0.00  0.00     0.198 C 
HETATM    4  C   UNK     0     152.802 158.632 152.346  0.00  0.00     0.227 C 
HETATM    5  C   UNK     0     151.952 159.863 152.118  0.00  0.00     0.196 C 
HETATM    6  C   UNK     0     150.665 159.631 151.436  0.00  0.00     0.079 A 
HETATM    7  C   UNK     0     150.379 158.359 150.935  0.00  0.00     0.089 A 
HETATM    8  C   UNK     0     149.730 160.663 151.318  0.00  0.00     0.085 A 
HETATM    9  C   UNK     0     149.138 158.111 150.345  0.00  0.00     0.074 A 
HETATM   10  C   UNK     0     148.500 160.414 150.710  0.00  0.00     0.074 A 
HETATM   11  C   UNK     0     148.202 159.139 150.229  0.00  0.00     0.071 A 
ENDROOT
BRANCH   3  12
HETATM   12  C   UNK     0     153.424 156.409 151.331  0.00  0.00    -0.023 A 
HETATM   13  C   UNK     0     153.140 155.545 152.387  0.00  0.00     0.049 A 
HETATM   14  C   UNK     0     153.880 154.372 152.545  0.00  0.00     0.099 A 
HETATM   15  C   UNK     0     154.902 154.068 151.647  0.00  0.00     0.098 A 
HETATM   16  C   UNK     0     155.185 154.934 150.590  0.00  0.00     0.040 A 
HETATM   17  C   UNK     0     154.445 156.105 150.433  0.00  0.00     0.013 A 
BRANCH  14  18
HETATM   18  O   UNK     0     153.595 153.534 153.579  0.00  0.00    -0.358 OA
HETATM   19  H   UNK     0     152.950 152.875 153.270  0.00  0.00     0.217 HD
ENDBRANCH  14  18
BRANCH  15  20
HETATM   20  O   UNK     0     155.631 152.925 151.789  0.00  0.00    -0.358 OA
HETATM   21  H   UNK     0     155.521 152.378 150.992  0.00  0.00     0.217 HD
ENDBRANCH  15  20
ENDBRANCH   3  12
BRANCH   4  22
HETATM   22  O   UNK     0     154.156 159.042 152.440  0.00  0.00    -0.385 OA
HETATM   23  H   UNK     0     154.234 159.619 153.218  0.00  0.00     0.210 HD
ENDBRANCH   4  22
BRANCH   8  24
HETATM   24  O   UNK     0     149.960 161.922 151.786  0.00  0.00    -0.360 OA
HETATM   25  H   UNK     0     150.144 161.905 152.737  0.00  0.00     0.217 HD
ENDBRANCH   8  24
BRANCH  11  26
HETATM   26  O   UNK     0     146.997 158.898 149.644  0.00  0.00    -0.361 OA
HETATM   27  H   UNK     0     147.078 159.035 148.684  0.00  0.00     0.217 HD
ENDBRANCH  11  26
TORSDOF 6
ENDMDL
MODEL 5
REMARK VINA RESULT:      -7.5      1.059      1.228
REMARK  6 active torsions:
REMARK  status: ('A' for Active; 'I' for Inactive)
REMARK    1  A    between atoms: O_2  and  C_9 
REMARK    2  A    between atoms: O_4  and  C_14 
REMARK    3  A    between atoms: O_5  and  C_19 
REMARK    4  A    between atoms: O_6  and  C_20 
REMARK    5  A    between atoms: O_7  and  C_22 
REMARK    6  A    between atoms: C_8  and  C_10 
ROOT
HETATM    1  O   UNK     0     149.893 157.185 150.536  0.00  0.00    -0.337 OA
HETATM    2  O   UNK     0     147.426 153.937 150.082  0.00  0.00    -0.289 OA
HETATM    3  C   UNK     0     150.183 155.934 151.178  0.00  0.00     0.198 C 
HETATM    4  C   UNK     0     149.682 154.754 150.344  0.00  0.00     0.227 C 
HETATM    5  C   UNK     0     148.188 154.894 150.151  0.00  0.00     0.196 C 
HETATM    6  C   UNK     0     147.691 156.277 150.009  0.00  0.00     0.079 A 
HETATM    7  C   UNK     0     148.576 157.341 150.194  0.00  0.00     0.089 A 
HETATM    8  C   UNK     0     146.358 156.518 149.665  0.00  0.00     0.085 A 
HETATM    9  C   UNK     0     148.133 158.651 150.000  0.00  0.00     0.074 A 
HETATM   10  C   UNK     0     145.917 157.829 149.492  0.00  0.00     0.074 A 
HETATM   11  C   UNK     0     146.803 158.894 149.653  0.00  0.00     0.071 A 
ENDROOT
BRANCH   3  12
HETATM   12  C   UNK     0     151.683 155.876 151.392  0.00  0.00    -0.023 A 
HETATM   13  C   UNK     0     152.195 155.722 152.679  0.00  0.00     0.049 A 
HETATM   14  C   UNK     0     153.575 155.668 152.877  0.00  0.00     0.099 A 
HETATM   15  C   UNK     0     154.440 155.770 151.787  0.00  0.00     0.098 A 
HETATM   16  C   UNK     0     153.925 155.923 150.499  0.00  0.00     0.040 A 
HETATM   17  C   UNK     0     152.545 155.977 150.302  0.00  0.00     0.013 A 
BRANCH  14  18
HETATM   18  O   UNK     0     154.066 155.517 154.138  0.00  0.00    -0.358 OA
HETATM   19  H   UNK     0     153.361 155.741 154.769  0.00  0.00     0.217 HD
ENDBRANCH  14  18
BRANCH  15  20
HETATM   20  O   UNK     0     155.790 155.718 151.967  0.00  0.00    -0.358 OA
HETATM   21  H   UNK     0     155.980 155.657 152.919  0.00  0.00     0.217 HD
ENDBRANCH  15  20
ENDBRANCH   3  12
BRANCH   4  22
HETATM   22  O   UNK     0     149.926 153.535 151.026  0.00  0.00    -0.385 OA
HETATM   23  H   UNK     0     149.492 153.592 151.894  0.00  0.00     0.210 HD
ENDBRANCH   4  22
BRANCH   8  24
HETATM   24  O   UNK     0     145.454 155.516 149.477  0.00  0.00    -0.360 OA
HETATM   25  H   UNK     0     145.616 155.062 148.637  0.00  0.00     0.217 HD
ENDBRANCH   8  24
BRANCH  11  26
HETATM   26  O   UNK     0     146.371 160.172 149.475  0.00  0.00    -0.361 OA
HETATM   27  H   UNK     0     147.122 160.779 149.593  0.00  0.00     0.217 HD
ENDBRANCH  11  26
TORSDOF 6
ENDMDL
MODEL 6
REMARK VINA RESULT:      -7.4      4.821      6.728
REMARK  6 active torsions:
REMARK  status: ('A' for Active; 'I' for Inactive)
REMARK    1  A    between atoms: O_2  and  C_9 
REMARK    2  A    between atoms: O_4  and  C_14 
REMARK    3  A    between atoms: O_5  and  C_19 
REMARK    4  A    between atoms: O_6  and  C_20 
REMARK    5  A    between atoms: O_7  and  C_22 
REMARK    6  A    between atoms: C_8  and  C_10 
ROOT
HETATM    1  O   UNK     0     154.567 157.410 148.586  0.00  0.00    -0.337 OA
HETATM    2  O   UNK     0     156.389 160.756 150.111  0.00  0.00    -0.289 OA
HETATM    3  C   UNK     0     155.262 157.373 149.842  0.00  0.00     0.198 C 
HETATM    4  C   UNK     0     155.176 158.719 150.563  0.00  0.00     0.227 C 
HETATM    5  C   UNK     0     155.781 159.785 149.676  0.00  0.00     0.196 C 
HETATM    6  C   UNK     0     155.563 159.607 148.227  0.00  0.00     0.079 A 
HETATM    7  C   UNK     0     154.954 158.437 147.768  0.00  0.00     0.089 A 
HETATM    8  C   UNK     0     155.935 160.610 147.327  0.00  0.00     0.085 A 
HETATM    9  C   UNK     0     154.685 158.286 146.406  0.00  0.00     0.074 A 
HETATM   10  C   UNK     0     155.681 160.445 145.966  0.00  0.00     0.074 A 
HETATM   11  C   UNK     0     155.052 159.288 145.506  0.00  0.00     0.071 A 
ENDROOT
BRANCH   3  12
HETATM   12  C   UNK     0     154.647 156.255 150.663  0.00  0.00    -0.023 A 
HETATM   13  C   UNK     0     155.382 155.100 150.922  0.00  0.00     0.049 A 
HETATM   14  C   UNK     0     154.818 154.071 151.676  0.00  0.00     0.099 A 
HETATM   15  C   UNK     0     153.519 154.200 152.169  0.00  0.00     0.098 A 
HETATM   16  C   UNK     0     152.785 155.358 151.909  0.00  0.00     0.040 A 
HETATM   17  C   UNK     0     153.350 156.386 151.154  0.00  0.00     0.013 A 
BRANCH  14  18
HETATM   18  O   UNK     0     155.544 152.946 151.925  0.00  0.00    -0.358 OA
HETATM   19  H   UNK     0     154.969 152.174 151.785  0.00  0.00     0.217 HD
ENDBRANCH  14  18
BRANCH  15  20
HETATM   20  O   UNK     0     152.957 153.203 152.908  0.00  0.00    -0.358 OA
HETATM   21  H   UNK     0     152.140 152.907 152.471  0.00  0.00     0.217 HD
ENDBRANCH  15  20
ENDBRANCH   3  12
BRANCH   4  22
HETATM   22  O   UNK     0     155.918 158.676 151.770  0.00  0.00    -0.385 OA
HETATM   23  H   UNK     0     155.386 158.191 152.424  0.00  0.00     0.210 HD
ENDBRANCH   4  22
BRANCH   8  24
HETATM   24  O   UNK     0     156.535 161.768 147.722  0.00  0.00    -0.360 OA
HETATM   25  H   UNK     0     157.497 161.705 147.627  0.00  0.00     0.217 HD
ENDBRANCH   8  24
BRANCH  11  26
HETATM   26  O   UNK     0     154.798 159.134 144.178  0.00  0.00    -0.361 OA
HETATM   27  H   UNK     0     154.399 158.259 144.032  0.00  0.00     0.217 HD
ENDBRANCH  11  26
TORSDOF 6
ENDMDL
MODEL 7
REMARK VINA RESULT:      -7.2     23.353     25.559
REMARK  6 active torsions:
REMARK  status: ('A' for Active; 'I' for Inactive)
REMARK    1  A    between atoms: O_2  and  C_9 
REMARK    2  A    between atoms: O_4  and  C_14 
REMARK    3  A    between atoms: O_5  and  C_19 
REMARK    4  A    between atoms: O_6  and  C_20 
REMARK    5  A    between atoms: O_7  and  C_22 
REMARK    6  A    between atoms: C_8  and  C_10 
ROOT
HETATM    1  O   UNK     0     152.186 172.092 133.430  0.00  0.00    -0.337 OA
HETATM    2  O   UNK     0     153.042 171.860 129.423  0.00  0.00    -0.289 OA
HETATM    3  C   UNK     0     151.494 172.908 132.471  0.00  0.00     0.198 C 
HETATM    4  C   UNK     0     151.364 172.194 131.126  0.00  0.00     0.227 C 
HETATM    5  C   UNK     0     152.749 171.867 130.613  0.00  0.00     0.196 C 
HETATM    6  C   UNK     0     153.744 171.512 131.645  0.00  0.00     0.079 A 
HETATM    7  C   UNK     0     153.398 171.630 132.993  0.00  0.00     0.089 A 
HETATM    8  C   UNK     0     155.005 171.037 131.278  0.00  0.00     0.085 A 
HETATM    9  C   UNK     0     154.307 171.237 133.976  0.00  0.00     0.074 A 
HETATM   10  C   UNK     0     155.916 170.664 132.265  0.00  0.00     0.074 A 
HETATM   11  C   UNK     0     155.567 170.759 133.613  0.00  0.00     0.071 A 
ENDROOT
BRANCH   3  12
HETATM   12  C   UNK     0     150.139 173.246 133.063  0.00  0.00    -0.023 A 
HETATM   13  C   UNK     0     150.055 174.092 134.166  0.00  0.00     0.049 A 
HETATM   14  C   UNK     0     148.809 174.403 134.711  0.00  0.00     0.099 A 
HETATM   15  C   UNK     0     147.650 173.865 134.152  0.00  0.00     0.098 A 
HETATM   16  C   UNK     0     147.736 173.018 133.046  0.00  0.00     0.040 A 
HETATM   17  C   UNK     0     148.982 172.708 132.502  0.00  0.00     0.013 A 
BRANCH  14  18
HETATM   18  O   UNK     0     148.736 175.232 135.789  0.00  0.00    -0.358 OA
HETATM   19  H   UNK     0     148.311 176.061 135.510  0.00  0.00     0.217 HD
ENDBRANCH  14  18
BRANCH  15  20
HETATM   20  O   UNK     0     146.427 174.162 134.674  0.00  0.00    -0.358 OA
HETATM   21  H   UNK     0     146.270 175.118 134.590  0.00  0.00     0.217 HD
ENDBRANCH  15  20
ENDBRANCH   3  12
BRANCH   4  22
HETATM   22  O   UNK     0     150.732 173.041 130.181  0.00  0.00    -0.385 OA
HETATM   23  H   UNK     0     150.394 172.480 129.463  0.00  0.00     0.210 HD
ENDBRANCH   4  22
BRANCH   8  24
HETATM   24  O   UNK     0     155.394 170.906 129.978  0.00  0.00    -0.360 OA
HETATM   25  H   UNK     0     156.332 170.670 129.923  0.00  0.00     0.217 HD
ENDBRANCH   8  24
BRANCH  11  26
HETATM   26  O   UNK     0     156.456 170.386 134.574  0.00  0.00    -0.361 OA
HETATM   27  H   UNK     0     157.298 170.146 134.149  0.00  0.00     0.217 HD
ENDBRANCH  11  26
TORSDOF 6
ENDMDL
MODEL 8
REMARK VINA RESULT:      -7.2      9.712     11.191
REMARK  6 active torsions:
REMARK  status: ('A' for Active; 'I' for Inactive)
REMARK    1  A    between atoms: O_2  and  C_9 
REMARK    2  A    between atoms: O_4  and  C_14 
REMARK    3  A    between atoms: O_5  and  C_19 
REMARK    4  A    between atoms: O_6  and  C_20 
REMARK    5  A    between atoms: O_7  and  C_22 
REMARK    6  A    between atoms: C_8  and  C_10 
ROOT
HETATM    1  O   UNK     0     149.742 149.644 143.276  0.00  0.00    -0.337 OA
HETATM    2  O   UNK     0     150.268 146.466 140.732  0.00  0.00    -0.289 OA
HETATM    3  C   UNK     0     150.804 148.698 143.475  0.00  0.00     0.198 C 
HETATM    4  C   UNK     0     151.298 148.131 142.143  0.00  0.00     0.227 C 
HETATM    5  C   UNK     0     150.140 147.457 141.441  0.00  0.00     0.196 C 
HETATM    6  C   UNK     0     148.822 148.096 141.630  0.00  0.00     0.079 A 
HETATM    7  C   UNK     0     148.704 149.162 142.524  0.00  0.00     0.089 A 
HETATM    8  C   UNK     0     147.713 147.658 140.901  0.00  0.00     0.085 A 
HETATM    9  C   UNK     0     147.477 149.815 142.663  0.00  0.00     0.074 A 
HETATM   10  C   UNK     0     146.487 148.302 141.059  0.00  0.00     0.074 A 
HETATM   11  C   UNK     0     146.369 149.382 141.934  0.00  0.00     0.071 A 
ENDROOT
BRANCH   3  12
HETATM   12  C   UNK     0     151.909 149.414 144.227  0.00  0.00    -0.023 A 
HETATM   13  C   UNK     0     152.565 150.491 143.635  0.00  0.00     0.049 A 
HETATM   14  C   UNK     0     153.582 151.151 144.326  0.00  0.00     0.099 A 
HETATM   15  C   UNK     0     153.940 150.731 145.607  0.00  0.00     0.098 A 
HETATM   16  C   UNK     0     153.281 149.652 146.198  0.00  0.00     0.040 A 
HETATM   17  C   UNK     0     152.265 148.993 145.507  0.00  0.00     0.013 A 
BRANCH  14  18
HETATM   18  O   UNK     0     154.217 152.203 143.740  0.00  0.00    -0.358 OA
HETATM   19  H   UNK     0     155.079 152.322 144.176  0.00  0.00     0.217 HD
ENDBRANCH  14  18
BRANCH  15  20
HETATM   20  O   UNK     0     154.931 151.368 146.293  0.00  0.00    -0.358 OA
HETATM   21  H   UNK     0     154.587 152.211 146.635  0.00  0.00     0.217 HD
ENDBRANCH  15  20
ENDBRANCH   3  12
BRANCH   4  22
HETATM   22  O   UNK     0     152.304 147.157 142.370  0.00  0.00    -0.385 OA
HETATM   23  H   UNK     0     151.926 146.475 142.950  0.00  0.00     0.210 HD
ENDBRANCH   4  22
BRANCH   8  24
HETATM   24  O   UNK     0     147.774 146.621 140.019  0.00  0.00    -0.360 OA
HETATM   25  H   UNK     0     146.934 146.138 140.000  0.00  0.00     0.217 HD
ENDBRANCH   8  24
BRANCH  11  26
HETATM   26  O   UNK     0     145.172 150.013 142.078  0.00  0.00    -0.361 OA
HETATM   27  H   UNK     0     144.973 150.504 141.262  0.00  0.00     0.217 HD
ENDBRANCH  11  26
TORSDOF 6
ENDMDL
MODEL 9
REMARK VINA RESULT:      -7.1      2.221      7.438
REMARK  6 active torsions:
REMARK  status: ('A' for Active; 'I' for Inactive)
REMARK    1  A    between atoms: O_2  and  C_9 
REMARK    2  A    between atoms: O_4  and  C_14 
REMARK    3  A    between atoms: O_5  and  C_19 
REMARK    4  A    between atoms: O_6  and  C_20 
REMARK    5  A    between atoms: O_7  and  C_22 
REMARK    6  A    between atoms: C_8  and  C_10 
ROOT
HETATM    1  O   UNK     0     151.509 157.040 151.330  0.00  0.00    -0.337 OA
HETATM    2  O   UNK     0     155.021 159.084 151.902  0.00  0.00    -0.289 OA
HETATM    3  C   UNK     0     151.523 158.467 151.489  0.00  0.00     0.198 C 
HETATM    4  C   UNK     0     152.811 159.074 150.931  0.00  0.00     0.227 C 
HETATM    5  C   UNK     0     153.990 158.468 151.661  0.00  0.00     0.196 C 
HETATM    6  C   UNK     0     153.841 157.050 152.043  0.00  0.00     0.079 A 
HETATM    7  C   UNK     0     152.614 156.414 151.840  0.00  0.00     0.089 A 
HETATM    8  C   UNK     0     154.924 156.343 152.574  0.00  0.00     0.085 A 
HETATM    9  C   UNK     0     152.481 155.057 152.138  0.00  0.00     0.074 A 
HETATM   10  C   UNK     0     154.779 154.992 152.887  0.00  0.00     0.074 A 
HETATM   11  C   UNK     0     153.562 154.348 152.665  0.00  0.00     0.071 A 
ENDROOT
BRANCH   3  12
HETATM   12  C   UNK     0     150.294 159.010 150.785  0.00  0.00    -0.023 A 
HETATM   13  C   UNK     0     149.896 158.465 149.566  0.00  0.00     0.049 A 
HETATM   14  C   UNK     0     148.765 158.964 148.917  0.00  0.00     0.099 A 
HETATM   15  C   UNK     0     148.038 160.007 149.489  0.00  0.00     0.098 A 
HETATM   16  C   UNK     0     148.438 160.551 150.710  0.00  0.00     0.040 A 
HETATM   17  C   UNK     0     149.568 160.052 151.357  0.00  0.00     0.013 A 
BRANCH  14  18
HETATM   18  O   UNK     0     148.383 158.425 147.727  0.00  0.00    -0.358 OA
HETATM   19  H   UNK     0     147.970 159.125 147.192  0.00  0.00     0.217 HD
ENDBRANCH  14  18
BRANCH  15  20
HETATM   20  O   UNK     0     146.931 160.502 148.866  0.00  0.00    -0.358 OA
HETATM   21  H   UNK     0     146.936 161.473 148.937  0.00  0.00     0.217 HD
ENDBRANCH  15  20
ENDBRANCH   3  12
BRANCH   4  22
HETATM   22  O   UNK     0     152.828 160.474 151.153  0.00  0.00    -0.385 OA
HETATM   23  H   UNK     0     152.573 160.906 150.320  0.00  0.00     0.210 HD
ENDBRANCH   4  22
BRANCH   8  24
HETATM   24  O   UNK     0     156.140 156.916 152.795  0.00  0.00    -0.360 OA
HETATM   25  H   UNK     0     156.556 157.170 151.957  0.00  0.00     0.217 HD
ENDBRANCH   8  24
BRANCH  11  26
HETATM   26  O   UNK     0     153.427 153.027 152.964  0.00  0.00    -0.361 OA
HETATM   27  H   UNK     0     152.627 152.685 152.529  0.00  0.00     0.217 HD
ENDBRANCH  11  26
TORSDOF 6
ENDMDL
MODEL 10
REMARK VINA RESULT:      -7.1      1.834      3.515
REMARK  6 active torsions:
REMARK  status: ('A' for Active; 'I' for Inactive)
REMARK    1  A    between atoms: O_2  and  C_9 
REMARK    2  A    between atoms: O_4  and  C_14 
REMARK    3  A    between atoms: O_5  and  C_19 
REMARK    4  A    between atoms: O_6  and  C_20 
REMARK    5  A    between atoms: O_7  and  C_22 
REMARK    6  A    between atoms: C_8  and  C_10 
ROOT
HETATM    1  O   UNK     0     150.086 157.052 150.722  0.00  0.00    -0.337 OA
HETATM    2  O   UNK     0     148.494 160.829 150.512  0.00  0.00    -0.289 OA
HETATM    3  C   UNK     0     150.926 158.208 150.570  0.00  0.00     0.198 C 
HETATM    4  C   UNK     0     150.315 159.431 151.256  0.00  0.00     0.227 C 
HETATM    5  C   UNK     0     148.957 159.703 150.646  0.00  0.00     0.196 C 
HETATM    6  C   UNK     0     148.188 158.508 150.246  0.00  0.00     0.079 A 
HETATM    7  C   UNK     0     148.792 157.251 150.323  0.00  0.00     0.089 A 
HETATM    8  C   UNK     0     146.861 158.630 149.824  0.00  0.00     0.085 A 
HETATM    9  C   UNK     0     148.053 156.109 150.009  0.00  0.00     0.074 A 
HETATM   10  C   UNK     0     146.135 157.486 149.493  0.00  0.00     0.074 A 
HETATM   11  C   UNK     0     146.728 156.227 149.590  0.00  0.00     0.071 A 
ENDROOT
BRANCH   3  12
HETATM   12  C   UNK     0     152.283 157.857 151.150  0.00  0.00    -0.023 A 
HETATM   13  C   UNK     0     152.364 157.101 152.317  0.00  0.00     0.049 A 
HETATM   14  C   UNK     0     153.612 156.777 152.852  0.00  0.00     0.099 A 
HETATM   15  C   UNK     0     154.775 157.212 152.217  0.00  0.00     0.098 A 
HETATM   16  C   UNK     0     154.691 157.969 151.048  0.00  0.00     0.040 A 
HETATM   17  C   UNK     0     153.444 158.292 150.515  0.00  0.00     0.013 A 
BRANCH  14  18
HETATM   18  O   UNK     0     153.681 156.037 153.993  0.00  0.00    -0.358 OA
HETATM   19  H   UNK     0     154.619 155.876 154.196  0.00  0.00     0.217 HD
ENDBRANCH  14  18
BRANCH  15  20
HETATM   20  O   UNK     0     156.000 156.902 152.728  0.00  0.00    -0.358 OA
HETATM   21  H   UNK     0     156.164 155.952 152.600  0.00  0.00     0.217 HD
ENDBRANCH  15  20
ENDBRANCH   3  12
BRANCH   4  22
HETATM   22  O   UNK     0     151.131 160.570 151.042  0.00  0.00    -0.385 OA
HETATM   23  H   UNK     0     150.702 161.113 150.359  0.00  0.00     0.210 HD
ENDBRANCH   4  22
BRANCH   8  24
HETATM   24  O   UNK     0     146.226 159.831 149.728  0.00  0.00    -0.360 OA
HETATM   25  H   UNK     0     145.974 160.013 148.810  0.00  0.00     0.217 HD
ENDBRANCH   8  24
BRANCH  11  26
HETATM   26  O   UNK     0     146.013 155.113 149.274  0.00  0.00    -0.361 OA
HETATM   27  H   UNK     0     145.487 154.845 150.048  0.00  0.00     0.217 HD
ENDBRANCH  11  26
TORSDOF 6
ENDMDL
