MODEL 1
REMARK VINA RESULT:      -8.4      0.000      0.000
REMARK  6 active torsions:
REMARK  status: ('A' for Active; 'I' for Inactive)
REMARK    1  A    between atoms: O_2  and  C_9 
REMARK    2  A    between atoms: O_4  and  C_14 
REMARK    3  A    between atoms: O_5  and  C_19 
REMARK    4  A    between atoms: O_6  and  C_20 
REMARK    5  A    between atoms: O_7  and  C_22 
REMARK    6  A    between atoms: C_8  and  C_10 
ROOT
HETATM    1  O   UNK     0     -11.755  40.673  11.397  0.00  0.00    -0.337 OA
HETATM    2  O   UNK     0      -8.971  43.613  10.727  0.00  0.00    -0.289 OA
HETATM    3  C   UNK     0     -10.797  40.564  10.332  0.00  0.00     0.198 C 
HETATM    4  C   UNK     0      -9.482  41.254  10.696  0.00  0.00     0.227 C 
HETATM    5  C   UNK     0      -9.762  42.713  10.983  0.00  0.00     0.196 C 
HETATM    6  C   UNK     0     -11.054  42.997  11.638  0.00  0.00     0.079 A 
HETATM    7  C   UNK     0     -11.969  41.957  11.821  0.00  0.00     0.089 A 
HETATM    8  C   UNK     0     -11.348  44.284  12.096  0.00  0.00     0.085 A 
HETATM    9  C   UNK     0     -13.166  42.200  12.496  0.00  0.00     0.074 A 
HETATM   10  C   UNK     0     -12.554  44.525  12.752  0.00  0.00     0.074 A 
HETATM   11  C   UNK     0     -13.460  43.484  12.957  0.00  0.00     0.071 A 
ENDROOT
BRANCH   3  12
HETATM   12  C   UNK     0     -10.599  39.086  10.056  0.00  0.00    -0.023 A 
HETATM   13  C   UNK     0     -10.447  38.639   8.745  0.00  0.00     0.049 A 
HETATM   14  C   UNK     0     -10.265  37.280   8.490  0.00  0.00     0.099 A 
HETATM   15  C   UNK     0     -10.237  36.370   9.547  0.00  0.00     0.098 A 
HETATM   16  C   UNK     0     -10.389  36.819  10.859  0.00  0.00     0.040 A 
HETATM   17  C   UNK     0     -10.571  38.178  11.113  0.00  0.00     0.013 A 
BRANCH  14  18
HETATM   18  O   UNK     0     -10.116  36.853   7.205  0.00  0.00    -0.358 OA
HETATM   19  H   UNK     0      -9.439  37.405   6.776  0.00  0.00     0.217 HD
ENDBRANCH  14  18
BRANCH  15  20
HETATM   20  O   UNK     0     -10.058  35.040   9.311  0.00  0.00    -0.358 OA
HETATM   21  H   UNK     0     -10.878  34.672   8.939  0.00  0.00     0.217 HD
ENDBRANCH  15  20
ENDBRANCH   3  12
BRANCH   4  22
HETATM   22  O   UNK     0      -8.576  41.185   9.609  0.00  0.00    -0.385 OA
HETATM   23  H   UNK     0      -7.924  41.896   9.725  0.00  0.00     0.210 HD
ENDBRANCH   4  22
BRANCH   8  24
HETATM   24  O   UNK     0     -10.493  45.334  11.940  0.00  0.00    -0.360 OA
HETATM   25  H   UNK     0     -10.982  46.147  11.740  0.00  0.00     0.217 HD
ENDBRANCH   8  24
BRANCH  11  26
HETATM   26  O   UNK     0     -14.633  43.721  13.605  0.00  0.00    -0.361 OA
HETATM   27  H   UNK     0     -15.051  44.512  13.224  0.00  0.00     0.217 HD
ENDBRANCH  11  26
TORSDOF 6
ENDMDL
MODEL 2
REMARK VINA RESULT:      -7.8     33.012     34.352
REMARK  6 active torsions:
REMARK  status: ('A' for Active; 'I' for Inactive)
REMARK    1  A    between atoms: O_2  and  C_9 
REMARK    2  A    between atoms: O_4  and  C_14 
REMARK    3  A    between atoms: O_5  and  C_19 
REMARK    4  A    between atoms: O_6  and  C_20 
REMARK    5  A    between atoms: O_7  and  C_22 
REMARK    6  A    between atoms: C_8  and  C_10 
ROOT
HETATM    1  O   UNK     0      10.743  38.629  35.587  0.00  0.00    -0.337 OA
HETATM    2  O   UNK     0      11.499  36.105  38.734  0.00  0.00    -0.289 OA
HETATM    3  C   UNK     0      10.035  38.755  36.830  0.00  0.00     0.198 C 
HETATM    4  C   UNK     0      10.909  38.331  38.011  0.00  0.00     0.227 C 
HETATM    5  C   UNK     0      11.335  36.893  37.810  0.00  0.00     0.196 C 
HETATM    6  C   UNK     0      11.584  36.493  36.411  0.00  0.00     0.079 A 
HETATM    7  C   UNK     0      11.289  37.390  35.382  0.00  0.00     0.089 A 
HETATM    8  C   UNK     0      12.136  35.242  36.121  0.00  0.00     0.085 A 
HETATM    9  C   UNK     0      11.580  37.047  34.061  0.00  0.00     0.074 A 
HETATM   10  C   UNK     0      12.407  34.898  34.797  0.00  0.00     0.074 A 
HETATM   11  C   UNK     0      12.135  35.800  33.769  0.00  0.00     0.071 A 
ENDROOT
BRANCH   3  12
HETATM   12  C   UNK     0       9.590  40.200  36.949  0.00  0.00    -0.023 A 
HETATM   13  C   UNK     0      10.541  41.216  37.004  0.00  0.00     0.049 A 
HETATM   14  C   UNK     0      10.132  42.546  37.113  0.00  0.00     0.099 A 
HETATM   15  C   UNK     0       8.773  42.855  37.169  0.00  0.00     0.098 A 
HETATM   16  C   UNK     0       7.822  41.835  37.113  0.00  0.00     0.040 A 
HETATM   17  C   UNK     0       8.231  40.506  37.004  0.00  0.00     0.013 A 
BRANCH  14  18
HETATM   18  O   UNK     0      11.068  43.533  37.166  0.00  0.00    -0.358 OA
HETATM   19  H   UNK     0      11.679  43.416  36.417  0.00  0.00     0.217 HD
ENDBRANCH  14  18
BRANCH  15  20
HETATM   20  O   UNK     0       8.361  44.150  37.275  0.00  0.00    -0.358 OA
HETATM   21  H   UNK     0       8.392  44.416  38.210  0.00  0.00     0.217 HD
ENDBRANCH  15  20
ENDBRANCH   3  12
BRANCH   4  22
HETATM   22  O   UNK     0      10.169  38.407  39.218  0.00  0.00    -0.385 OA
HETATM   23  H   UNK     0      10.648  37.890  39.888  0.00  0.00     0.210 HD
ENDBRANCH   4  22
BRANCH   8  24
HETATM   24  O   UNK     0      12.439  34.329  37.086  0.00  0.00    -0.360 OA
HETATM   25  H   UNK     0      13.317  34.503  37.459  0.00  0.00     0.217 HD
ENDBRANCH   8  24
BRANCH  11  26
HETATM   26  O   UNK     0      12.408  35.463  32.479  0.00  0.00    -0.361 OA
HETATM   27  H   UNK     0      12.379  36.266  31.930  0.00  0.00     0.217 HD
ENDBRANCH  11  26
TORSDOF 6
ENDMDL
MODEL 3
REMARK VINA RESULT:      -7.4     15.529     17.699
REMARK  6 active torsions:
REMARK  status: ('A' for Active; 'I' for Inactive)
REMARK    1  A    between atoms: O_2  and  C_9 
REMARK    2  A    between atoms: O_4  and  C_14 
REMARK    3  A    between atoms: O_5  and  C_19 
REMARK    4  A    between atoms: O_6  and  C_20 
REMARK    5  A    between atoms: O_7  and  C_22 
REMARK    6  A    between atoms: C_8  and  C_10 
ROOT
HETATM    1  O   UNK     0     -18.590  32.929  22.991  0.00  0.00    -0.337 OA
HETATM    2  O   UNK     0     -18.639  30.617  19.601  0.00  0.00    -0.289 OA
HETATM    3  C   UNK     0     -19.826  32.473  22.417  0.00  0.00     0.198 C 
HETATM    4  C   UNK     0     -19.652  31.117  21.734  0.00  0.00     0.227 C 
HETATM    5  C   UNK     0     -18.604  31.249  20.650  0.00  0.00     0.196 C 
HETATM    6  C   UNK     0     -17.492  32.173  20.949  0.00  0.00     0.079 A 
HETATM    7  C   UNK     0     -17.543  32.947  22.110  0.00  0.00     0.089 A 
HETATM    8  C   UNK     0     -16.389  32.251  20.095  0.00  0.00     0.085 A 
HETATM    9  C   UNK     0     -16.468  33.776  22.435  0.00  0.00     0.074 A 
HETATM   10  C   UNK     0     -15.327  33.096  20.416  0.00  0.00     0.074 A 
HETATM   11  C   UNK     0     -15.363  33.854  21.586  0.00  0.00     0.071 A 
ENDROOT
BRANCH   3  12
HETATM   12  C   UNK     0     -20.846  32.413  23.538  0.00  0.00    -0.023 A 
HETATM   13  C   UNK     0     -20.952  31.264  24.318  0.00  0.00     0.049 A 
HETATM   14  C   UNK     0     -21.891  31.206  25.349  0.00  0.00     0.099 A 
HETATM   15  C   UNK     0     -22.722  32.299  25.596  0.00  0.00     0.098 A 
HETATM   16  C   UNK     0     -22.614  33.449  24.813  0.00  0.00     0.040 A 
HETATM   17  C   UNK     0     -21.676  33.505  23.783  0.00  0.00     0.013 A 
BRANCH  14  18
HETATM   18  O   UNK     0     -21.986  30.079  26.107  0.00  0.00    -0.358 OA
HETATM   19  H   UNK     0     -22.728  29.547  25.771  0.00  0.00     0.217 HD
ENDBRANCH  14  18
BRANCH  15  20
HETATM   20  O   UNK     0     -23.642  32.256  26.600  0.00  0.00    -0.358 OA
HETATM   21  H   UNK     0     -24.018  33.145  26.722  0.00  0.00     0.217 HD
ENDBRANCH  15  20
ENDBRANCH   3  12
BRANCH   4  22
HETATM   22  O   UNK     0     -20.868  30.717  21.125  0.00  0.00    -0.385 OA
HETATM   23  H   UNK     0     -20.854  29.748  21.051  0.00  0.00     0.210 HD
ENDBRANCH   4  22
BRANCH   8  24
HETATM   24  O   UNK     0     -16.291  31.520  18.949  0.00  0.00    -0.360 OA
HETATM   25  H   UNK     0     -16.534  30.596  19.110  0.00  0.00     0.217 HD
ENDBRANCH   8  24
BRANCH  11  26
HETATM   26  O   UNK     0     -14.321  34.671  21.900  0.00  0.00    -0.361 OA
HETATM   27  H   UNK     0     -13.604  34.529  21.258  0.00  0.00     0.217 HD
ENDBRANCH  11  26
TORSDOF 6
ENDMDL
MODEL 4
REMARK VINA RESULT:      -7.1      1.978      6.975
REMARK  6 active torsions:
REMARK  status: ('A' for Active; 'I' for Inactive)
REMARK    1  A    between atoms: O_2  and  C_9 
REMARK    2  A    between atoms: O_4  and  C_14 
REMARK    3  A    between atoms: O_5  and  C_19 
REMARK    4  A    between atoms: O_6  and  C_20 
REMARK    5  A    between atoms: O_7  and  C_22 
REMARK    6  A    between atoms: C_8  and  C_10 
ROOT
HETATM    1  O   UNK     0     -11.652  40.325   8.416  0.00  0.00    -0.337 OA
HETATM    2  O   UNK     0     -10.106  36.842   9.940  0.00  0.00    -0.289 OA
HETATM    3  C   UNK     0     -11.410  40.170   9.823  0.00  0.00     0.198 C 
HETATM    4  C   UNK     0     -10.217  39.249  10.082  0.00  0.00     0.227 C 
HETATM    5  C   UNK     0     -10.501  37.899   9.462  0.00  0.00     0.196 C 
HETATM    6  C   UNK     0     -11.266  37.926   8.200  0.00  0.00     0.079 A 
HETATM    7  C   UNK     0     -11.783  39.140   7.742  0.00  0.00     0.089 A 
HETATM    8  C   UNK     0     -11.446  36.757   7.456  0.00  0.00     0.085 A 
HETATM    9  C   UNK     0     -12.453  39.190   6.518  0.00  0.00     0.074 A 
HETATM   10  C   UNK     0     -12.133  36.809   6.244  0.00  0.00     0.074 A 
HETATM   11  C   UNK     0     -12.631  38.024   5.772  0.00  0.00     0.071 A 
ENDROOT
BRANCH   3  12
HETATM   12  C   UNK     0     -11.185  41.556  10.396  0.00  0.00    -0.023 A 
HETATM   13  C   UNK     0      -9.980  42.215  10.165  0.00  0.00     0.049 A 
HETATM   14  C   UNK     0      -9.772  43.491  10.692  0.00  0.00     0.099 A 
HETATM   15  C   UNK     0     -10.771  44.103  11.448  0.00  0.00     0.098 A 
HETATM   16  C   UNK     0     -11.978  43.442  11.677  0.00  0.00     0.040 A 
HETATM   17  C   UNK     0     -12.184  42.167  11.151  0.00  0.00     0.013 A 
BRANCH  14  18
HETATM   18  O   UNK     0      -8.591  44.127  10.461  0.00  0.00    -0.358 OA
HETATM   19  H   UNK     0      -8.289  44.525  11.296  0.00  0.00     0.217 HD
ENDBRANCH  14  18
BRANCH  15  20
HETATM   20  O   UNK     0     -10.581  45.349  11.967  0.00  0.00    -0.358 OA
HETATM   21  H   UNK     0      -9.630  45.488  12.117  0.00  0.00     0.217 HD
ENDBRANCH  15  20
ENDBRANCH   3  12
BRANCH   4  22
HETATM   22  O   UNK     0     -10.035  39.065  11.476  0.00  0.00    -0.385 OA
HETATM   23  H   UNK     0      -9.708  38.159  11.611  0.00  0.00     0.210 HD
ENDBRANCH   4  22
BRANCH   8  24
HETATM   24  O   UNK     0     -10.966  35.547   7.858  0.00  0.00    -0.360 OA
HETATM   25  H   UNK     0     -10.888  35.513   8.824  0.00  0.00     0.217 HD
ENDBRANCH   8  24
BRANCH  11  26
HETATM   26  O   UNK     0     -13.294  38.072   4.584  0.00  0.00    -0.361 OA
HETATM   27  H   UNK     0     -13.344  37.174   4.214  0.00  0.00     0.217 HD
ENDBRANCH  11  26
TORSDOF 6
ENDMDL
MODEL 5
REMARK VINA RESULT:      -7.0     24.792     27.508
REMARK  6 active torsions:
REMARK  status: ('A' for Active; 'I' for Inactive)
REMARK    1  A    between atoms: O_2  and  C_9 
REMARK    2  A    between atoms: O_4  and  C_14 
REMARK    3  A    between atoms: O_5  and  C_19 
REMARK    4  A    between atoms: O_6  and  C_20 
REMARK    5  A    between atoms: O_7  and  C_22 
REMARK    6  A    between atoms: C_8  and  C_10 
ROOT
HETATM    1  O   UNK     0     -11.484  44.209  37.481  0.00  0.00    -0.337 OA
HETATM    2  O   UNK     0      -7.766  44.534  39.188  0.00  0.00    -0.289 OA
HETATM    3  C   UNK     0     -10.731  45.430  37.401  0.00  0.00     0.198 C 
HETATM    4  C   UNK     0      -9.227  45.153  37.369  0.00  0.00     0.227 C 
HETATM    5  C   UNK     0      -8.846  44.399  38.625  0.00  0.00     0.196 C 
HETATM    6  C   UNK     0      -9.853  43.442  39.124  0.00  0.00     0.079 A 
HETATM    7  C   UNK     0     -11.108  43.392  38.513  0.00  0.00     0.089 A 
HETATM    8  C   UNK     0      -9.545  42.577  40.178  0.00  0.00     0.085 A 
HETATM    9  C   UNK     0     -12.045  42.448  38.934  0.00  0.00     0.074 A 
HETATM   10  C   UNK     0     -10.493  41.649  40.607  0.00  0.00     0.074 A 
HETATM   11  C   UNK     0     -11.739  41.580  39.984  0.00  0.00     0.071 A 
ENDROOT
BRANCH   3  12
HETATM   12  C   UNK     0     -11.194  46.162  36.156  0.00  0.00    -0.023 A 
HETATM   13  C   UNK     0     -12.036  47.266  36.274  0.00  0.00     0.049 A 
HETATM   14  C   UNK     0     -12.463  47.941  35.129  0.00  0.00     0.099 A 
HETATM   15  C   UNK     0     -12.047  47.509  33.870  0.00  0.00     0.098 A 
HETATM   16  C   UNK     0     -11.203  46.404  33.755  0.00  0.00     0.040 A 
HETATM   17  C   UNK     0     -10.777  45.730  34.899  0.00  0.00     0.013 A 
BRANCH  14  18
HETATM   18  O   UNK     0     -13.286  49.018  35.254  0.00  0.00    -0.358 OA
HETATM   19  H   UNK     0     -13.285  49.503  34.411  0.00  0.00     0.217 HD
ENDBRANCH  14  18
BRANCH  15  20
HETATM   20  O   UNK     0     -12.455  48.160  32.745  0.00  0.00    -0.358 OA
HETATM   21  H   UNK     0     -12.480  49.116  32.924  0.00  0.00     0.217 HD
ENDBRANCH  15  20
ENDBRANCH   3  12
BRANCH   4  22
HETATM   22  O   UNK     0      -8.506  46.372  37.351  0.00  0.00    -0.385 OA
HETATM   23  H   UNK     0      -8.108  46.491  38.230  0.00  0.00     0.210 HD
ENDBRANCH   4  22
BRANCH   8  24
HETATM   24  O   UNK     0      -8.339  42.587  40.811  0.00  0.00    -0.360 OA
HETATM   25  H   UNK     0      -8.390  42.109  41.653  0.00  0.00     0.217 HD
ENDBRANCH   8  24
BRANCH  11  26
HETATM   26  O   UNK     0     -12.659  40.667  40.401  0.00  0.00    -0.361 OA
HETATM   27  H   UNK     0     -12.251  40.091  41.071  0.00  0.00     0.217 HD
ENDBRANCH  11  26
TORSDOF 6
ENDMDL
MODEL 6
REMARK VINA RESULT:      -6.9     30.890     32.256
REMARK  6 active torsions:
REMARK  status: ('A' for Active; 'I' for Inactive)
REMARK    1  A    between atoms: O_2  and  C_9 
REMARK    2  A    between atoms: O_4  and  C_14 
REMARK    3  A    between atoms: O_5  and  C_19 
REMARK    4  A    between atoms: O_6  and  C_20 
REMARK    5  A    between atoms: O_7  and  C_22 
REMARK    6  A    between atoms: C_8  and  C_10 
ROOT
HETATM    1  O   UNK     0      -0.958  41.664  41.838  0.00  0.00    -0.337 OA
HETATM    2  O   UNK     0      -0.655  40.801  37.837  0.00  0.00    -0.289 OA
HETATM    3  C   UNK     0      -2.111  41.293  41.067  0.00  0.00     0.198 C 
HETATM    4  C   UNK     0      -1.738  40.326  39.942  0.00  0.00     0.227 C 
HETATM    5  C   UNK     0      -0.717  40.994  39.046  0.00  0.00     0.196 C 
HETATM    6  C   UNK     0       0.245  41.881  39.728  0.00  0.00     0.079 A 
HETATM    7  C   UNK     0       0.078  42.152  41.088  0.00  0.00     0.089 A 
HETATM    8  C   UNK     0       1.328  42.421  39.028  0.00  0.00     0.085 A 
HETATM    9  C   UNK     0       1.018  42.937  41.757  0.00  0.00     0.074 A 
HETATM   10  C   UNK     0       2.253  43.221  39.698  0.00  0.00     0.074 A 
HETATM   11  C   UNK     0       2.102  43.475  41.062  0.00  0.00     0.071 A 
ENDROOT
BRANCH   3  12
HETATM   12  C   UNK     0      -3.115  40.680  42.025  0.00  0.00    -0.023 A 
HETATM   13  C   UNK     0      -2.885  39.411  42.552  0.00  0.00     0.049 A 
HETATM   14  C   UNK     0      -3.808  38.847  43.434  0.00  0.00     0.099 A 
HETATM   15  C   UNK     0      -4.958  39.553  43.785  0.00  0.00     0.098 A 
HETATM   16  C   UNK     0      -5.186  40.824  43.256  0.00  0.00     0.040 A 
HETATM   17  C   UNK     0      -4.263  41.388  42.374  0.00  0.00     0.013 A 
BRANCH  14  18
HETATM   18  O   UNK     0      -3.575  37.607  43.945  0.00  0.00    -0.358 OA
HETATM   19  H   UNK     0      -4.144  37.485  44.725  0.00  0.00     0.217 HD
ENDBRANCH  14  18
BRANCH  15  20
HETATM   20  O   UNK     0      -5.867  39.014  44.645  0.00  0.00    -0.358 OA
HETATM   21  H   UNK     0      -6.124  38.133  44.323  0.00  0.00     0.217 HD
ENDBRANCH  15  20
ENDBRANCH   3  12
BRANCH   4  22
HETATM   22  O   UNK     0      -2.880  40.021  39.160  0.00  0.00    -0.385 OA
HETATM   23  H   UNK     0      -2.646  40.174  38.228  0.00  0.00     0.210 HD
ENDBRANCH   4  22
BRANCH   8  24
HETATM   24  O   UNK     0       1.536  42.191  37.701  0.00  0.00    -0.360 OA
HETATM   25  H   UNK     0       2.117  41.427  37.573  0.00  0.00     0.217 HD
ENDBRANCH   8  24
BRANCH  11  26
HETATM   26  O   UNK     0       3.011  44.249  41.714  0.00  0.00    -0.361 OA
HETATM   27  H   UNK     0       2.557  44.744  42.418  0.00  0.00     0.217 HD
ENDBRANCH  11  26
TORSDOF 6
ENDMDL
MODEL 7
REMARK VINA RESULT:      -6.8      2.582      3.445
REMARK  6 active torsions:
REMARK  status: ('A' for Active; 'I' for Inactive)
REMARK    1  A    between atoms: O_2  and  C_9 
REMARK    2  A    between atoms: O_4  and  C_14 
REMARK    3  A    between atoms: O_5  and  C_19 
REMARK    4  A    between atoms: O_6  and  C_20 
REMARK    5  A    between atoms: O_7  and  C_22 
REMARK    6  A    between atoms: C_8  and  C_10 
ROOT
HETATM    1  O   UNK     0     -11.704  39.737   8.282  0.00  0.00    -0.337 OA
HETATM    2  O   UNK     0     -10.046  41.805  11.415  0.00  0.00    -0.289 OA
HETATM    3  C   UNK     0     -10.792  39.104   9.193  0.00  0.00     0.198 C 
HETATM    4  C   UNK     0     -10.904  39.703  10.595  0.00  0.00     0.227 C 
HETATM    5  C   UNK     0     -10.603  41.184  10.517  0.00  0.00     0.196 C 
HETATM    6  C   UNK     0     -11.060  41.863   9.289  0.00  0.00     0.079 A 
HETATM    7  C   UNK     0     -11.599  41.101   8.250  0.00  0.00     0.089 A 
HETATM    8  C   UNK     0     -10.981  43.254   9.179  0.00  0.00     0.085 A 
HETATM    9  C   UNK     0     -12.093  41.739   7.110  0.00  0.00     0.074 A 
HETATM   10  C   UNK     0     -11.459  43.883   8.030  0.00  0.00     0.074 A 
HETATM   11  C   UNK     0     -12.019  43.128   6.999  0.00  0.00     0.071 A 
ENDROOT
BRANCH   3  12
HETATM   12  C   UNK     0     -11.108  37.621   9.187  0.00  0.00    -0.023 A 
HETATM   13  C   UNK     0     -10.884  36.868   8.036  0.00  0.00     0.049 A 
HETATM   14  C   UNK     0     -11.174  35.503   8.030  0.00  0.00     0.099 A 
HETATM   15  C   UNK     0     -11.689  34.895   9.175  0.00  0.00     0.098 A 
HETATM   16  C   UNK     0     -11.911  35.651  10.327  0.00  0.00     0.040 A 
HETATM   17  C   UNK     0     -11.621  37.015  10.332  0.00  0.00     0.013 A 
BRANCH  14  18
HETATM   18  O   UNK     0     -10.952  34.776   6.901  0.00  0.00    -0.358 OA
HETATM   19  H   UNK     0     -10.431  33.990   7.140  0.00  0.00     0.217 HD
ENDBRANCH  14  18
BRANCH  15  20
HETATM   20  O   UNK     0     -11.975  33.563   9.182  0.00  0.00    -0.358 OA
HETATM   21  H   UNK     0     -12.892  33.438   9.483  0.00  0.00     0.217 HD
ENDBRANCH  15  20
ENDBRANCH   3  12
BRANCH   4  22
HETATM   22  O   UNK     0      -9.953  39.104  11.460  0.00  0.00    -0.385 OA
HETATM   23  H   UNK     0      -9.072  39.402  11.178  0.00  0.00     0.210 HD
ENDBRANCH   4  22
BRANCH   8  24
HETATM   24  O   UNK     0     -10.462  44.042  10.161  0.00  0.00    -0.360 OA
HETATM   25  H   UNK     0     -10.253  44.924   9.818  0.00  0.00     0.217 HD
ENDBRANCH   8  24
BRANCH  11  26
HETATM   26  O   UNK     0     -12.492  43.746   5.883  0.00  0.00    -0.361 OA
HETATM   27  H   UNK     0     -13.168  44.395   6.143  0.00  0.00     0.217 HD
ENDBRANCH  11  26
TORSDOF 6
ENDMDL
MODEL 8
REMARK VINA RESULT:      -6.8     33.382     35.391
REMARK  6 active torsions:
REMARK  status: ('A' for Active; 'I' for Inactive)
REMARK    1  A    between atoms: O_2  and  C_9 
REMARK    2  A    between atoms: O_4  and  C_14 
REMARK    3  A    between atoms: O_5  and  C_19 
REMARK    4  A    between atoms: O_6  and  C_20 
REMARK    5  A    between atoms: O_7  and  C_22 
REMARK    6  A    between atoms: C_8  and  C_10 
ROOT
HETATM    1  O   UNK     0     -18.171  66.011  33.983  0.00  0.00    -0.337 OA
HETATM    2  O   UNK     0     -21.150  63.231  33.489  0.00  0.00    -0.289 OA
HETATM    3  C   UNK     0     -19.132  66.129  32.923  0.00  0.00     0.198 C 
HETATM    4  C   UNK     0     -20.485  65.547  33.333  0.00  0.00     0.227 C 
HETATM    5  C   UNK     0     -20.298  64.089  33.692  0.00  0.00     0.196 C 
HETATM    6  C   UNK     0     -19.020  63.754  34.349  0.00  0.00     0.079 A 
HETATM    7  C   UNK     0     -18.037  64.739  34.471  0.00  0.00     0.089 A 
HETATM    8  C   UNK     0     -18.806  62.475  34.870  0.00  0.00     0.085 A 
HETATM    9  C   UNK     0     -16.850  64.452  35.148  0.00  0.00     0.074 A 
HETATM   10  C   UNK     0     -17.610  62.189  35.528  0.00  0.00     0.074 A 
HETATM   11  C   UNK     0     -16.635  63.177  35.671  0.00  0.00     0.071 A 
ENDROOT
BRANCH   3  12
HETATM   12  C   UNK     0     -19.236  67.601  32.572  0.00  0.00    -0.023 A 
HETATM   13  C   UNK     0     -18.772  68.055  31.340  0.00  0.00     0.049 A 
HETATM   14  C   UNK     0     -18.867  69.410  31.016  0.00  0.00     0.099 A 
HETATM   15  C   UNK     0     -19.425  70.306  31.928  0.00  0.00     0.098 A 
HETATM   16  C   UNK     0     -19.890  69.849  33.161  0.00  0.00     0.040 A 
HETATM   17  C   UNK     0     -19.794  68.495  33.484  0.00  0.00     0.013 A 
BRANCH  14  18
HETATM   18  O   UNK     0     -18.412  69.844  29.809  0.00  0.00    -0.358 OA
HETATM   19  H   UNK     0     -18.701  69.213  29.127  0.00  0.00     0.217 HD
ENDBRANCH  14  18
BRANCH  15  20
HETATM   20  O   UNK     0     -19.525  71.630  31.624  0.00  0.00    -0.358 OA
HETATM   21  H   UNK     0     -19.016  72.144  32.274  0.00  0.00     0.217 HD
ENDBRANCH  15  20
ENDBRANCH   3  12
BRANCH   4  22
HETATM   22  O   UNK     0     -21.398  65.621  32.251  0.00  0.00    -0.385 OA
HETATM   23  H   UNK     0     -21.498  64.724  31.890  0.00  0.00     0.210 HD
ENDBRANCH   4  22
BRANCH   8  24
HETATM   24  O   UNK     0     -19.729  61.477  34.776  0.00  0.00    -0.360 OA
HETATM   25  H   UNK     0     -20.257  61.421  35.587  0.00  0.00     0.217 HD
ENDBRANCH   8  24
BRANCH  11  26
HETATM   26  O   UNK     0     -15.473  62.896  36.321  0.00  0.00    -0.361 OA
HETATM   27  H   UNK     0     -14.965  63.718  36.429  0.00  0.00     0.217 HD
ENDBRANCH  11  26
TORSDOF 6
ENDMDL
MODEL 9
REMARK VINA RESULT:      -6.7     32.113     33.484
REMARK  6 active torsions:
REMARK  status: ('A' for Active; 'I' for Inactive)
REMARK    1  A    between atoms: O_2  and  C_9 
REMARK    2  A    between atoms: O_4  and  C_14 
REMARK    3  A    between atoms: O_5  and  C_19 
REMARK    4  A    between atoms: O_6  and  C_20 
REMARK    5  A    between atoms: O_7  and  C_22 
REMARK    6  A    between atoms: C_8  and  C_10 
ROOT
HETATM    1  O   UNK     0       0.898  41.671  42.064  0.00  0.00    -0.337 OA
HETATM    2  O   UNK     0       0.559  42.501  38.059  0.00  0.00    -0.289 OA
HETATM    3  C   UNK     0       2.037  42.072  41.288  0.00  0.00     0.198 C 
HETATM    4  C   UNK     0       1.632  43.021  40.159  0.00  0.00     0.227 C 
HETATM    5  C   UNK     0       0.630  42.317  39.269  0.00  0.00     0.196 C 
HETATM    6  C   UNK     0      -0.304  41.405  39.958  0.00  0.00     0.079 A 
HETATM    7  C   UNK     0      -0.125  41.148  41.319  0.00  0.00     0.089 A 
HETATM    8  C   UNK     0      -1.372  40.829  39.265  0.00  0.00     0.085 A 
HETATM    9  C   UNK     0      -1.039  40.338  41.996  0.00  0.00     0.074 A 
HETATM   10  C   UNK     0      -2.270  40.006  39.942  0.00  0.00     0.074 A 
HETATM   11  C   UNK     0      -2.108  39.764  41.306  0.00  0.00     0.071 A 
ENDROOT
BRANCH   3  12
HETATM   12  C   UNK     0       3.024  42.720  42.240  0.00  0.00    -0.023 A 
HETATM   13  C   UNK     0       2.807  44.023  42.683  0.00  0.00     0.049 A 
HETATM   14  C   UNK     0       3.715  44.620  43.559  0.00  0.00     0.099 A 
HETATM   15  C   UNK     0       4.837  43.912  43.988  0.00  0.00     0.098 A 
HETATM   16  C   UNK     0       5.052  42.607  43.543  0.00  0.00     0.040 A 
HETATM   17  C   UNK     0       4.145  42.011  42.667  0.00  0.00     0.013 A 
BRANCH  14  18
HETATM   18  O   UNK     0       3.494  45.893  43.988  0.00  0.00    -0.358 OA
HETATM   19  H   UNK     0       4.164  46.472  43.585  0.00  0.00     0.217 HD
ENDBRANCH  14  18
BRANCH  15  20
HETATM   20  O   UNK     0       5.731  44.483  44.844  0.00  0.00    -0.358 OA
HETATM   21  H   UNK     0       5.624  45.450  44.814  0.00  0.00     0.217 HD
ENDBRANCH  15  20
ENDBRANCH   3  12
BRANCH   4  22
HETATM   22  O   UNK     0       2.762  43.355  39.371  0.00  0.00    -0.385 OA
HETATM   23  H   UNK     0       2.928  44.306  39.485  0.00  0.00     0.210 HD
ENDBRANCH   4  22
BRANCH   8  24
HETATM   24  O   UNK     0      -1.589  41.044  37.937  0.00  0.00    -0.360 OA
HETATM   25  H   UNK     0      -2.375  40.563  37.636  0.00  0.00     0.217 HD
ENDBRANCH   8  24
BRANCH  11  26
HETATM   26  O   UNK     0      -2.992  38.966  41.966  0.00  0.00    -0.361 OA
HETATM   27  H   UNK     0      -2.501  38.268  42.432  0.00  0.00     0.217 HD
ENDBRANCH  11  26
TORSDOF 6
ENDMDL
