MODEL 1
REMARK VINA RESULT:      -5.4      0.000      0.000
REMARK  4 active torsions:
REMARK  status: ('A' for Active; 'I' for Inactive)
REMARK    1  A    between atoms: O_1  and  C_10 
REMARK    2  A    between atoms: O_1  and  C_11 
REMARK    3  A    between atoms: N_3  and  C_7 
REMARK    4  A    between atoms: C_4  and  C_10 
ROOT
HETATM    1  O   UNK     0      71.429  38.930  31.409  0.00  0.00    -0.318 OA
ENDROOT
BRANCH   1   2
HETATM    2  C   UNK     0      71.615  37.706  30.825  0.00  0.00     0.293 C 
HETATM    3  O   UNK     0      71.858  37.543  29.622  0.00  0.00    -0.259 OA
BRANCH   2   4
HETATM    4  C   UNK     0      71.491  36.628  31.793  0.00  0.00     0.039 A 
HETATM    5  C   UNK     0      70.274  35.962  31.944  0.00  0.00     0.020 A 
HETATM    6  C   UNK     0      70.156  34.928  32.873  0.00  0.00     0.030 A 
HETATM    7  C   UNK     0      71.253  34.559  33.651  0.00  0.00     0.025 A 
HETATM    8  C   UNK     0      72.469  35.225  33.500  0.00  0.00     0.030 A 
HETATM    9  C   UNK     0      72.589  36.259  32.572  0.00  0.00     0.020 A 
BRANCH   7  10
HETATM   10  N   UNK     0      71.132  33.515  34.590  0.00  0.00    -0.399 N 
HETATM   11  H   UNK     0      70.217  33.180  34.860  0.00  0.00     0.156 HD
HETATM   12  H   UNK     0      71.962  33.101  34.996  0.00  0.00     0.156 HD
ENDBRANCH   7  10
ENDBRANCH   2   4
ENDBRANCH   1   2
BRANCH   1  13
HETATM   13  C   UNK     0      72.437  39.919  31.173  0.00  0.00     0.174 C 
HETATM   14  C   UNK     0      73.448  39.869  32.297  0.00  0.00     0.034 C 
ENDBRANCH   1  13
TORSDOF 4
ENDMDL
MODEL 2
REMARK VINA RESULT:      -5.4     17.971     19.023
REMARK  4 active torsions:
REMARK  status: ('A' for Active; 'I' for Inactive)
REMARK    1  A    between atoms: O_1  and  C_10 
REMARK    2  A    between atoms: O_1  and  C_11 
REMARK    3  A    between atoms: N_3  and  C_7 
REMARK    4  A    between atoms: C_4  and  C_10 
ROOT
HETATM    1  O   UNK     0      77.244  31.646  15.175  0.00  0.00    -0.318 OA
ENDROOT
BRANCH   1   2
HETATM    2  C   UNK     0      76.500  32.521  14.431  0.00  0.00     0.293 C 
HETATM    3  O   UNK     0      76.970  33.506  13.846  0.00  0.00    -0.259 OA
BRANCH   2   4
HETATM    4  C   UNK     0      75.094  32.149  14.417  0.00  0.00     0.039 A 
HETATM    5  C   UNK     0      74.348  32.199  15.594  0.00  0.00     0.020 A 
HETATM    6  C   UNK     0      72.999  31.841  15.580  0.00  0.00     0.030 A 
HETATM    7  C   UNK     0      72.397  31.434  14.389  0.00  0.00     0.025 A 
HETATM    8  C   UNK     0      73.144  31.384  13.213  0.00  0.00     0.030 A 
HETATM    9  C   UNK     0      74.493  31.741  13.226  0.00  0.00     0.020 A 
BRANCH   7  10
HETATM   10  N   UNK     0      71.035  31.072  14.376  0.00  0.00    -0.399 N 
HETATM   11  H   UNK     0      70.322  31.778  14.498  0.00  0.00     0.156 HD
HETATM   12  H   UNK     0      70.769  30.104  14.245  0.00  0.00     0.156 HD
ENDBRANCH   7  10
ENDBRANCH   2   4
ENDBRANCH   1   2
BRANCH   1  13
HETATM   13  C   UNK     0      78.368  31.040  14.527  0.00  0.00     0.174 C 
HETATM   14  C   UNK     0      78.774  29.804  15.300  0.00  0.00     0.034 C 
ENDBRANCH   1  13
TORSDOF 4
ENDMDL
MODEL 3
REMARK VINA RESULT:      -5.4      1.122      2.061
REMARK  4 active torsions:
REMARK  status: ('A' for Active; 'I' for Inactive)
REMARK    1  A    between atoms: O_1  and  C_10 
REMARK    2  A    between atoms: O_1  and  C_11 
REMARK    3  A    between atoms: N_3  and  C_7 
REMARK    4  A    between atoms: C_4  and  C_10 
ROOT
HETATM    1  O   UNK     0      72.365  37.528  29.803  0.00  0.00    -0.318 OA
ENDROOT
BRANCH   1   2
HETATM    2  C   UNK     0      71.757  37.902  30.970  0.00  0.00     0.293 C 
HETATM    3  O   UNK     0      71.398  39.060  31.224  0.00  0.00    -0.259 OA
BRANCH   2   4
HETATM    4  C   UNK     0      71.588  36.773  31.871  0.00  0.00     0.039 A 
HETATM    5  C   UNK     0      72.652  36.353  32.669  0.00  0.00     0.020 A 
HETATM    6  C   UNK     0      72.491  35.269  33.532  0.00  0.00     0.030 A 
HETATM    7  C   UNK     0      71.265  34.605  33.597  0.00  0.00     0.025 A 
HETATM    8  C   UNK     0      70.202  35.025  32.799  0.00  0.00     0.030 A 
HETATM    9  C   UNK     0      70.364  36.108  31.935  0.00  0.00     0.020 A 
BRANCH   7  10
HETATM   10  N   UNK     0      71.103  33.509  34.469  0.00  0.00    -0.399 N 
HETATM   11  H   UNK     0      70.604  32.686  34.160  0.00  0.00     0.156 HD
HETATM   12  H   UNK     0      71.484  33.547  35.406  0.00  0.00     0.156 HD
ENDBRANCH   7  10
ENDBRANCH   2   4
ENDBRANCH   1   2
BRANCH   1  13
HETATM   13  C   UNK     0      73.070  38.548  29.085  0.00  0.00     0.174 C 
HETATM   14  C   UNK     0      74.508  38.576  29.556  0.00  0.00     0.034 C 
ENDBRANCH   1  13
TORSDOF 4
ENDMDL
MODEL 4
REMARK VINA RESULT:      -5.4     22.364     24.236
REMARK  4 active torsions:
REMARK  status: ('A' for Active; 'I' for Inactive)
REMARK    1  A    between atoms: O_1  and  C_10 
REMARK    2  A    between atoms: O_1  and  C_11 
REMARK    3  A    between atoms: N_3  and  C_7 
REMARK    4  A    between atoms: C_4  and  C_10 
ROOT
HETATM    1  O   UNK     0      55.534  17.653  26.979  0.00  0.00    -0.318 OA
ENDROOT
BRANCH   1   2
HETATM    2  C   UNK     0      56.697  18.019  27.601  0.00  0.00     0.293 C 
HETATM    3  O   UNK     0      56.973  17.738  28.774  0.00  0.00    -0.259 OA
BRANCH   2   4
HETATM    4  C   UNK     0      57.562  18.778  26.712  0.00  0.00     0.039 A 
HETATM    5  C   UNK     0      57.451  20.168  26.650  0.00  0.00     0.020 A 
HETATM    6  C   UNK     0      58.280  20.896  25.796  0.00  0.00     0.030 A 
HETATM    7  C   UNK     0      59.220  20.235  25.005  0.00  0.00     0.025 A 
HETATM    8  C   UNK     0      59.330  18.847  25.067  0.00  0.00     0.030 A 
HETATM    9  C   UNK     0      58.501  18.118  25.920  0.00  0.00     0.020 A 
BRANCH   7  10
HETATM   10  N   UNK     0      60.058  20.971  24.142  0.00  0.00    -0.399 N 
HETATM   11  H   UNK     0      59.796  21.105  23.174  0.00  0.00     0.156 HD
HETATM   12  H   UNK     0      60.922  21.366  24.490  0.00  0.00     0.156 HD
ENDBRANCH   7  10
ENDBRANCH   2   4
ENDBRANCH   1   2
BRANCH   1  13
HETATM   13  C   UNK     0      55.152  16.277  27.083  0.00  0.00     0.174 C 
HETATM   14  C   UNK     0      55.721  15.517  25.904  0.00  0.00     0.034 C 
ENDBRANCH   1  13
TORSDOF 4
ENDMDL
MODEL 5
REMARK VINA RESULT:      -5.3      2.320      3.054
REMARK  4 active torsions:
REMARK  status: ('A' for Active; 'I' for Inactive)
REMARK    1  A    between atoms: O_1  and  C_10 
REMARK    2  A    between atoms: O_1  and  C_11 
REMARK    3  A    between atoms: N_3  and  C_7 
REMARK    4  A    between atoms: C_4  and  C_10 
ROOT
HETATM    1  O   UNK     0      75.022  38.684  30.441  0.00  0.00    -0.318 OA
ENDROOT
BRANCH   1   2
HETATM    2  C   UNK     0      74.344  37.809  29.636  0.00  0.00     0.293 C 
HETATM    3  O   UNK     0      74.718  37.478  28.504  0.00  0.00    -0.259 OA
BRANCH   2   4
HETATM    4  C   UNK     0      73.135  37.320  30.279  0.00  0.00     0.039 A 
HETATM    5  C   UNK     0      73.090  37.181  31.667  0.00  0.00     0.020 A 
HETATM    6  C   UNK     0      71.929  36.711  32.283  0.00  0.00     0.030 A 
HETATM    7  C   UNK     0      70.814  36.382  31.513  0.00  0.00     0.025 A 
HETATM    8  C   UNK     0      70.860  36.521  30.126  0.00  0.00     0.030 A 
HETATM    9  C   UNK     0      72.020  36.989  29.509  0.00  0.00     0.020 A 
BRANCH   7  10
HETATM   10  N   UNK     0      69.642  35.907  32.136  0.00  0.00    -0.399 N 
HETATM   11  H   UNK     0      68.936  36.559  32.449  0.00  0.00     0.156 HD
HETATM   12  H   UNK     0      69.508  34.913  32.272  0.00  0.00     0.156 HD
ENDBRANCH   7  10
ENDBRANCH   2   4
ENDBRANCH   1   2
BRANCH   1  13
HETATM   13  C   UNK     0      74.942  40.072  30.098  0.00  0.00     0.174 C 
HETATM   14  C   UNK     0      74.146  40.797  31.161  0.00  0.00     0.034 C 
ENDBRANCH   1  13
TORSDOF 4
ENDMDL
MODEL 6
REMARK VINA RESULT:      -5.1      3.293      5.125
REMARK  4 active torsions:
REMARK  status: ('A' for Active; 'I' for Inactive)
REMARK    1  A    between atoms: O_1  and  C_10 
REMARK    2  A    between atoms: O_1  and  C_11 
REMARK    3  A    between atoms: N_3  and  C_7 
REMARK    4  A    between atoms: C_4  and  C_10 
ROOT
HETATM    1  O   UNK     0      71.647  35.926  31.219  0.00  0.00    -0.318 OA
ENDROOT
BRANCH   1   2
HETATM    2  C   UNK     0      71.403  37.273  31.211  0.00  0.00     0.293 C 
HETATM    3  O   UNK     0      70.330  37.784  31.554  0.00  0.00    -0.259 OA
BRANCH   2   4
HETATM    4  C   UNK     0      72.561  38.022  30.748  0.00  0.00     0.039 A 
HETATM    5  C   UNK     0      72.851  39.269  31.301  0.00  0.00     0.020 A 
HETATM    6  C   UNK     0      73.960  39.988  30.856  0.00  0.00     0.030 A 
HETATM    7  C   UNK     0      74.781  39.460  29.859  0.00  0.00     0.025 A 
HETATM    8  C   UNK     0      74.490  38.213  29.306  0.00  0.00     0.030 A 
HETATM    9  C   UNK     0      73.380  37.494  29.750  0.00  0.00     0.020 A 
BRANCH   7  10
HETATM   10  N   UNK     0      75.902  40.187  29.410  0.00  0.00    -0.399 N 
HETATM   11  H   UNK     0      76.807  39.739  29.354  0.00  0.00     0.156 HD
HETATM   12  H   UNK     0      75.802  41.158  29.144  0.00  0.00     0.156 HD
ENDBRANCH   7  10
ENDBRANCH   2   4
ENDBRANCH   1   2
BRANCH   1  13
HETATM   13  C   UNK     0      71.269  35.208  32.398  0.00  0.00     0.174 C 
HETATM   14  C   UNK     0      72.341  35.391  33.451  0.00  0.00     0.034 C 
ENDBRANCH   1  13
TORSDOF 4
ENDMDL
MODEL 7
REMARK VINA RESULT:      -5.1     22.303     23.791
REMARK  4 active torsions:
REMARK  status: ('A' for Active; 'I' for Inactive)
REMARK    1  A    between atoms: O_1  and  C_10 
REMARK    2  A    between atoms: O_1  and  C_11 
REMARK    3  A    between atoms: N_3  and  C_7 
REMARK    4  A    between atoms: C_4  and  C_10 
ROOT
HETATM    1  O   UNK     0      56.797  18.069  28.689  0.00  0.00    -0.318 OA
ENDROOT
BRANCH   1   2
HETATM    2  C   UNK     0      56.429  18.110  27.371  0.00  0.00     0.293 C 
HETATM    3  O   UNK     0      55.402  17.585  26.923  0.00  0.00    -0.259 OA
BRANCH   2   4
HETATM    4  C   UNK     0      57.395  18.845  26.570  0.00  0.00     0.039 A 
HETATM    5  C   UNK     0      58.359  18.156  25.835  0.00  0.00     0.020 A 
HETATM    6  C   UNK     0      59.286  18.862  25.067  0.00  0.00     0.030 A 
HETATM    7  C   UNK     0      59.248  20.256  25.033  0.00  0.00     0.025 A 
HETATM    8  C   UNK     0      58.284  20.944  25.769  0.00  0.00     0.030 A 
HETATM    9  C   UNK     0      57.358  20.239  26.538  0.00  0.00     0.020 A 
BRANCH   7  10
HETATM   10  N   UNK     0      60.185  20.968  24.257  0.00  0.00    -0.399 N 
HETATM   11  H   UNK     0      59.924  21.320  23.346  0.00  0.00     0.156 HD
HETATM   12  H   UNK     0      61.120  21.126  24.611  0.00  0.00     0.156 HD
ENDBRANCH   7  10
ENDBRANCH   2   4
ENDBRANCH   1   2
BRANCH   1  13
HETATM   13  C   UNK     0      57.233  16.804  29.199  0.00  0.00     0.174 C 
HETATM   14  C   UNK     0      57.329  16.888  30.707  0.00  0.00     0.034 C 
ENDBRANCH   1  13
TORSDOF 4
ENDMDL
MODEL 8
REMARK VINA RESULT:      -4.9     22.783     24.496
REMARK  4 active torsions:
REMARK  status: ('A' for Active; 'I' for Inactive)
REMARK    1  A    between atoms: O_1  and  C_10 
REMARK    2  A    between atoms: O_1  and  C_11 
REMARK    3  A    between atoms: N_3  and  C_7 
REMARK    4  A    between atoms: C_4  and  C_10 
ROOT
HETATM    1  O   UNK     0      57.651  16.211  27.580  0.00  0.00    -0.318 OA
ENDROOT
BRANCH   1   2
HETATM    2  C   UNK     0      58.719  16.054  26.740  0.00  0.00     0.293 C 
HETATM    3  O   UNK     0      59.303  14.978  26.555  0.00  0.00    -0.259 OA
BRANCH   2   4
HETATM    4  C   UNK     0      59.081  17.307  26.096  0.00  0.00     0.039 A 
HETATM    5  C   UNK     0      58.230  18.409  26.188  0.00  0.00     0.020 A 
HETATM    6  C   UNK     0      58.576  19.611  25.570  0.00  0.00     0.030 A 
HETATM    7  C   UNK     0      59.773  19.711  24.860  0.00  0.00     0.025 A 
HETATM    8  C   UNK     0      60.623  18.610  24.769  0.00  0.00     0.030 A 
HETATM    9  C   UNK     0      60.277  17.408  25.386  0.00  0.00     0.020 A 
BRANCH   7  10
HETATM   10  N   UNK     0      60.122  20.926  24.236  0.00  0.00    -0.399 N 
HETATM   11  H   UNK     0      59.400  21.568  23.938  0.00  0.00     0.156 HD
HETATM   12  H   UNK     0      61.096  21.155  24.084  0.00  0.00     0.156 HD
ENDBRANCH   7  10
ENDBRANCH   2   4
ENDBRANCH   1   2
BRANCH   1  13
HETATM   13  C   UNK     0      56.635  15.202  27.530  0.00  0.00     0.174 C 
HETATM   14  C   UNK     0      55.651  15.550  26.434  0.00  0.00     0.034 C 
ENDBRANCH   1  13
TORSDOF 4
ENDMDL
MODEL 9
REMARK VINA RESULT:      -4.8     23.195     25.073
REMARK  4 active torsions:
REMARK  status: ('A' for Active; 'I' for Inactive)
REMARK    1  A    between atoms: O_1  and  C_10 
REMARK    2  A    between atoms: O_1  and  C_11 
REMARK    3  A    between atoms: N_3  and  C_7 
REMARK    4  A    between atoms: C_4  and  C_10 
ROOT
HETATM    1  O   UNK     0      57.595  14.386  27.769  0.00  0.00    -0.318 OA
ENDROOT
BRANCH   1   2
HETATM    2  C   UNK     0      58.138  15.475  27.143  0.00  0.00     0.293 C 
HETATM    3  O   UNK     0      58.582  15.459  25.987  0.00  0.00    -0.259 OA
BRANCH   2   4
HETATM    4  C   UNK     0      58.130  16.646  28.005  0.00  0.00     0.039 A 
HETATM    5  C   UNK     0      58.862  16.643  29.192  0.00  0.00     0.020 A 
HETATM    6  C   UNK     0      58.854  17.766  30.020  0.00  0.00     0.030 A 
HETATM    7  C   UNK     0      58.114  18.893  29.660  0.00  0.00     0.025 A 
HETATM    8  C   UNK     0      57.382  18.896  28.473  0.00  0.00     0.030 A 
HETATM    9  C   UNK     0      57.390  17.772  27.645  0.00  0.00     0.020 A 
BRANCH   7  10
HETATM   10  N   UNK     0      58.106  20.027  30.496  0.00  0.00    -0.399 N 
HETATM   11  H   UNK     0      57.671  20.885  30.182  0.00  0.00     0.156 HD
HETATM   12  H   UNK     0      58.536  19.985  31.411  0.00  0.00     0.156 HD
ENDBRANCH   7  10
ENDBRANCH   2   4
ENDBRANCH   1   2
BRANCH   1  13
HETATM   13  C   UNK     0      56.220  14.483  28.157  0.00  0.00     0.174 C 
HETATM   14  C   UNK     0      55.359  14.526  26.914  0.00  0.00     0.034 C 
ENDBRANCH   1  13
TORSDOF 4
ENDMDL
