MODEL 1
REMARK VINA RESULT:      -8.5      0.000      0.000
REMARK  5 active torsions:
REMARK  status: ('A' for Active; 'I' for Inactive)
REMARK    1  A    between atoms: O_2  and  C_13 
REMARK    2  A    between atoms: O_4  and  C_16 
REMARK    3  A    between atoms: O_5  and  C_19 
REMARK    4  A    between atoms: O_6  and  C_21 
REMARK    5  A    between atoms: C_9  and  C_10 
ROOT
HETATM    1  O   UNK     0      73.624  36.341  32.708  0.00  0.00    -0.309 OA
HETATM    2  O   UNK     0      74.884  35.191  29.009  0.00  0.00    -0.287 OA
HETATM    3  C   UNK     0      73.750  36.792  30.325  0.00  0.00     0.081 A 
HETATM    4  C   UNK     0      73.350  37.126  31.617  0.00  0.00     0.095 A 
HETATM    5  C   UNK     0      74.323  35.159  32.513  0.00  0.00     0.090 A 
HETATM    6  C   UNK     0      74.500  35.544  30.115  0.00  0.00     0.190 A 
HETATM    7  C   UNK     0      74.767  34.732  31.320  0.00  0.00     0.094 A 
HETATM    8  C   UNK     0      73.443  37.630  29.251  0.00  0.00     0.085 A 
HETATM    9  C   UNK     0      72.639  38.304  31.844  0.00  0.00     0.075 A 
HETATM   10  C   UNK     0      72.331  39.145  30.774  0.00  0.00     0.071 A 
HETATM   11  C   UNK     0      72.731  38.808  29.481  0.00  0.00     0.074 A 
ENDROOT
BRANCH   5  12
HETATM   12  C   UNK     0      74.569  34.395  33.752  0.00  0.00     0.001 A 
HETATM   13  C   UNK     0      73.556  33.607  34.304  0.00  0.00     0.053 A 
HETATM   14  C   UNK     0      73.788  32.886  35.474  0.00  0.00     0.099 A 
HETATM   15  C   UNK     0      75.035  32.949  36.097  0.00  0.00     0.098 A 
HETATM   16  C   UNK     0      76.048  33.735  35.550  0.00  0.00     0.040 A 
HETATM   17  C   UNK     0      75.816  34.457  34.379  0.00  0.00     0.017 A 
BRANCH  14  18
HETATM   18  O   UNK     0      72.790  32.121  36.001  0.00  0.00    -0.358 OA
HETATM   19  H   UNK     0      73.108  31.734  36.834  0.00  0.00     0.217 HD
ENDBRANCH  14  18
BRANCH  15  20
HETATM   20  O   UNK     0      75.274  32.248  37.240  0.00  0.00    -0.358 OA
HETATM   21  H   UNK     0      74.698  32.588  37.946  0.00  0.00     0.217 HD
ENDBRANCH  15  20
ENDBRANCH   5  12
BRANCH   8  22
HETATM   22  O   UNK     0      73.812  37.348  27.971  0.00  0.00    -0.360 OA
HETATM   23  H   UNK     0      74.736  37.597  27.820  0.00  0.00     0.217 HD
ENDBRANCH   8  22
BRANCH  10  24
HETATM   24  O   UNK     0      71.637  40.296  30.993  0.00  0.00    -0.361 OA
HETATM   25  H   UNK     0      71.323  40.642  30.140  0.00  0.00     0.217 HD
ENDBRANCH  10  24
TORSDOF 5
ENDMDL
MODEL 2
REMARK VINA RESULT:      -8.4     23.049     24.958
REMARK  5 active torsions:
REMARK  status: ('A' for Active; 'I' for Inactive)
REMARK    1  A    between atoms: O_2  and  C_13 
REMARK    2  A    between atoms: O_4  and  C_16 
REMARK    3  A    between atoms: O_5  and  C_19 
REMARK    4  A    between atoms: O_6  and  C_21 
REMARK    5  A    between atoms: C_9  and  C_10 
ROOT
HETATM    1  O   UNK     0      58.851  17.177  25.773  0.00  0.00    -0.309 OA
HETATM    2  O   UNK     0      60.297  16.587  29.536  0.00  0.00    -0.287 OA
HETATM    3  C   UNK     0      58.411  16.738  28.122  0.00  0.00     0.081 A 
HETATM    4  C   UNK     0      57.984  16.946  26.811  0.00  0.00     0.095 A 
HETATM    5  C   UNK     0      60.211  17.211  26.043  0.00  0.00     0.090 A 
HETATM    6  C   UNK     0      59.853  16.764  28.411  0.00  0.00     0.190 A 
HETATM    7  C   UNK     0      60.744  17.019  27.260  0.00  0.00     0.094 A 
HETATM    8  C   UNK     0      57.482  16.507  29.138  0.00  0.00     0.085 A 
HETATM    9  C   UNK     0      56.623  16.924  26.510  0.00  0.00     0.075 A 
HETATM   10  C   UNK     0      55.692  16.694  27.523  0.00  0.00     0.071 A 
HETATM   11  C   UNK     0      56.120  16.486  28.834  0.00  0.00     0.074 A 
ENDROOT
BRANCH   5  12
HETATM   12  C   UNK     0      61.052  17.460  24.857  0.00  0.00     0.001 A 
HETATM   13  C   UNK     0      61.234  18.763  24.385  0.00  0.00     0.053 A 
HETATM   14  C   UNK     0      62.029  18.998  23.264  0.00  0.00     0.099 A 
HETATM   15  C   UNK     0      62.646  17.931  22.610  0.00  0.00     0.098 A 
HETATM   16  C   UNK     0      62.467  16.629  23.077  0.00  0.00     0.040 A 
HETATM   17  C   UNK     0      61.671  16.394  24.199  0.00  0.00     0.017 A 
BRANCH  14  18
HETATM   18  O   UNK     0      62.196  20.274  22.815  0.00  0.00    -0.358 OA
HETATM   19  H   UNK     0      63.145  20.485  22.842  0.00  0.00     0.217 HD
ENDBRANCH  14  18
BRANCH  15  20
HETATM   20  O   UNK     0      63.426  18.148  21.514  0.00  0.00    -0.358 OA
HETATM   21  H   UNK     0      64.086  17.438  21.450  0.00  0.00     0.217 HD
ENDBRANCH  15  20
ENDBRANCH   5  12
BRANCH   8  22
HETATM   22  O   UNK     0      57.849  16.298  30.433  0.00  0.00    -0.360 OA
HETATM   23  H   UNK     0      57.920  17.141  30.907  0.00  0.00     0.217 HD
ENDBRANCH   8  22
BRANCH  10  24
HETATM   24  O   UNK     0      54.361  16.672  27.232  0.00  0.00    -0.361 OA
HETATM   25  H   UNK     0      54.158  15.855  26.744  0.00  0.00     0.217 HD
ENDBRANCH  10  24
TORSDOF 5
ENDMDL
MODEL 3
REMARK VINA RESULT:      -8.2      1.387      7.122
REMARK  5 active torsions:
REMARK  status: ('A' for Active; 'I' for Inactive)
REMARK    1  A    between atoms: O_2  and  C_13 
REMARK    2  A    between atoms: O_4  and  C_16 
REMARK    3  A    between atoms: O_5  and  C_19 
REMARK    4  A    between atoms: O_6  and  C_21 
REMARK    5  A    between atoms: C_9  and  C_10 
ROOT
HETATM    1  O   UNK     0      74.694  35.405  33.072  0.00  0.00    -0.309 OA
HETATM    2  O   UNK     0      71.437  33.343  34.390  0.00  0.00    -0.287 OA
HETATM    3  C   UNK     0      73.763  33.719  34.554  0.00  0.00     0.081 A 
HETATM    4  C   UNK     0      74.834  34.461  34.058  0.00  0.00     0.095 A 
HETATM    5  C   UNK     0      73.431  35.623  32.542  0.00  0.00     0.090 A 
HETATM    6  C   UNK     0      72.421  33.955  34.000  0.00  0.00     0.190 A 
HETATM    7  C   UNK     0      72.323  34.979  32.940  0.00  0.00     0.094 A 
HETATM    8  C   UNK     0      73.966  32.772  35.559  0.00  0.00     0.085 A 
HETATM    9  C   UNK     0      76.117  34.258  34.566  0.00  0.00     0.075 A 
HETATM   10  C   UNK     0      76.323  33.313  35.570  0.00  0.00     0.071 A 
HETATM   11  C   UNK     0      75.251  32.571  36.065  0.00  0.00     0.074 A 
ENDROOT
BRANCH   5  12
HETATM   12  C   UNK     0      73.392  36.662  31.494  0.00  0.00     0.001 A 
HETATM   13  C   UNK     0      72.579  37.787  31.650  0.00  0.00     0.053 A 
HETATM   14  C   UNK     0      72.541  38.768  30.659  0.00  0.00     0.099 A 
HETATM   15  C   UNK     0      73.318  38.628  29.509  0.00  0.00     0.098 A 
HETATM   16  C   UNK     0      74.130  37.505  29.349  0.00  0.00     0.040 A 
HETATM   17  C   UNK     0      74.167  36.524  30.340  0.00  0.00     0.017 A 
BRANCH  14  18
HETATM   18  O   UNK     0      71.743  39.860  30.826  0.00  0.00    -0.358 OA
HETATM   19  H   UNK     0      71.399  39.851  31.735  0.00  0.00     0.217 HD
ENDBRANCH  14  18
BRANCH  15  20
HETATM   20  O   UNK     0      73.291  39.579  28.535  0.00  0.00    -0.358 OA
HETATM   21  H   UNK     0      74.088  40.131  28.609  0.00  0.00     0.217 HD
ENDBRANCH  15  20
ENDBRANCH   5  12
BRANCH   8  22
HETATM   22  O   UNK     0      72.953  32.023  36.076  0.00  0.00    -0.360 OA
HETATM   23  H   UNK     0      72.098  32.320  35.728  0.00  0.00     0.217 HD
ENDBRANCH   8  22
BRANCH  10  24
HETATM   24  O   UNK     0      77.575  33.113  36.069  0.00  0.00    -0.361 OA
HETATM   25  H   UNK     0      77.614  32.233  36.482  0.00  0.00     0.217 HD
ENDBRANCH  10  24
TORSDOF 5
ENDMDL
MODEL 4
REMARK VINA RESULT:      -8.2     23.322     24.876
REMARK  5 active torsions:
REMARK  status: ('A' for Active; 'I' for Inactive)
REMARK    1  A    between atoms: O_2  and  C_13 
REMARK    2  A    between atoms: O_4  and  C_16 
REMARK    3  A    between atoms: O_5  and  C_19 
REMARK    4  A    between atoms: O_6  and  C_21 
REMARK    5  A    between atoms: C_9  and  C_10 
ROOT
HETATM    1  O   UNK     0      58.079  17.842  26.570  0.00  0.00    -0.309 OA
HETATM    2  O   UNK     0      58.717  20.034  29.944  0.00  0.00    -0.287 OA
HETATM    3  C   UNK     0      58.991  19.841  27.606  0.00  0.00     0.081 A 
HETATM    4  C   UNK     0      58.739  19.043  26.492  0.00  0.00     0.095 A 
HETATM    5  C   UNK     0      57.652  17.403  27.814  0.00  0.00     0.090 A 
HETATM    6  C   UNK     0      58.532  19.383  28.926  0.00  0.00     0.190 A 
HETATM    7  C   UNK     0      57.829  18.083  28.957  0.00  0.00     0.094 A 
HETATM    8  C   UNK     0      59.668  21.055  27.466  0.00  0.00     0.085 A 
HETATM    9  C   UNK     0      59.162  19.454  25.229  0.00  0.00     0.075 A 
HETATM   10  C   UNK     0      59.838  20.666  25.085  0.00  0.00     0.071 A 
HETATM   11  C   UNK     0      60.090  21.464  26.201  0.00  0.00     0.074 A 
ENDROOT
BRANCH   5  12
HETATM   12  C   UNK     0      56.950  16.105  27.784  0.00  0.00     0.001 A 
HETATM   13  C   UNK     0      57.366  15.061  28.614  0.00  0.00     0.053 A 
HETATM   14  C   UNK     0      56.702  13.835  28.585  0.00  0.00     0.099 A 
HETATM   15  C   UNK     0      55.619  13.648  27.726  0.00  0.00     0.098 A 
HETATM   16  C   UNK     0      55.201  14.687  26.895  0.00  0.00     0.040 A 
HETATM   17  C   UNK     0      55.866  15.914  26.923  0.00  0.00     0.017 A 
BRANCH  14  18
HETATM   18  O   UNK     0      57.120  12.827  29.401  0.00  0.00    -0.358 OA
HETATM   19  H   UNK     0      57.763  12.285  28.912  0.00  0.00     0.217 HD
ENDBRANCH  14  18
BRANCH  15  20
HETATM   20  O   UNK     0      54.963  12.455  27.689  0.00  0.00    -0.358 OA
HETATM   21  H   UNK     0      54.398  12.429  26.898  0.00  0.00     0.217 HD
ENDBRANCH  15  20
ENDBRANCH   5  12
BRANCH   8  22
HETATM   22  O   UNK     0      59.938  21.870  28.523  0.00  0.00    -0.360 OA
HETATM   23  H   UNK     0      60.202  22.751  28.214  0.00  0.00     0.217 HD
ENDBRANCH   8  22
BRANCH  10  24
HETATM   24  O   UNK     0      60.252  21.072  23.852  0.00  0.00    -0.361 OA
HETATM   25  H   UNK     0      61.033  20.553  23.595  0.00  0.00     0.217 HD
ENDBRANCH  10  24
TORSDOF 5
ENDMDL
MODEL 5
REMARK VINA RESULT:      -8.2     23.373     24.845
REMARK  5 active torsions:
REMARK  status: ('A' for Active; 'I' for Inactive)
REMARK    1  A    between atoms: O_2  and  C_13 
REMARK    2  A    between atoms: O_4  and  C_16 
REMARK    3  A    between atoms: O_5  and  C_19 
REMARK    4  A    between atoms: O_6  and  C_21 
REMARK    5  A    between atoms: C_9  and  C_10 
ROOT
HETATM    1  O   UNK     0      57.148  18.394  28.249  0.00  0.00    -0.309 OA
HETATM    2  O   UNK     0      59.675  19.398  25.216  0.00  0.00    -0.287 OA
HETATM    3  C   UNK     0      58.570  20.059  27.197  0.00  0.00     0.081 A 
HETATM    4  C   UNK     0      57.700  19.650  28.205  0.00  0.00     0.095 A 
HETATM    5  C   UNK     0      57.466  17.497  27.241  0.00  0.00     0.090 A 
HETATM    6  C   UNK     0      58.917  19.107  26.130  0.00  0.00     0.190 A 
HETATM    7  C   UNK     0      58.295  17.770  26.221  0.00  0.00     0.094 A 
HETATM    8  C   UNK     0      59.102  21.350  27.203  0.00  0.00     0.085 A 
HETATM    9  C   UNK     0      57.356  20.531  29.229  0.00  0.00     0.075 A 
HETATM   10  C   UNK     0      57.885  21.822  29.240  0.00  0.00     0.071 A 
HETATM   11  C   UNK     0      58.756  22.230  28.229  0.00  0.00     0.074 A 
ENDROOT
BRANCH   5  12
HETATM   12  C   UNK     0      56.823  16.177  27.388  0.00  0.00     0.001 A 
HETATM   13  C   UNK     0      57.312  15.258  28.320  0.00  0.00     0.053 A 
HETATM   14  C   UNK     0      56.705  14.010  28.459  0.00  0.00     0.099 A 
HETATM   15  C   UNK     0      55.607  13.676  27.666  0.00  0.00     0.098 A 
HETATM   16  C   UNK     0      55.117  14.590  26.733  0.00  0.00     0.040 A 
HETATM   17  C   UNK     0      55.724  15.838  26.594  0.00  0.00     0.017 A 
BRANCH  14  18
HETATM   18  O   UNK     0      57.193  13.124  29.372  0.00  0.00    -0.358 OA
HETATM   19  H   UNK     0      58.155  13.057  29.248  0.00  0.00     0.217 HD
ENDBRANCH  14  18
BRANCH  15  20
HETATM   20  O   UNK     0      55.005  12.461  27.792  0.00  0.00    -0.358 OA
HETATM   21  H   UNK     0      55.633  11.837  28.195  0.00  0.00     0.217 HD
ENDBRANCH  15  20
ENDBRANCH   5  12
BRANCH   8  22
HETATM   22  O   UNK     0      59.956  21.797  26.241  0.00  0.00    -0.360 OA
HETATM   23  H   UNK     0      60.126  21.101  25.587  0.00  0.00     0.217 HD
ENDBRANCH   8  22
BRANCH  10  24
HETATM   24  O   UNK     0      57.552  22.686  30.239  0.00  0.00    -0.361 OA
HETATM   25  H   UNK     0      57.940  23.556  30.047  0.00  0.00     0.217 HD
ENDBRANCH  10  24
TORSDOF 5
ENDMDL
MODEL 6
REMARK VINA RESULT:      -8.2      2.966      6.649
REMARK  5 active torsions:
REMARK  status: ('A' for Active; 'I' for Inactive)
REMARK    1  A    between atoms: O_2  and  C_13 
REMARK    2  A    between atoms: O_4  and  C_16 
REMARK    3  A    between atoms: O_5  and  C_19 
REMARK    4  A    between atoms: O_6  and  C_21 
REMARK    5  A    between atoms: C_9  and  C_10 
ROOT
HETATM    1  O   UNK     0      72.675  36.559  31.916  0.00  0.00    -0.309 OA
HETATM    2  O   UNK     0      70.915  34.834  28.673  0.00  0.00    -0.287 OA
HETATM    3  C   UNK     0      71.398  34.716  30.982  0.00  0.00     0.081 A 
HETATM    4  C   UNK     0      72.021  35.361  32.049  0.00  0.00     0.095 A 
HETATM    5  C   UNK     0      72.726  37.149  30.662  0.00  0.00     0.090 A 
HETATM    6  C   UNK     0      71.442  35.342  29.652  0.00  0.00     0.190 A 
HETATM    7  C   UNK     0      72.161  36.630  29.560  0.00  0.00     0.094 A 
HETATM    8  C   UNK     0      70.746  33.497  31.177  0.00  0.00     0.085 A 
HETATM    9  C   UNK     0      71.993  34.790  33.321  0.00  0.00     0.075 A 
HETATM   10  C   UNK     0      71.342  33.572  33.520  0.00  0.00     0.071 A 
HETATM   11  C   UNK     0      70.720  32.927  32.451  0.00  0.00     0.074 A 
ENDROOT
BRANCH   5  12
HETATM   12  C   UNK     0      73.448  38.435  30.632  0.00  0.00     0.001 A 
HETATM   13  C   UNK     0      74.594  38.579  29.847  0.00  0.00     0.053 A 
HETATM   14  C   UNK     0      75.277  39.795  29.819  0.00  0.00     0.099 A 
HETATM   15  C   UNK     0      74.815  40.872  30.576  0.00  0.00     0.098 A 
HETATM   16  C   UNK     0      73.672  40.733  31.361  0.00  0.00     0.040 A 
HETATM   17  C   UNK     0      72.989  39.516  31.389  0.00  0.00     0.017 A 
BRANCH  14  18
HETATM   18  O   UNK     0      76.394  39.920  29.048  0.00  0.00    -0.358 OA
HETATM   19  H   UNK     0      77.054  40.432  29.547  0.00  0.00     0.217 HD
ENDBRANCH  14  18
BRANCH  15  20
HETATM   20  O   UNK     0      75.472  42.065  30.555  0.00  0.00    -0.358 OA
HETATM   21  H   UNK     0      75.194  42.593  31.323  0.00  0.00     0.217 HD
ENDBRANCH  15  20
ENDBRANCH   5  12
BRANCH   8  22
HETATM   22  O   UNK     0      70.123  32.828  30.167  0.00  0.00    -0.360 OA
HETATM   23  H   UNK     0      69.524  33.419  29.686  0.00  0.00     0.217 HD
ENDBRANCH   8  22
BRANCH  10  24
HETATM   24  O   UNK     0      71.313  33.011  34.761  0.00  0.00    -0.361 OA
HETATM   25  H   UNK     0      71.988  32.312  34.808  0.00  0.00     0.217 HD
ENDBRANCH  10  24
TORSDOF 5
ENDMDL
MODEL 7
REMARK VINA RESULT:      -8.1     18.628     19.174
REMARK  5 active torsions:
REMARK  status: ('A' for Active; 'I' for Inactive)
REMARK    1  A    between atoms: O_2  and  C_13 
REMARK    2  A    between atoms: O_4  and  C_16 
REMARK    3  A    between atoms: O_5  and  C_19 
REMARK    4  A    between atoms: O_6  and  C_21 
REMARK    5  A    between atoms: C_9  and  C_10 
ROOT
HETATM    1  O   UNK     0      76.427  31.028  14.522  0.00  0.00    -0.309 OA
HETATM    2  O   UNK     0      78.029  34.402  12.895  0.00  0.00    -0.287 OA
HETATM    3  C   UNK     0      76.085  33.222  13.537  0.00  0.00     0.081 A 
HETATM    4  C   UNK     0      75.604  32.043  14.103  0.00  0.00     0.095 A 
HETATM    5  C   UNK     0      77.796  31.182  14.368  0.00  0.00     0.090 A 
HETATM    6  C   UNK     0      77.538  33.393  13.380  0.00  0.00     0.190 A 
HETATM    7  C   UNK     0      78.380  32.271  13.844  0.00  0.00     0.094 A 
HETATM    8  C   UNK     0      75.200  34.222  13.128  0.00  0.00     0.085 A 
HETATM    9  C   UNK     0      74.232  31.856  14.264  0.00  0.00     0.075 A 
HETATM   10  C   UNK     0      73.344  32.853  13.858  0.00  0.00     0.071 A 
HETATM   11  C   UNK     0      73.827  34.032  13.291  0.00  0.00     0.074 A 
ENDROOT
BRANCH   5  12
HETATM   12  C   UNK     0      78.588  30.035  14.856  0.00  0.00     0.001 A 
HETATM   13  C   UNK     0      79.949  29.943  14.558  0.00  0.00     0.053 A 
HETATM   14  C   UNK     0      80.696  28.860  15.019  0.00  0.00     0.099 A 
HETATM   15  C   UNK     0      80.085  27.865  15.782  0.00  0.00     0.098 A 
HETATM   16  C   UNK     0      78.726  27.952  16.081  0.00  0.00     0.040 A 
HETATM   17  C   UNK     0      77.978  29.036  15.620  0.00  0.00     0.017 A 
BRANCH  14  18
HETATM   18  O   UNK     0      82.024  28.784  14.719  0.00  0.00    -0.358 OA
HETATM   19  H   UNK     0      82.488  28.397  15.481  0.00  0.00     0.217 HD
ENDBRANCH  14  18
BRANCH  15  20
HETATM   20  O   UNK     0      80.805  26.802  16.239  0.00  0.00    -0.358 OA
HETATM   21  H   UNK     0      80.727  26.071  15.604  0.00  0.00     0.217 HD
ENDBRANCH  15  20
ENDBRANCH   5  12
BRANCH   8  22
HETATM   22  O   UNK     0      75.621  35.391  12.571  0.00  0.00    -0.360 OA
HETATM   23  H   UNK     0      76.337  35.780  13.096  0.00  0.00     0.217 HD
ENDBRANCH   8  22
BRANCH  10  24
HETATM   24  O   UNK     0      72.003  32.674  14.014  0.00  0.00    -0.361 OA
HETATM   25  H   UNK     0      71.708  31.960  13.424  0.00  0.00     0.217 HD
ENDBRANCH  10  24
TORSDOF 5
ENDMDL
MODEL 8
REMARK VINA RESULT:      -7.8     22.610     24.494
REMARK  5 active torsions:
REMARK  status: ('A' for Active; 'I' for Inactive)
REMARK    1  A    between atoms: O_2  and  C_13 
REMARK    2  A    between atoms: O_4  and  C_16 
REMARK    3  A    between atoms: O_5  and  C_19 
REMARK    4  A    between atoms: O_6  and  C_21 
REMARK    5  A    between atoms: C_9  and  C_10 
ROOT
HETATM    1  O   UNK     0      59.664  18.277  26.818  0.00  0.00    -0.309 OA
HETATM    2  O   UNK     0      57.892  14.685  27.561  0.00  0.00    -0.287 OA
HETATM    3  C   UNK     0      58.175  16.942  28.197  0.00  0.00     0.081 A 
HETATM    4  C   UNK     0      58.813  18.141  27.885  0.00  0.00     0.095 A 
HETATM    5  C   UNK     0      59.904  17.168  26.020  0.00  0.00     0.090 A 
HETATM    6  C   UNK     0      58.420  15.766  27.348  0.00  0.00     0.190 A 
HETATM    7  C   UNK     0      59.346  15.963  26.213  0.00  0.00     0.094 A 
HETATM    8  C   UNK     0      57.318  16.864  29.297  0.00  0.00     0.085 A 
HETATM    9  C   UNK     0      58.597  19.272  28.673  0.00  0.00     0.075 A 
HETATM   10  C   UNK     0      57.741  19.197  29.772  0.00  0.00     0.071 A 
HETATM   11  C   UNK     0      57.104  17.996  30.084  0.00  0.00     0.074 A 
ENDROOT
BRANCH   5  12
HETATM   12  C   UNK     0      60.829  17.425  24.898  0.00  0.00     0.001 A 
HETATM   13  C   UNK     0      61.012  18.726  24.423  0.00  0.00     0.053 A 
HETATM   14  C   UNK     0      61.885  18.968  23.363  0.00  0.00     0.099 A 
HETATM   15  C   UNK     0      62.579  17.911  22.774  0.00  0.00     0.098 A 
HETATM   16  C   UNK     0      62.398  16.611  23.245  0.00  0.00     0.040 A 
HETATM   17  C   UNK     0      61.524  16.368  24.306  0.00  0.00     0.017 A 
BRANCH  14  18
HETATM   18  O   UNK     0      62.053  20.243  22.910  0.00  0.00    -0.358 OA
HETATM   19  H   UNK     0      61.695  20.854  23.576  0.00  0.00     0.217 HD
ENDBRANCH  14  18
BRANCH  15  20
HETATM   20  O   UNK     0      63.435  18.135  21.739  0.00  0.00    -0.358 OA
HETATM   21  H   UNK     0      62.932  18.142  20.908  0.00  0.00     0.217 HD
ENDBRANCH  15  20
ENDBRANCH   5  12
BRANCH   8  22
HETATM   22  O   UNK     0      56.672  15.715  29.643  0.00  0.00    -0.360 OA
HETATM   23  H   UNK     0      57.231  15.170  30.217  0.00  0.00     0.217 HD
ENDBRANCH   8  22
BRANCH  10  24
HETATM   24  O   UNK     0      57.527  20.299  30.544  0.00  0.00    -0.361 OA
HETATM   25  H   UNK     0      58.151  20.996  30.279  0.00  0.00     0.217 HD
ENDBRANCH  10  24
TORSDOF 5
ENDMDL
MODEL 9
REMARK VINA RESULT:      -7.8      1.634      2.181
REMARK  5 active torsions:
REMARK  status: ('A' for Active; 'I' for Inactive)
REMARK    1  A    between atoms: O_2  and  C_13 
REMARK    2  A    between atoms: O_4  and  C_16 
REMARK    3  A    between atoms: O_5  and  C_19 
REMARK    4  A    between atoms: O_6  and  C_21 
REMARK    5  A    between atoms: C_9  and  C_10 
ROOT
HETATM    1  O   UNK     0      73.099  35.004  31.811  0.00  0.00    -0.309 OA
HETATM    2  O   UNK     0      75.121  38.425  30.912  0.00  0.00    -0.287 OA
HETATM    3  C   UNK     0      73.398  36.914  30.339  0.00  0.00     0.081 A 
HETATM    4  C   UNK     0      72.748  35.736  30.705  0.00  0.00     0.095 A 
HETATM    5  C   UNK     0      74.152  35.454  32.594  0.00  0.00     0.090 A 
HETATM    6  C   UNK     0      74.509  37.399  31.172  0.00  0.00     0.190 A 
HETATM    7  C   UNK     0      74.850  36.574  32.350  0.00  0.00     0.094 A 
HETATM    8  C   UNK     0      72.997  37.617  29.202  0.00  0.00     0.085 A 
HETATM    9  C   UNK     0      71.691  35.255  29.934  0.00  0.00     0.075 A 
HETATM   10  C   UNK     0      71.287  35.956  28.797  0.00  0.00     0.071 A 
HETATM   11  C   UNK     0      71.938  37.134  28.432  0.00  0.00     0.074 A 
ENDROOT
BRANCH   5  12
HETATM   12  C   UNK     0      74.442  34.597  33.760  0.00  0.00     0.001 A 
HETATM   13  C   UNK     0      73.440  33.788  34.304  0.00  0.00     0.053 A 
HETATM   14  C   UNK     0      73.714  32.978  35.405  0.00  0.00     0.099 A 
HETATM   15  C   UNK     0      74.991  32.974  35.968  0.00  0.00     0.098 A 
HETATM   16  C   UNK     0      75.993  33.780  35.429  0.00  0.00     0.040 A 
HETATM   17  C   UNK     0      75.719  34.591  34.327  0.00  0.00     0.017 A 
BRANCH  14  18
HETATM   18  O   UNK     0      72.727  32.195  35.925  0.00  0.00    -0.358 OA
HETATM   19  H   UNK     0      73.037  31.836  36.773  0.00  0.00     0.217 HD
ENDBRANCH  14  18
BRANCH  15  20
HETATM   20  O   UNK     0      75.271  32.187  37.044  0.00  0.00    -0.358 OA
HETATM   21  H   UNK     0      74.614  32.357  37.740  0.00  0.00     0.217 HD
ENDBRANCH  15  20
ENDBRANCH   5  12
BRANCH   8  22
HETATM   22  O   UNK     0      73.599  38.772  28.803  0.00  0.00    -0.360 OA
HETATM   23  H   UNK     0      74.539  38.619  28.619  0.00  0.00     0.217 HD
ENDBRANCH   8  22
BRANCH  10  24
HETATM   24  O   UNK     0      70.254  35.489  28.042  0.00  0.00    -0.361 OA
HETATM   25  H   UNK     0      69.576  35.114  28.631  0.00  0.00     0.217 HD
ENDBRANCH  10  24
TORSDOF 5
ENDMDL
