MODEL 1
REMARK VINA RESULT:      -9.1      0.000      0.000
REMARK  Name = 5280637
REMARK                            x       y       z     vdW  Elec       q    Type
REMARK                         _______ _______ _______ _____ _____    ______ ____
ROOT
ATOM     13  C   LIG    1        4.085  44.087  21.795  0.00  0.00    +0.131 A 
ATOM     14  C   LIG    1        3.256  43.225  21.076  0.00  0.00    +0.092 A 
ATOM     15  C   LIG    1        2.597  42.181  21.728  0.00  0.00    +0.135 A 
ATOM     16  C   LIG    1        2.773  42.006  23.102  0.00  0.00    +0.105 A 
ATOM     17  C   LIG    1        2.093  40.915  23.816  0.00  0.00    +0.197 A 
ATOM     18  C   LIG    1        2.350  40.825  25.268  0.00  0.00    +0.098 A 
ATOM     19  C   LIG    1        3.165  41.720  25.848  0.00  0.00    +0.139 A 
ATOM     30  O   LIG    1        3.811  42.743  25.171  0.00  0.00    -0.454 OA
ATOM     31  O   LIG    1        1.356  40.122  23.247  0.00  0.00    -0.287 OA
ATOM     32  C   LIG    1        3.601  42.868  23.821  0.00  0.00    +0.146 A 
ATOM     35  C   LIG    1        4.259  43.910  23.168  0.00  0.00    +0.093 A 
ENDROOT
BRANCH  19  20
ATOM     20  C   LIG    1        3.465  41.674  27.294  0.00  0.00    +0.021 A 
ATOM     21  C   LIG    1        2.691  40.883  28.146  0.00  0.00    +0.015 A 
ATOM     22  C   LIG    1        2.974  40.841  29.511  0.00  0.00    +0.050 A 
ATOM     23  C   LIG    1        4.032  41.589  30.028  0.00  0.00    +0.158 A 
ATOM     24  C   LIG    1        4.806  42.381  29.179  0.00  0.00    +0.159 A 
ATOM     29  C   LIG    1        4.523  42.423  27.814  0.00  0.00    +0.060 A 
BRANCH  24  25
ATOM     25  O   LIG    1        5.843  43.114  29.673  0.00  0.00    -0.503 OA
ATOM     26  H   LIG    1        5.522  44.013  29.855  0.00  0.00    +0.292 HD
ENDBRANCH  24  25
BRANCH  23  27
ATOM     27  O   LIG    1        4.297  41.540  31.363  0.00  0.00    -0.503 OA
ATOM     28  H   LIG    1        5.036  40.926  31.517  0.00  0.00    +0.292 HD
ENDBRANCH  23  27
ENDBRANCH  19  20
BRANCH  15  33
ATOM     33  O   LIG    1        1.799  41.367  20.982  0.00  0.00    -0.506 OA
ATOM     34  H   LIG    1        0.868  41.616  21.083  0.00  0.00    +0.292 HD
ENDBRANCH  15  33
BRANCH  13  12
ATOM     12  O   LIG    1        4.727  45.105  21.153  0.00  0.00    -0.461 OA
BRANCH  12   2
ATOM      1  O   LIG    1        7.015  45.532  21.324  0.00  0.00    -0.331 OA
ATOM      2  C   LIG    1        6.014  44.808  20.613  0.00  0.00    +0.339 C 
ATOM      3  C   LIG    1        6.008  45.210  19.138  0.00  0.00    +0.214 C 
ATOM      4  C   LIG    1        7.398  45.064  18.516  0.00  0.00    +0.180 C 
ATOM      5  C   LIG    1        8.467  45.717  19.393  0.00  0.00    +0.177 C 
ATOM     36  C   LIG    1        8.333  45.258  20.846  0.00  0.00    +0.179 C 
BRANCH   5   6
ATOM      6  O   LIG    1        9.758  45.363  18.904  0.00  0.00    -0.386 OA
ATOM      7  H   LIG    1       10.379  46.067  19.159  0.00  0.00    +0.210 HD
ENDBRANCH   5   6
BRANCH   4   8
ATOM      8  O   LIG    1        7.418  45.707  17.241  0.00  0.00    -0.386 OA
ATOM      9  H   LIG    1        7.994  45.181  16.659  0.00  0.00    +0.210 HD
ENDBRANCH   4   8
BRANCH   3  10
ATOM     10  O   LIG    1        5.090  44.364  18.446  0.00  0.00    -0.383 OA
ATOM     11  H   LIG    1        4.950  43.566  18.985  0.00  0.00    +0.210 HD
ENDBRANCH   3  10
BRANCH  36  37
ATOM     37  C   LIG    1        9.314  45.985  21.761  0.00  0.00    +0.190 C 
BRANCH  37  38
ATOM     38  O   LIG    1        9.832  47.105  21.066  0.00  0.00    -0.392 OA
ATOM     39  H   LIG    1        9.077  47.632  20.751  0.00  0.00    +0.210 HD
ENDBRANCH  37  38
ENDBRANCH  36  37
ENDBRANCH  12   2
ENDBRANCH  13  12
TORSDOF 11
ENDMDL
MODEL 2
REMARK VINA RESULT:      -9.1      1.976      8.300
REMARK  Name = 5280637
REMARK                            x       y       z     vdW  Elec       q    Type
REMARK                         _______ _______ _______ _____ _____    ______ ____
ROOT
ATOM     13  C   LIG    1        2.672  41.084  25.820  0.00  0.00    +0.131 A 
ATOM     14  C   LIG    1        1.958  40.076  25.172  0.00  0.00    +0.092 A 
ATOM     15  C   LIG    1        1.810  40.102  23.784  0.00  0.00    +0.135 A 
ATOM     16  C   LIG    1        2.382  41.144  23.050  0.00  0.00    +0.105 A 
ATOM     17  C   LIG    1        2.242  41.199  21.587  0.00  0.00    +0.197 A 
ATOM     18  C   LIG    1        2.888  42.344  20.913  0.00  0.00    +0.098 A 
ATOM     19  C   LIG    1        3.555  43.248  21.647  0.00  0.00    +0.139 A 
ATOM     30  O   LIG    1        3.679  43.198  23.027  0.00  0.00    -0.454 OA
ATOM     31  O   LIG    1        1.626  40.351  20.957  0.00  0.00    -0.287 OA
ATOM     32  C   LIG    1        3.097  42.151  23.697  0.00  0.00    +0.146 A 
ATOM     35  C   LIG    1        3.242  42.123  25.083  0.00  0.00    +0.093 A 
ENDROOT
BRANCH  19  20
ATOM     20  C   LIG    1        4.214  44.417  21.028  0.00  0.00    +0.021 A 
ATOM     21  C   LIG    1        4.203  45.653  21.678  0.00  0.00    +0.015 A 
ATOM     22  C   LIG    1        4.823  46.757  21.093  0.00  0.00    +0.050 A 
ATOM     23  C   LIG    1        5.458  46.628  19.857  0.00  0.00    +0.158 A 
ATOM     24  C   LIG    1        5.469  45.394  19.206  0.00  0.00    +0.159 A 
ATOM     29  C   LIG    1        4.848  44.290  19.790  0.00  0.00    +0.060 A 
BRANCH  24  25
ATOM     25  O   LIG    1        6.087  45.256  17.999  0.00  0.00    -0.503 OA
ATOM     26  H   LIG    1        5.917  44.357  17.670  0.00  0.00    +0.292 HD
ENDBRANCH  24  25
BRANCH  23  27
ATOM     27  O   LIG    1        6.059  47.713  19.296  0.00  0.00    -0.503 OA
ATOM     28  H   LIG    1        6.760  47.411  18.693  0.00  0.00    +0.292 HD
ENDBRANCH  23  27
ENDBRANCH  19  20
BRANCH  15  33
ATOM     33  O   LIG    1        1.103  39.095  23.199  0.00  0.00    -0.506 OA
ATOM     34  H   LIG    1        0.657  38.558  23.871  0.00  0.00    +0.292 HD
ENDBRANCH  15  33
BRANCH  13  12
ATOM     12  O   LIG    1        2.813  41.054  27.176  0.00  0.00    -0.461 OA
BRANCH  12   2
ATOM      1  O   LIG    1        5.087  41.558  27.308  0.00  0.00    -0.331 OA
ATOM      2  C   LIG    1        3.782  41.939  27.737  0.00  0.00    +0.339 C 
ATOM      3  C   LIG    1        3.671  41.853  29.259  0.00  0.00    +0.214 C 
ATOM      4  C   LIG    1        4.777  42.659  29.943  0.00  0.00    +0.180 C 
ATOM      5  C   LIG    1        6.146  42.339  29.344  0.00  0.00    +0.177 C 
ATOM     36  C   LIG    1        6.104  42.424  27.817  0.00  0.00    +0.179 C 
BRANCH   5   6
ATOM      6  O   LIG    1        7.107  43.267  29.842  0.00  0.00    -0.386 OA
ATOM      7  H   LIG    1        7.960  42.805  29.915  0.00  0.00    +0.210 HD
ENDBRANCH   5   6
BRANCH   4   8
ATOM      8  O   LIG    1        4.814  42.330  31.333  0.00  0.00    -0.386 OA
ATOM      9  H   LIG    1        3.898  42.166  31.617  0.00  0.00    +0.210 HD
ENDBRANCH   4   8
BRANCH   3  10
ATOM     10  O   LIG    1        2.399  42.372  29.646  0.00  0.00    -0.383 OA
ATOM     11  H   LIG    1        2.168  41.991  30.510  0.00  0.00    +0.210 HD
ENDBRANCH   3  10
BRANCH  36  37
ATOM     37  C   LIG    1        7.428  41.994  27.192  0.00  0.00    +0.190 C 
BRANCH  37  38
ATOM     38  O   LIG    1        8.269  43.129  27.093  0.00  0.00    -0.392 OA
ATOM     39  H   LIG    1        8.251  43.586  27.951  0.00  0.00    +0.210 HD
ENDBRANCH  37  38
ENDBRANCH  36  37
ENDBRANCH  12   2
ENDBRANCH  13  12
TORSDOF 11
ENDMDL
MODEL 3
REMARK VINA RESULT:      -8.8      2.591      5.126
REMARK  Name = 5280637
REMARK                            x       y       z     vdW  Elec       q    Type
REMARK                         _______ _______ _______ _____ _____    ______ ____
ROOT
ATOM     13  C   LIG    1        3.676  43.532  22.419  0.00  0.00    +0.131 A 
ATOM     14  C   LIG    1        4.070  43.856  23.718  0.00  0.00    +0.092 A 
ATOM     15  C   LIG    1        3.737  43.016  24.781  0.00  0.00    +0.135 A 
ATOM     16  C   LIG    1        3.007  41.850  24.536  0.00  0.00    +0.105 A 
ATOM     17  C   LIG    1        2.640  40.946  25.637  0.00  0.00    +0.197 A 
ATOM     18  C   LIG    1        1.869  39.743  25.263  0.00  0.00    +0.098 A 
ATOM     19  C   LIG    1        1.554  39.537  23.974  0.00  0.00    +0.139 A 
ATOM     30  O   LIG    1        1.895  40.395  22.940  0.00  0.00    -0.454 OA
ATOM     31  O   LIG    1        2.950  41.171  26.798  0.00  0.00    -0.287 OA
ATOM     32  C   LIG    1        2.613  41.526  23.239  0.00  0.00    +0.146 A 
ATOM     35  C   LIG    1        2.947  42.367  22.178  0.00  0.00    +0.093 A 
ENDROOT
BRANCH  19  20
ATOM     20  C   LIG    1        0.779  38.356  23.543  0.00  0.00    +0.021 A 
ATOM     21  C   LIG    1       -0.545  38.197  23.958  0.00  0.00    +0.015 A 
ATOM     22  C   LIG    1       -1.277  37.081  23.552  0.00  0.00    +0.050 A 
ATOM     23  C   LIG    1       -0.687  36.122  22.728  0.00  0.00    +0.158 A 
ATOM     24  C   LIG    1        0.636  36.278  22.313  0.00  0.00    +0.159 A 
ATOM     29  C   LIG    1        1.368  37.394  22.719  0.00  0.00    +0.060 A 
BRANCH  24  25
ATOM     25  O   LIG    1        1.221  35.348  21.508  0.00  0.00    -0.503 OA
ATOM     26  H   LIG    1        1.922  35.785  20.995  0.00  0.00    +0.292 HD
ENDBRANCH  24  25
BRANCH  23  27
ATOM     27  O   LIG    1       -1.412  35.036  22.339  0.00  0.00    -0.503 OA
ATOM     28  H   LIG    1       -1.882  35.248  21.515  0.00  0.00    +0.292 HD
ENDBRANCH  23  27
ENDBRANCH  19  20
BRANCH  15  33
ATOM     33  O   LIG    1        4.144  43.377  26.030  0.00  0.00    -0.506 OA
ATOM     34  H   LIG    1        4.328  44.327  26.067  0.00  0.00    +0.292 HD
ENDBRANCH  15  33
BRANCH  13  12
ATOM     12  O   LIG    1        4.004  44.357  21.383  0.00  0.00    -0.461 OA
BRANCH  12   2
ATOM      1  O   LIG    1        6.225  45.033  21.156  0.00  0.00    -0.331 OA
ATOM      2  C   LIG    1        5.242  44.094  20.726  0.00  0.00    +0.339 C 
ATOM      3  C   LIG    1        5.010  44.215  19.219  0.00  0.00    +0.214 C 
ATOM      4  C   LIG    1        6.322  44.096  18.442  0.00  0.00    +0.180 C 
ATOM      5  C   LIG    1        7.400  45.002  19.036  0.00  0.00    +0.177 C 
ATOM     36  C   LIG    1        7.500  44.807  20.551  0.00  0.00    +0.179 C 
BRANCH   5   6
ATOM      6  O   LIG    1        8.657  44.694  18.438  0.00  0.00    -0.386 OA
ATOM      7  H   LIG    1        8.654  45.052  17.534  0.00  0.00    +0.210 HD
ENDBRANCH   5   6
BRANCH   4   8
ATOM      8  O   LIG    1        6.109  44.491  17.086  0.00  0.00    -0.386 OA
ATOM      9  H   LIG    1        5.467  45.222  17.094  0.00  0.00    +0.210 HD
ENDBRANCH   4   8
BRANCH   3  10
ATOM     10  O   LIG    1        4.125  43.169  18.817  0.00  0.00    -0.383 OA
ATOM     11  H   LIG    1        4.290  42.980  17.877  0.00  0.00    +0.210 HD
ENDBRANCH   3  10
BRANCH  36  37
ATOM     37  C   LIG    1        8.487  45.784  21.181  0.00  0.00    +0.190 C 
BRANCH  37  38
ATOM     38  O   LIG    1        8.651  46.886  20.308  0.00  0.00    -0.392 OA
ATOM     39  H   LIG    1        7.790  47.332  20.230  0.00  0.00    +0.210 HD
ENDBRANCH  37  38
ENDBRANCH  36  37
ENDBRANCH  12   2
ENDBRANCH  13  12
TORSDOF 11
ENDMDL
MODEL 4
REMARK VINA RESULT:      -8.8      1.987      2.880
REMARK  Name = 5280637
REMARK                            x       y       z     vdW  Elec       q    Type
REMARK                         _______ _______ _______ _____ _____    ______ ____
ROOT
ATOM     13  C   LIG    1        6.107  44.241  20.655  0.00  0.00    +0.131 A 
ATOM     14  C   LIG    1        5.250  43.930  19.599  0.00  0.00    +0.092 A 
ATOM     15  C   LIG    1        4.091  43.189  19.831  0.00  0.00    +0.135 A 
ATOM     16  C   LIG    1        3.793  42.762  21.127  0.00  0.00    +0.105 A 
ATOM     17  C   LIG    1        2.580  41.979  21.403  0.00  0.00    +0.197 A 
ATOM     18  C   LIG    1        2.364  41.583  22.810  0.00  0.00    +0.098 A 
ATOM     19  C   LIG    1        3.259  41.949  23.740  0.00  0.00    +0.139 A 
ATOM     30  O   LIG    1        4.407  42.680  23.476  0.00  0.00    -0.454 OA
ATOM     31  O   LIG    1        1.788  41.669  20.524  0.00  0.00    -0.287 OA
ATOM     32  C   LIG    1        4.648  43.073  22.184  0.00  0.00    +0.146 A 
ATOM     35  C   LIG    1        5.807  43.813  21.949  0.00  0.00    +0.093 A 
ENDROOT
BRANCH  19  20
ATOM     20  C   LIG    1        3.101  41.574  25.161  0.00  0.00    +0.021 A 
ATOM     21  C   LIG    1        2.338  40.458  25.510  0.00  0.00    +0.015 A 
ATOM     22  C   LIG    1        2.187  40.104  26.851  0.00  0.00    +0.050 A 
ATOM     23  C   LIG    1        2.800  40.866  27.846  0.00  0.00    +0.158 A 
ATOM     24  C   LIG    1        3.562  41.982  27.500  0.00  0.00    +0.159 A 
ATOM     29  C   LIG    1        3.712  42.335  26.159  0.00  0.00    +0.060 A 
BRANCH  24  25
ATOM     25  O   LIG    1        4.166  42.732  28.464  0.00  0.00    -0.503 OA
ATOM     26  H   LIG    1        3.647  43.544  28.590  0.00  0.00    +0.292 HD
ENDBRANCH  24  25
BRANCH  23  27
ATOM     27  O   LIG    1        2.644  40.511  29.152  0.00  0.00    -0.503 OA
ATOM     28  H   LIG    1        2.448  41.307  29.675  0.00  0.00    +0.292 HD
ENDBRANCH  23  27
ENDBRANCH  19  20
BRANCH  15  33
ATOM     33  O   LIG    1        3.288  42.911  18.766  0.00  0.00    -0.506 OA
ATOM     34  H   LIG    1        3.689  43.231  17.944  0.00  0.00    +0.292 HD
ENDBRANCH  15  33
BRANCH  13  12
ATOM     12  O   LIG    1        7.239  44.964  20.423  0.00  0.00    -0.461 OA
BRANCH  12   2
ATOM      1  O   LIG    1        9.239  43.811  20.763  0.00  0.00    -0.331 OA
ATOM      2  C   LIG    1        8.315  44.278  19.783  0.00  0.00    +0.339 C 
ATOM      3  C   LIG    1        8.996  45.259  18.829  0.00  0.00    +0.214 C 
ATOM      4  C   LIG    1       10.256  44.650  18.211  0.00  0.00    +0.180 C 
ATOM      5  C   LIG    1       11.145  44.016  19.281  0.00  0.00    +0.177 C 
ATOM     36  C   LIG    1       10.330  43.091  20.187  0.00  0.00    +0.179 C 
BRANCH   5   6
ATOM      6  O   LIG    1       12.180  43.266  18.649  0.00  0.00    -0.386 OA
ATOM      7  H   LIG    1       12.624  42.734  19.332  0.00  0.00    +0.210 HD
ENDBRANCH   5   6
BRANCH   4   8
ATOM      8  O   LIG    1       11.008  45.674  17.559  0.00  0.00    -0.386 OA
ATOM      9  H   LIG    1       10.820  46.511  18.018  0.00  0.00    +0.210 HD
ENDBRANCH   4   8
BRANCH   3  10
ATOM     10  O   LIG    1        8.073  45.590  17.792  0.00  0.00    -0.383 OA
ATOM     11  H   LIG    1        7.444  44.854  17.702  0.00  0.00    +0.210 HD
ENDBRANCH   3  10
BRANCH  36  37
ATOM     37  C   LIG    1       11.173  42.539  21.333  0.00  0.00    +0.190 C 
BRANCH  37  38
ATOM     38  O   LIG    1       11.938  41.452  20.846  0.00  0.00    -0.392 OA
ATOM     39  H   LIG    1       11.888  41.466  19.874  0.00  0.00    +0.210 HD
ENDBRANCH  37  38
ENDBRANCH  36  37
ENDBRANCH  12   2
ENDBRANCH  13  12
TORSDOF 11
ENDMDL
MODEL 5
REMARK VINA RESULT:      -8.3      3.099      6.472
REMARK  Name = 5280637
REMARK                            x       y       z     vdW  Elec       q    Type
REMARK                         _______ _______ _______ _____ _____    ______ ____
ROOT
ATOM     13  C   LIG    1        9.383  44.434  19.887  0.00  0.00    +0.131 A 
ATOM     14  C   LIG    1        9.139  45.766  19.552  0.00  0.00    +0.092 A 
ATOM     15  C   LIG    1        7.876  46.322  19.760  0.00  0.00    +0.135 A 
ATOM     16  C   LIG    1        6.858  45.535  20.305  0.00  0.00    +0.105 A 
ATOM     17  C   LIG    1        5.517  46.092  20.534  0.00  0.00    +0.197 A 
ATOM     18  C   LIG    1        4.519  45.171  21.117  0.00  0.00    +0.098 A 
ATOM     19  C   LIG    1        4.876  43.910  21.403  0.00  0.00    +0.139 A 
ATOM     30  O   LIG    1        6.140  43.385  21.178  0.00  0.00    -0.454 OA
ATOM     31  O   LIG    1        5.234  47.250  20.260  0.00  0.00    -0.287 OA
ATOM     32  C   LIG    1        7.101  44.204  20.640  0.00  0.00    +0.146 A 
ATOM     35  C   LIG    1        8.364  43.651  20.431  0.00  0.00    +0.093 A 
ENDROOT
BRANCH  19  20
ATOM     20  C   LIG    1        3.919  42.942  21.978  0.00  0.00    +0.021 A 
ATOM     21  C   LIG    1        3.116  42.168  21.139  0.00  0.00    +0.015 A 
ATOM     22  C   LIG    1        2.211  41.255  21.682  0.00  0.00    +0.050 A 
ATOM     23  C   LIG    1        2.108  41.115  23.066  0.00  0.00    +0.158 A 
ATOM     24  C   LIG    1        2.909  41.889  23.907  0.00  0.00    +0.159 A 
ATOM     29  C   LIG    1        3.814  42.801  23.364  0.00  0.00    +0.060 A 
BRANCH  24  25
ATOM     25  O   LIG    1        2.818  41.758  25.260  0.00  0.00    -0.503 OA
ATOM     26  H   LIG    1        2.160  41.070  25.458  0.00  0.00    +0.292 HD
ENDBRANCH  24  25
BRANCH  23  27
ATOM     27  O   LIG    1        1.220  40.222  23.585  0.00  0.00    -0.503 OA
ATOM     28  H   LIG    1        0.418  40.217  23.035  0.00  0.00    +0.292 HD
ENDBRANCH  23  27
ENDBRANCH  19  20
BRANCH  15  33
ATOM     33  O   LIG    1        7.689  47.626  19.416  0.00  0.00    -0.506 OA
ATOM     34  H   LIG    1        8.316  47.890  18.726  0.00  0.00    +0.292 HD
ENDBRANCH  15  33
BRANCH  13  12
ATOM     12  O   LIG    1       10.619  43.895  19.681  0.00  0.00    -0.461 OA
BRANCH  12   2
ATOM      1  O   LIG    1       11.534  44.358  21.777  0.00  0.00    -0.331 OA
ATOM      2  C   LIG    1       11.268  43.335  20.821  0.00  0.00    +0.339 C 
ATOM      3  C   LIG    1       12.572  42.691  20.349  0.00  0.00    +0.214 C 
ATOM      4  C   LIG    1       13.407  42.195  21.531  0.00  0.00    +0.180 C 
ATOM      5  C   LIG    1       13.534  43.271  22.609  0.00  0.00    +0.177 C 
ATOM     36  C   LIG    1       12.163  43.855  22.957  0.00  0.00    +0.179 C 
BRANCH   5   6
ATOM      6  O   LIG    1       14.114  42.700  23.779  0.00  0.00    -0.386 OA
ATOM      7  H   LIG    1       13.670  43.087  24.553  0.00  0.00    +0.210 HD
ENDBRANCH   5   6
BRANCH   4   8
ATOM      8  O   LIG    1       14.721  41.864  21.079  0.00  0.00    -0.386 OA
ATOM      9  H   LIG    1       15.352  42.284  21.688  0.00  0.00    +0.210 HD
ENDBRANCH   4   8
BRANCH   3  10
ATOM     10  O   LIG    1       12.247  41.588  19.503  0.00  0.00    -0.383 OA
ATOM     11  H   LIG    1       12.033  40.827  20.069  0.00  0.00    +0.210 HD
ENDBRANCH   3  10
BRANCH  36  37
ATOM     37  C   LIG    1       12.277  45.012  23.945  0.00  0.00    +0.190 C 
BRANCH  37  38
ATOM     38  O   LIG    1       13.624  45.448  23.974  0.00  0.00    -0.392 OA
ATOM     39  H   LIG    1       13.723  46.051  24.732  0.00  0.00    +0.210 HD
ENDBRANCH  37  38
ENDBRANCH  36  37
ENDBRANCH  12   2
ENDBRANCH  13  12
TORSDOF 11
ENDMDL
MODEL 6
REMARK VINA RESULT:      -7.8      5.579      9.500
REMARK  Name = 5280637
REMARK                            x       y       z     vdW  Elec       q    Type
REMARK                         _______ _______ _______ _____ _____    ______ ____
ROOT
ATOM     13  C   LIG    1        9.397  42.815  20.635  0.00  0.00    +0.131 A 
ATOM     14  C   LIG    1        8.740  42.083  21.624  0.00  0.00    +0.092 A 
ATOM     15  C   LIG    1        9.471  41.313  22.529  0.00  0.00    +0.135 A 
ATOM     16  C   LIG    1       10.864  41.281  22.438  0.00  0.00    +0.105 A 
ATOM     17  C   LIG    1       11.661  40.477  23.377  0.00  0.00    +0.197 A 
ATOM     18  C   LIG    1       13.126  40.518  23.190  0.00  0.00    +0.098 A 
ATOM     19  C   LIG    1       13.643  41.268  22.204  0.00  0.00    +0.139 A 
ATOM     30  O   LIG    1       12.888  42.018  21.315  0.00  0.00    -0.454 OA
ATOM     31  O   LIG    1       11.149  39.809  24.265  0.00  0.00    -0.287 OA
ATOM     32  C   LIG    1       11.522  42.013  21.451  0.00  0.00    +0.146 A 
ATOM     35  C   LIG    1       10.790  42.781  20.547  0.00  0.00    +0.093 A 
ENDROOT
BRANCH  19  20
ATOM     20  C   LIG    1       15.099  41.340  21.964  0.00  0.00    +0.021 A 
ATOM     21  C   LIG    1       15.912  40.242  22.251  0.00  0.00    +0.015 A 
ATOM     22  C   LIG    1       17.287  40.311  22.026  0.00  0.00    +0.050 A 
ATOM     23  C   LIG    1       17.852  41.479  21.512  0.00  0.00    +0.158 A 
ATOM     24  C   LIG    1       17.042  42.578  21.226  0.00  0.00    +0.159 A 
ATOM     29  C   LIG    1       15.667  42.509  21.451  0.00  0.00    +0.060 A 
BRANCH  24  25
ATOM     25  O   LIG    1       17.583  43.723  20.723  0.00  0.00    -0.503 OA
ATOM     26  H   LIG    1       17.372  43.770  19.775  0.00  0.00    +0.292 HD
ENDBRANCH  24  25
BRANCH  23  27
ATOM     27  O   LIG    1       19.196  41.534  21.298  0.00  0.00    -0.503 OA
ATOM     28  H   LIG    1       19.634  41.842  22.110  0.00  0.00    +0.292 HD
ENDBRANCH  23  27
ENDBRANCH  19  20
BRANCH  15  33
ATOM     33  O   LIG    1        8.781  40.615  23.475  0.00  0.00    -0.506 OA
ATOM     34  H   LIG    1        8.900  41.018  24.348  0.00  0.00    +0.292 HD
ENDBRANCH  15  33
BRANCH  13  12
ATOM     12  O   LIG    1        8.678  43.566  19.752  0.00  0.00    -0.461 OA
BRANCH  12   2
ATOM      1  O   LIG    1        6.524  44.291  20.281  0.00  0.00    -0.331 OA
ATOM      2  C   LIG    1        7.908  44.634  20.302  0.00  0.00    +0.339 C 
ATOM      3  C   LIG    1        8.163  45.882  19.456  0.00  0.00    +0.214 C 
ATOM      4  C   LIG    1        7.260  47.039  19.884  0.00  0.00    +0.180 C 
ATOM      5  C   LIG    1        5.804  46.589  20.006  0.00  0.00    +0.177 C 
ATOM     36  C   LIG    1        5.698  45.313  20.844  0.00  0.00    +0.179 C 
BRANCH   5   6
ATOM      6  O   LIG    1        5.042  47.623  20.624  0.00  0.00    -0.386 OA
ATOM      7  H   LIG    1        4.524  48.068  19.931  0.00  0.00    +0.210 HD
ENDBRANCH   5   6
BRANCH   4   8
ATOM      8  O   LIG    1        7.322  48.078  18.906  0.00  0.00    -0.386 OA
ATOM      9  H   LIG    1        7.707  47.694  18.099  0.00  0.00    +0.210 HD
ENDBRANCH   4   8
BRANCH   3  10
ATOM     10  O   LIG    1        9.529  46.262  19.618  0.00  0.00    -0.383 OA
ATOM     11  H   LIG    1       10.021  45.487  19.940  0.00  0.00    +0.210 HD
ENDBRANCH   3  10
BRANCH  36  37
ATOM     37  C   LIG    1        4.269  44.780  20.881  0.00  0.00    +0.190 C 
BRANCH  37  38
ATOM     38  O   LIG    1        3.586  45.398  21.956  0.00  0.00    -0.392 OA
ATOM     39  H   LIG    1        2.836  45.893  21.584  0.00  0.00    +0.210 HD
ENDBRANCH  37  38
ENDBRANCH  36  37
ENDBRANCH  12   2
ENDBRANCH  13  12
TORSDOF 11
ENDMDL
MODEL 7
REMARK VINA RESULT:      -7.7      3.778      9.088
REMARK  Name = 5280637
REMARK                            x       y       z     vdW  Elec       q    Type
REMARK                         _______ _______ _______ _____ _____    ______ ____
ROOT
ATOM     13  C   LIG    1        7.003  44.616  21.224  0.00  0.00    +0.131 A 
ATOM     14  C   LIG    1        6.917  45.232  19.975  0.00  0.00    +0.092 A 
ATOM     15  C   LIG    1        7.990  45.168  19.086  0.00  0.00    +0.135 A 
ATOM     16  C   LIG    1        9.150  44.482  19.454  0.00  0.00    +0.105 A 
ATOM     17  C   LIG    1       10.298  44.398  18.539  0.00  0.00    +0.197 A 
ATOM     18  C   LIG    1       11.471  43.647  19.030  0.00  0.00    +0.098 A 
ATOM     19  C   LIG    1       11.432  43.091  20.252  0.00  0.00    +0.139 A 
ATOM     30  O   LIG    1       10.351  43.179  21.116  0.00  0.00    -0.454 OA
ATOM     31  O   LIG    1       10.291  44.918  17.432  0.00  0.00    -0.287 OA
ATOM     32  C   LIG    1        9.237  43.865  20.701  0.00  0.00    +0.146 A 
ATOM     35  C   LIG    1        8.164  43.931  21.589  0.00  0.00    +0.093 A 
ENDROOT
BRANCH  19  20
ATOM     20  C   LIG    1       12.578  42.336  20.799  0.00  0.00    +0.021 A 
ATOM     21  C   LIG    1       13.873  42.607  20.353  0.00  0.00    +0.015 A 
ATOM     22  C   LIG    1       14.954  41.893  20.869  0.00  0.00    +0.050 A 
ATOM     23  C   LIG    1       14.744  40.907  21.833  0.00  0.00    +0.158 A 
ATOM     24  C   LIG    1       13.451  40.635  22.280  0.00  0.00    +0.159 A 
ATOM     29  C   LIG    1       12.369  41.348  21.764  0.00  0.00    +0.060 A 
BRANCH  24  25
ATOM     25  O   LIG    1       13.234  39.675  23.223  0.00  0.00    -0.503 OA
ATOM     26  H   LIG    1       13.873  39.805  23.944  0.00  0.00    +0.292 HD
ENDBRANCH  24  25
BRANCH  23  27
ATOM     27  O   LIG    1       15.808  40.217  22.329  0.00  0.00    -0.503 OA
ATOM     28  H   LIG    1       16.155  39.629  21.635  0.00  0.00    +0.292 HD
ENDBRANCH  23  27
ENDBRANCH  19  20
BRANCH  15  33
ATOM     33  O   LIG    1        7.857  45.787  17.880  0.00  0.00    -0.506 OA
ATOM     34  H   LIG    1        8.533  45.474  17.260  0.00  0.00    +0.292 HD
ENDBRANCH  15  33
BRANCH  13  12
ATOM     12  O   LIG    1        5.952  44.682  22.090  0.00  0.00    -0.461 OA
BRANCH  12   2
ATOM      1  O   LIG    1        4.080  43.441  21.460  0.00  0.00    -0.331 OA
ATOM      2  C   LIG    1        5.226  43.473  22.307  0.00  0.00    +0.339 C 
ATOM      3  C   LIG    1        4.808  43.433  23.777  0.00  0.00    +0.214 C 
ATOM      4  C   LIG    1        3.895  42.241  24.063  0.00  0.00    +0.180 C 
ATOM      5  C   LIG    1        2.767  42.147  23.035  0.00  0.00    +0.177 C 
ATOM     36  C   LIG    1        3.321  42.239  21.612  0.00  0.00    +0.179 C 
BRANCH   5   6
ATOM      6  O   LIG    1        2.083  40.907  23.196  0.00  0.00    -0.386 OA
ATOM      7  H   LIG    1        1.777  40.618  22.320  0.00  0.00    +0.210 HD
ENDBRANCH   5   6
BRANCH   4   8
ATOM      8  O   LIG    1        3.305  42.393  25.355  0.00  0.00    -0.386 OA
ATOM      9  H   LIG    1        3.363  43.335  25.592  0.00  0.00    +0.210 HD
ENDBRANCH   4   8
BRANCH   3  10
ATOM     10  O   LIG    1        5.986  43.330  24.575  0.00  0.00    -0.383 OA
ATOM     11  H   LIG    1        6.644  42.816  24.076  0.00  0.00    +0.210 HD
ENDBRANCH   3  10
BRANCH  36  37
ATOM     37  C   LIG    1        2.204  42.267  20.572  0.00  0.00    +0.190 C 
BRANCH  37  38
ATOM     38  O   LIG    1        1.015  42.707  21.201  0.00  0.00    -0.392 OA
ATOM     39  H   LIG    1        1.173  42.715  22.161  0.00  0.00    +0.210 HD
ENDBRANCH  37  38
ENDBRANCH  36  37
ENDBRANCH  12   2
ENDBRANCH  13  12
TORSDOF 11
ENDMDL
MODEL 8
REMARK VINA RESULT:      -7.6      3.949      7.885
REMARK  Name = 5280637
REMARK                            x       y       z     vdW  Elec       q    Type
REMARK                         _______ _______ _______ _____ _____    ______ ____
ROOT
ATOM     13  C   LIG    1       10.797  43.012  20.542  0.00  0.00    +0.131 A 
ATOM     14  C   LIG    1       11.028  43.840  19.444  0.00  0.00    +0.092 A 
ATOM     15  C   LIG    1        9.955  44.415  18.762  0.00  0.00    +0.135 A 
ATOM     16  C   LIG    1        8.650  44.156  19.186  0.00  0.00    +0.105 A 
ATOM     17  C   LIG    1        7.499  44.746  18.486  0.00  0.00    +0.197 A 
ATOM     18  C   LIG    1        6.165  44.406  19.022  0.00  0.00    +0.098 A 
ATOM     19  C   LIG    1        6.072  43.600  20.091  0.00  0.00    +0.139 A 
ATOM     30  O   LIG    1        7.158  43.039  20.744  0.00  0.00    -0.454 OA
ATOM     31  O   LIG    1        7.630  45.478  17.515  0.00  0.00    -0.287 OA
ATOM     32  C   LIG    1        8.418  43.328  20.284  0.00  0.00    +0.146 A 
ATOM     35  C   LIG    1        9.492  42.754  20.964  0.00  0.00    +0.093 A 
ENDROOT
BRANCH  19  20
ATOM     20  C   LIG    1        4.764  43.219  20.665  0.00  0.00    +0.021 A 
ATOM     21  C   LIG    1        3.691  42.919  19.824  0.00  0.00    +0.015 A 
ATOM     22  C   LIG    1        2.456  42.560  20.365  0.00  0.00    +0.050 A 
ATOM     23  C   LIG    1        2.293  42.499  21.749  0.00  0.00    +0.158 A 
ATOM     24  C   LIG    1        3.364  42.799  22.591  0.00  0.00    +0.159 A 
ATOM     29  C   LIG    1        4.598  43.158  22.050  0.00  0.00    +0.060 A 
BRANCH  24  25
ATOM     25  O   LIG    1        3.215  42.740  23.945  0.00  0.00    -0.503 OA
ATOM     26  H   LIG    1        2.964  43.624  24.263  0.00  0.00    +0.292 HD
ENDBRANCH  24  25
BRANCH  23  27
ATOM     27  O   LIG    1        1.082  42.148  22.266  0.00  0.00    -0.503 OA
ATOM     28  H   LIG    1        1.181  41.326  22.776  0.00  0.00    +0.292 HD
ENDBRANCH  23  27
ENDBRANCH  19  20
BRANCH  15  33
ATOM     33  O   LIG    1       10.234  45.216  17.695  0.00  0.00    -0.506 OA
ATOM     34  H   LIG    1       10.203  44.708  16.871  0.00  0.00    +0.292 HD
ENDBRANCH  15  33
BRANCH  13  12
ATOM     12  O   LIG    1       11.849  42.451  21.206  0.00  0.00    -0.461 OA
BRANCH  12   2
ATOM      1  O   LIG    1       14.164  42.697  21.354  0.00  0.00    -0.331 OA
ATOM      2  C   LIG    1       12.908  43.331  21.581  0.00  0.00    +0.339 C 
ATOM      3  C   LIG    1       12.737  43.666  23.063  0.00  0.00    +0.214 C 
ATOM      4  C   LIG    1       13.917  44.486  23.588  0.00  0.00    +0.180 C 
ATOM      5  C   LIG    1       15.250  43.857  23.185  0.00  0.00    +0.177 C 
ATOM     36  C   LIG    1       15.271  43.538  21.688  0.00  0.00    +0.179 C 
BRANCH   5   6
ATOM      6  O   LIG    1       16.309  44.762  23.488  0.00  0.00    -0.386 OA
ATOM      7  H   LIG    1       17.144  44.353  23.204  0.00  0.00    +0.210 HD
ENDBRANCH   5   6
BRANCH   4   8
ATOM      8  O   LIG    1       13.864  44.536  25.014  0.00  0.00    -0.386 OA
ATOM      9  H   LIG    1       13.297  43.803  25.310  0.00  0.00    +0.210 HD
ENDBRANCH   4   8
BRANCH   3  10
ATOM     10  O   LIG    1       11.533  44.417  23.217  0.00  0.00    -0.383 OA
ATOM     11  H   LIG    1       10.991  44.283  22.421  0.00  0.00    +0.210 HD
ENDBRANCH   3  10
BRANCH  36  37
ATOM     37  C   LIG    1       16.545  42.803  21.285  0.00  0.00    +0.190 C 
BRANCH  37  38
ATOM     38  O   LIG    1       17.505  43.759  20.873  0.00  0.00    -0.392 OA
ATOM     39  H   LIG    1       18.220  43.763  21.533  0.00  0.00    +0.210 HD
ENDBRANCH  37  38
ENDBRANCH  36  37
ENDBRANCH  12   2
ENDBRANCH  13  12
TORSDOF 11
ENDMDL
MODEL 9
REMARK VINA RESULT:      -7.6      4.069      7.607
REMARK  Name = 5280637
REMARK                            x       y       z     vdW  Elec       q    Type
REMARK                         _______ _______ _______ _____ _____    ______ ____
ROOT
ATOM     13  C   LIG    1       10.803  43.288  20.659  0.00  0.00    +0.131 A 
ATOM     14  C   LIG    1       10.852  44.169  19.579  0.00  0.00    +0.092 A 
ATOM     15  C   LIG    1        9.676  44.553  18.933  0.00  0.00    +0.135 A 
ATOM     16  C   LIG    1        8.451  44.049  19.376  0.00  0.00    +0.105 A 
ATOM     17  C   LIG    1        7.195  44.434  18.714  0.00  0.00    +0.197 A 
ATOM     18  C   LIG    1        5.959  43.843  19.266  0.00  0.00    +0.098 A 
ATOM     19  C   LIG    1        6.040  43.010  20.316  0.00  0.00    +0.139 A 
ATOM     30  O   LIG    1        7.226  42.643  20.932  0.00  0.00    -0.454 OA
ATOM     31  O   LIG    1        7.167  45.199  17.760  0.00  0.00    -0.287 OA
ATOM     32  C   LIG    1        8.400  43.169  20.456  0.00  0.00    +0.146 A 
ATOM     35  C   LIG    1        9.577  42.786  21.099  0.00  0.00    +0.093 A 
ENDROOT
BRANCH  19  20
ATOM     20  C   LIG    1        4.838  42.382  20.904  0.00  0.00    +0.021 A 
ATOM     21  C   LIG    1        4.970  41.312  21.791  0.00  0.00    +0.015 A 
ATOM     22  C   LIG    1        3.836  40.719  22.345  0.00  0.00    +0.050 A 
ATOM     23  C   LIG    1        2.567  41.195  22.015  0.00  0.00    +0.158 A 
ATOM     24  C   LIG    1        2.433  42.264  21.128  0.00  0.00    +0.159 A 
ATOM     29  C   LIG    1        3.567  42.857  20.574  0.00  0.00    +0.060 A 
BRANCH  24  25
ATOM     25  O   LIG    1        1.198  42.738  20.800  0.00  0.00    -0.503 OA
ATOM     26  H   LIG    1        1.281  43.683  20.584  0.00  0.00    +0.292 HD
ENDBRANCH  24  25
BRANCH  23  27
ATOM     27  O   LIG    1        1.467  40.607  22.562  0.00  0.00    -0.503 OA
ATOM     28  H   LIG    1        1.651  39.663  22.705  0.00  0.00    +0.292 HD
ENDBRANCH  23  27
ENDBRANCH  19  20
BRANCH  15  33
ATOM     33  O   LIG    1        9.778  45.415  17.883  0.00  0.00    -0.506 OA
ATOM     34  H   LIG    1       10.592  45.249  17.384  0.00  0.00    +0.292 HD
ENDBRANCH  15  33
BRANCH  13  12
ATOM     12  O   LIG    1       11.955  42.915  21.287  0.00  0.00    -0.461 OA
BRANCH  12   2
ATOM      1  O   LIG    1       11.229  44.134  23.139  0.00  0.00    -0.331 OA
ATOM      2  C   LIG    1       11.957  42.985  22.712  0.00  0.00    +0.339 C 
ATOM      3  C   LIG    1       13.411  43.070  23.177  0.00  0.00    +0.214 C 
ATOM      4  C   LIG    1       13.500  43.300  24.686  0.00  0.00    +0.180 C 
ATOM      5  C   LIG    1       12.581  44.438  25.128  0.00  0.00    +0.177 C 
ATOM     36  C   LIG    1       11.171  44.249  24.562  0.00  0.00    +0.179 C 
BRANCH   5   6
ATOM      6  O   LIG    1       12.518  44.468  26.551  0.00  0.00    -0.386 OA
ATOM      7  H   LIG    1       12.109  43.638  26.851  0.00  0.00    +0.210 HD
ENDBRANCH   5   6
BRANCH   4   8
ATOM      8  O   LIG    1       14.840  43.652  25.035  0.00  0.00    -0.386 OA
ATOM      9  H   LIG    1       15.038  43.232  25.889  0.00  0.00    +0.210 HD
ENDBRANCH   4   8
BRANCH   3  10
ATOM     10  O   LIG    1       14.059  41.842  22.846  0.00  0.00    -0.383 OA
ATOM     11  H   LIG    1       14.976  41.889  23.166  0.00  0.00    +0.210 HD
ENDBRANCH   3  10
BRANCH  36  37
ATOM     37  C   LIG    1       10.267  45.432  24.892  0.00  0.00    +0.190 C 
BRANCH  37  38
ATOM     38  O   LIG    1       11.026  46.623  24.784  0.00  0.00    -0.392 OA
ATOM     39  H   LIG    1       10.470  47.288  24.342  0.00  0.00    +0.210 HD
ENDBRANCH  37  38
ENDBRANCH  36  37
ENDBRANCH  12   2
ENDBRANCH  13  12
TORSDOF 11
ENDMDL
