MODEL 1
REMARK VINA RESULT:      -3.5      0.000      0.000
REMARK  4 active torsions:
REMARK  status: ('A' for Active; 'I' for Inactive)
REMARK    1  A    between atoms: C_2  and  C_12 
REMARK    2  A    between atoms: C_6  and  O_22 
REMARK    3  A    between atoms: C_8  and  O_20 
REMARK    4  A    between atoms: C_15  and  O_18 
ROOT
ATOM      1  O   UNL     1      -3.968  11.281   7.621  0.00  0.00    -0.454 OA
ATOM      2  C   UNL     1      -4.143  12.389   6.806  0.00  0.00     0.139 A 
ATOM      3  C   UNL     1      -4.490  13.608   7.250  0.00  0.00     0.098 A 
ATOM      4  C   UNL     1      -4.722  13.813   8.695  0.00  0.00     0.197 A 
ATOM      5  C   UNL     1      -4.545  12.633   9.555  0.00  0.00     0.105 A 
ATOM      6  C   UNL     1      -4.741  12.719  10.935  0.00  0.00     0.135 A 
ATOM      7  C   UNL     1      -4.565  11.585  11.727  0.00  0.00     0.091 A 
ATOM      8  C   UNL     1      -4.193  10.372  11.143  0.00  0.00     0.124 A 
ATOM      9  C   UNL     1      -3.998  10.290   9.764  0.00  0.00     0.092 A 
ATOM     10  O   UNL     1      -5.043  14.905   9.140  0.00  0.00    -0.287 OA
ATOM     11  C   UNL     1      -4.175  11.424   8.970  0.00  0.00     0.146 A 
ENDROOT
BRANCH   2  12
ATOM     12  C   UNL     1      -3.890  12.127   5.375  0.00  0.00     0.018 A 
ATOM     13  C   UNL     1      -3.515  13.170   4.526  0.00  0.00     0.015 A 
ATOM     14  C   UNL     1      -3.277  12.921   3.174  0.00  0.00     0.046 A 
ATOM     15  C   UNL     1      -3.412  11.629   2.667  0.00  0.00     0.117 A 
ATOM     16  C   UNL     1      -3.787  10.585   3.513  0.00  0.00     0.046 A 
ATOM     17  C   UNL     1      -4.025  10.832   4.865  0.00  0.00     0.015 A 
BRANCH  15  18
ATOM     18  O   UNL     1      -3.180  11.387   1.349  0.00  0.00    -0.507 OA
ATOM     19  H   UNL     1      -3.637  10.566   1.094  0.00  0.00     0.292 HD
ENDBRANCH  15  18
ENDBRANCH   2  12
BRANCH   6  20
ATOM     20  O   UNL     1      -5.102  13.878  11.554  0.00  0.00    -0.506 OA
ATOM     21  H   UNL     1      -4.743  14.643  11.079  0.00  0.00     0.292 HD
ENDBRANCH   6  20
BRANCH   8  22
ATOM     22  O   UNL     1      -4.021   9.268  11.920  0.00  0.00    -0.507 OA
ATOM     23  H   UNL     1      -3.527   9.518  12.720  0.00  0.00     0.292 HD
ENDBRANCH   8  22
TORSDOF 4
ENDMDL
MODEL 2
REMARK VINA RESULT:      -3.5      2.155      6.584
REMARK  4 active torsions:
REMARK  status: ('A' for Active; 'I' for Inactive)
REMARK    1  A    between atoms: C_2  and  C_12 
REMARK    2  A    between atoms: C_6  and  O_22 
REMARK    3  A    between atoms: C_8  and  O_20 
REMARK    4  A    between atoms: C_15  and  O_18 
ROOT
ATOM      1  O   UNL     1      -4.236  10.643   9.384  0.00  0.00    -0.454 OA
ATOM      2  C   UNL     1      -4.525  10.648  10.740  0.00  0.00     0.139 A 
ATOM      3  C   UNL     1      -4.867  11.743  11.437  0.00  0.00     0.098 A 
ATOM      4  C   UNL     1      -4.936  13.048  10.748  0.00  0.00     0.197 A 
ATOM      5  C   UNL     1      -4.619  13.041   9.311  0.00  0.00     0.105 A 
ATOM      6  C   UNL     1      -4.654  14.221   8.566  0.00  0.00     0.135 A 
ATOM      7  C   UNL     1      -4.350  14.186   7.205  0.00  0.00     0.091 A 
ATOM      8  C   UNL     1      -4.015  12.976   6.593  0.00  0.00     0.124 A 
ATOM      9  C   UNL     1      -3.982  11.799   7.341  0.00  0.00     0.092 A 
ATOM     10  O   UNL     1      -5.241  14.070  11.346  0.00  0.00    -0.287 OA
ATOM     11  C   UNL     1      -4.285  11.833   8.702  0.00  0.00     0.146 A 
ENDROOT
BRANCH   2  12
ATOM     12  C   UNL     1      -4.448   9.316  11.374  0.00  0.00     0.018 A 
ATOM     13  C   UNL     1      -4.912   8.188  10.694  0.00  0.00     0.015 A 
ATOM     14  C   UNL     1      -4.840   6.931  11.294  0.00  0.00     0.046 A 
ATOM     15  C   UNL     1      -4.304   6.797  12.574  0.00  0.00     0.117 A 
ATOM     16  C   UNL     1      -3.840   7.922  13.256  0.00  0.00     0.046 A 
ATOM     17  C   UNL     1      -3.911   9.180  12.657  0.00  0.00     0.015 A 
BRANCH  15  18
ATOM     18  O   UNL     1      -4.235   5.570  13.158  0.00  0.00    -0.507 OA
ATOM     19  H   UNL     1      -3.771   5.653  14.010  0.00  0.00     0.292 HD
ENDBRANCH  15  18
ENDBRANCH   2  12
BRANCH   6  20
ATOM     20  O   UNL     1      -4.976  15.427   9.115  0.00  0.00    -0.506 OA
ATOM     21  H   UNL     1      -5.817  15.368   9.594  0.00  0.00     0.292 HD
ENDBRANCH   6  20
BRANCH   8  22
ATOM     22  O   UNL     1      -3.720  12.946   5.264  0.00  0.00    -0.507 OA
ATOM     23  H   UNL     1      -4.257  12.256   4.837  0.00  0.00     0.292 HD
ENDBRANCH   8  22
TORSDOF 4
ENDMDL
MODEL 3
REMARK VINA RESULT:      -3.4     11.427     13.296
REMARK  4 active torsions:
REMARK  status: ('A' for Active; 'I' for Inactive)
REMARK    1  A    between atoms: C_2  and  C_12 
REMARK    2  A    between atoms: C_6  and  O_22 
REMARK    3  A    between atoms: C_8  and  O_20 
REMARK    4  A    between atoms: C_15  and  O_18 
ROOT
ATOM      1  O   UNL     1     -13.243   5.561   7.494  0.00  0.00    -0.454 OA
ATOM      2  C   UNL     1     -14.545   6.024   7.375  0.00  0.00     0.139 A 
ATOM      3  C   UNL     1     -15.226   6.077   6.219  0.00  0.00     0.098 A 
ATOM      4  C   UNL     1     -14.570   5.635   4.971  0.00  0.00     0.197 A 
ATOM      5  C   UNL     1     -13.186   5.153   5.100  0.00  0.00     0.105 A 
ATOM      6  C   UNL     1     -12.475   4.714   3.981  0.00  0.00     0.135 A 
ATOM      7  C   UNL     1     -11.164   4.261   4.132  0.00  0.00     0.091 A 
ATOM      8  C   UNL     1     -10.568   4.248   5.395  0.00  0.00     0.124 A 
ATOM      9  C   UNL     1     -11.282   4.688   6.510  0.00  0.00     0.092 A 
ATOM     10  O   UNL     1     -15.153   5.670   3.897  0.00  0.00    -0.287 OA
ATOM     11  C   UNL     1     -12.593   5.141   6.360  0.00  0.00     0.146 A 
ENDROOT
BRANCH   2  12
ATOM     12  C   UNL     1     -15.151   6.444   8.654  0.00  0.00     0.018 A 
ATOM     13  C   UNL     1     -15.977   7.568   8.703  0.00  0.00     0.015 A 
ATOM     14  C   UNL     1     -16.549   7.965   9.912  0.00  0.00     0.046 A 
ATOM     15  C   UNL     1     -16.296   7.238  11.076  0.00  0.00     0.117 A 
ATOM     16  C   UNL     1     -15.470   6.115  11.030  0.00  0.00     0.046 A 
ATOM     17  C   UNL     1     -14.899   5.717   9.821  0.00  0.00     0.015 A 
BRANCH  15  18
ATOM     18  O   UNL     1     -16.853   7.626  12.255  0.00  0.00    -0.507 OA
ATOM     19  H   UNL     1     -17.820   7.538  12.190  0.00  0.00     0.292 HD
ENDBRANCH  15  18
ENDBRANCH   2  12
BRANCH   6  20
ATOM     20  O   UNL     1     -13.011   4.705   2.728  0.00  0.00    -0.506 OA
ATOM     21  H   UNL     1     -13.883   4.282   2.734  0.00  0.00     0.292 HD
ENDBRANCH   6  20
BRANCH   8  22
ATOM     22  O   UNL     1      -9.289   3.805   5.538  0.00  0.00    -0.507 OA
ATOM     23  H   UNL     1      -9.141   3.561   6.468  0.00  0.00     0.292 HD
ENDBRANCH   8  22
TORSDOF 4
ENDMDL
MODEL 4
REMARK VINA RESULT:      -3.4      3.293      6.460
REMARK  4 active torsions:
REMARK  status: ('A' for Active; 'I' for Inactive)
REMARK    1  A    between atoms: C_2  and  C_12 
REMARK    2  A    between atoms: C_6  and  O_22 
REMARK    3  A    between atoms: C_8  and  O_20 
REMARK    4  A    between atoms: C_15  and  O_18 
ROOT
ATOM      1  O   UNL     1      -4.563  13.201  11.523  0.00  0.00    -0.454 OA
ATOM      2  C   UNL     1      -4.651  14.185  10.550  0.00  0.00     0.139 A 
ATOM      3  C   UNL     1      -4.622  13.947   9.229  0.00  0.00     0.098 A 
ATOM      4  C   UNL     1      -4.475  12.558   8.747  0.00  0.00     0.197 A 
ATOM      5  C   UNL     1      -4.372  11.518   9.782  0.00  0.00     0.105 A 
ATOM      6  C   UNL     1      -4.229  10.174   9.433  0.00  0.00     0.135 A 
ATOM      7  C   UNL     1      -4.135   9.208  10.435  0.00  0.00     0.091 A 
ATOM      8  C   UNL     1      -4.186   9.585  11.779  0.00  0.00     0.124 A 
ATOM      9  C   UNL     1      -4.330  10.930  12.124  0.00  0.00     0.092 A 
ATOM     10  O   UNL     1      -4.441  12.298   7.553  0.00  0.00    -0.287 OA
ATOM     11  C   UNL     1      -4.423  11.896  11.122  0.00  0.00     0.146 A 
ENDROOT
BRANCH   2  12
ATOM     12  C   UNL     1      -4.805  15.550  11.091  0.00  0.00     0.018 A 
ATOM     13  C   UNL     1      -4.747  16.654  10.237  0.00  0.00     0.015 A 
ATOM     14  C   UNL     1      -4.892  17.943  10.748  0.00  0.00     0.046 A 
ATOM     15  C   UNL     1      -5.097  18.134  12.115  0.00  0.00     0.117 A 
ATOM     16  C   UNL     1      -5.155  17.034  12.971  0.00  0.00     0.046 A 
ATOM     17  C   UNL     1      -5.010  15.744  12.460  0.00  0.00     0.015 A 
BRANCH  15  18
ATOM     18  O   UNL     1      -5.237  19.392  12.613  0.00  0.00    -0.507 OA
ATOM     19  H   UNL     1      -4.814  19.433  13.489  0.00  0.00     0.292 HD
ENDBRANCH  15  18
ENDBRANCH   2  12
BRANCH   6  20
ATOM     20  O   UNL     1      -4.175   9.754   8.137  0.00  0.00    -0.506 OA
ATOM     21  H   UNL     1      -4.541  10.430   7.546  0.00  0.00     0.292 HD
ENDBRANCH   6  20
BRANCH   8  22
ATOM     22  O   UNL     1      -4.095   8.639  12.754  0.00  0.00    -0.507 OA
ATOM     23  H   UNL     1      -3.318   8.829  13.307  0.00  0.00     0.292 HD
ENDBRANCH   8  22
TORSDOF 4
ENDMDL
MODEL 5
REMARK VINA RESULT:      -3.4     13.136     13.854
REMARK  4 active torsions:
REMARK  status: ('A' for Active; 'I' for Inactive)
REMARK    1  A    between atoms: C_2  and  C_12 
REMARK    2  A    between atoms: C_6  and  O_22 
REMARK    3  A    between atoms: C_8  and  O_20 
REMARK    4  A    between atoms: C_15  and  O_18 
ROOT
ATOM      1  O   UNL     1     -15.515  12.279  13.667  0.00  0.00    -0.454 OA
ATOM      2  C   UNL     1     -15.885  10.984  13.997  0.00  0.00     0.139 A 
ATOM      3  C   UNL     1     -15.966  10.517  15.253  0.00  0.00     0.098 A 
ATOM      4  C   UNL     1     -15.633  11.411  16.381  0.00  0.00     0.197 A 
ATOM      5  C   UNL     1     -15.231  12.781  16.026  0.00  0.00     0.105 A 
ATOM      6  C   UNL     1     -14.894  13.706  17.018  0.00  0.00     0.135 A 
ATOM      7  C   UNL     1     -14.518  14.999  16.653  0.00  0.00     0.091 A 
ATOM      8  C   UNL     1     -14.480  15.365  15.306  0.00  0.00     0.124 A 
ATOM      9  C   UNL     1     -14.818  14.439  14.320  0.00  0.00     0.092 A 
ATOM     10  O   UNL     1     -15.690  11.025  17.539  0.00  0.00    -0.287 OA
ATOM     11  C   UNL     1     -15.194  13.145  14.682  0.00  0.00     0.146 A 
ENDROOT
BRANCH   2  12
ATOM     12  C   UNL     1     -16.215  10.140  12.831  0.00  0.00     0.018 A 
ATOM     13  C   UNL     1     -16.007   8.760  12.882  0.00  0.00     0.015 A 
ATOM     14  C   UNL     1     -16.318   7.963  11.781  0.00  0.00     0.046 A 
ATOM     15  C   UNL     1     -16.839   8.544  10.624  0.00  0.00     0.117 A 
ATOM     16  C   UNL     1     -17.047   9.922  10.569  0.00  0.00     0.046 A 
ATOM     17  C   UNL     1     -16.736  10.719  11.671  0.00  0.00     0.015 A 
BRANCH  15  18
ATOM     18  O   UNL     1     -17.141   7.766   9.549  0.00  0.00    -0.507 OA
ATOM     19  H   UNL     1     -16.347   7.268   9.288  0.00  0.00     0.292 HD
ENDBRANCH  15  18
ENDBRANCH   2  12
BRANCH   6  20
ATOM     20  O   UNL     1     -14.915  13.399  18.345  0.00  0.00    -0.506 OA
ATOM     21  H   UNL     1     -14.614  14.155  18.873  0.00  0.00     0.292 HD
ENDBRANCH   6  20
BRANCH   8  22
ATOM     22  O   UNL     1     -14.113  16.629  14.956  0.00  0.00    -0.507 OA
ATOM     23  H   UNL     1     -13.671  17.050  15.713  0.00  0.00     0.292 HD
ENDBRANCH   8  22
TORSDOF 4
ENDMDL
MODEL 6
REMARK VINA RESULT:      -3.4      2.566      7.365
REMARK  4 active torsions:
REMARK  status: ('A' for Active; 'I' for Inactive)
REMARK    1  A    between atoms: C_2  and  C_12 
REMARK    2  A    between atoms: C_6  and  O_22 
REMARK    3  A    between atoms: C_8  and  O_20 
REMARK    4  A    between atoms: C_15  and  O_18 
ROOT
ATOM      1  O   UNL     1      -3.004  10.381  10.554  0.00  0.00    -0.454 OA
ATOM      2  C   UNL     1      -3.614  11.295  11.400  0.00  0.00     0.139 A 
ATOM      3  C   UNL     1      -4.387  12.311  10.985  0.00  0.00     0.098 A 
ATOM      4  C   UNL     1      -4.613  12.505   9.538  0.00  0.00     0.197 A 
ATOM      5  C   UNL     1      -3.955  11.539   8.643  0.00  0.00     0.105 A 
ATOM      6  C   UNL     1      -4.103  11.634   7.258  0.00  0.00     0.135 A 
ATOM      7  C   UNL     1      -3.469  10.705   6.433  0.00  0.00     0.091 A 
ATOM      8  C   UNL     1      -2.695   9.685   6.990  0.00  0.00     0.124 A 
ATOM      9  C   UNL     1      -2.550   9.594   8.375  0.00  0.00     0.092 A 
ATOM     10  O   UNL     1      -5.307  13.419   9.117  0.00  0.00    -0.287 OA
ATOM     11  C   UNL     1      -3.182  10.524   9.201  0.00  0.00     0.146 A 
ENDROOT
BRANCH   2  12
ATOM     12  C   UNL     1      -3.361  11.047  12.833  0.00  0.00     0.018 A 
ATOM     13  C   UNL     1      -2.405  11.800  13.519  0.00  0.00     0.015 A 
ATOM     14  C   UNL     1      -2.167  11.564  14.872  0.00  0.00     0.046 A 
ATOM     15  C   UNL     1      -2.882  10.574  15.546  0.00  0.00     0.117 A 
ATOM     16  C   UNL     1      -3.836   9.819  14.864  0.00  0.00     0.046 A 
ATOM     17  C   UNL     1      -4.076  10.054  13.510  0.00  0.00     0.015 A 
BRANCH  15  18
ATOM     18  O   UNL     1      -2.648  10.344  16.866  0.00  0.00    -0.507 OA
ATOM     19  H   UNL     1      -1.687  10.333  17.018  0.00  0.00     0.292 HD
ENDBRANCH  15  18
ENDBRANCH   2  12
BRANCH   6  20
ATOM     20  O   UNL     1      -4.848  12.608   6.664  0.00  0.00    -0.506 OA
ATOM     21  H   UNL     1      -4.795  13.433   7.171  0.00  0.00     0.292 HD
ENDBRANCH   6  20
BRANCH   8  22
ATOM     22  O   UNL     1      -2.079   8.780   6.181  0.00  0.00    -0.507 OA
ATOM     23  H   UNL     1      -1.202   8.573   6.548  0.00  0.00     0.292 HD
ENDBRANCH   8  22
TORSDOF 4
ENDMDL
MODEL 7
REMARK VINA RESULT:      -3.4      4.909      8.994
REMARK  4 active torsions:
REMARK  status: ('A' for Active; 'I' for Inactive)
REMARK    1  A    between atoms: C_2  and  C_12 
REMARK    2  A    between atoms: C_6  and  O_22 
REMARK    3  A    between atoms: C_8  and  O_20 
REMARK    4  A    between atoms: C_15  and  O_18 
ROOT
ATOM      1  O   UNL     1      -4.440   8.175  13.197  0.00  0.00    -0.454 OA
ATOM      2  C   UNL     1      -4.125   9.508  13.412  0.00  0.00     0.139 A 
ATOM      3  C   UNL     1      -3.988  10.419  12.435  0.00  0.00     0.098 A 
ATOM      4  C   UNL     1      -4.162  10.005  11.028  0.00  0.00     0.197 A 
ATOM      5  C   UNL     1      -4.486   8.588  10.804  0.00  0.00     0.105 A 
ATOM      6  C   UNL     1      -4.670   8.093   9.511  0.00  0.00     0.135 A 
ATOM      7  C   UNL     1      -4.977   6.745   9.327  0.00  0.00     0.091 A 
ATOM      8  C   UNL     1      -5.102   5.897  10.430  0.00  0.00     0.124 A 
ATOM      9  C   UNL     1      -4.917   6.396  11.720  0.00  0.00     0.092 A 
ATOM     10  O   UNL     1      -4.042  10.802  10.109  0.00  0.00    -0.287 OA
ATOM     11  C   UNL     1      -4.609   7.744  11.905  0.00  0.00     0.146 A 
ENDROOT
BRANCH   2  12
ATOM     12  C   UNL     1      -3.972   9.866  14.836  0.00  0.00     0.018 A 
ATOM     13  C   UNL     1      -5.011   9.623  15.737  0.00  0.00     0.015 A 
ATOM     14  C   UNL     1      -4.865   9.962  17.082  0.00  0.00     0.046 A 
ATOM     15  C   UNL     1      -3.680  10.545  17.531  0.00  0.00     0.117 A 
ATOM     16  C   UNL     1      -2.641  10.789  16.634  0.00  0.00     0.046 A 
ATOM     17  C   UNL     1      -2.785  10.450  15.288  0.00  0.00     0.015 A 
BRANCH  15  18
ATOM     18  O   UNL     1      -3.539  10.876  18.843  0.00  0.00    -0.507 OA
ATOM     19  H   UNL     1      -3.958  11.740  18.996  0.00  0.00     0.292 HD
ENDBRANCH  15  18
ENDBRANCH   2  12
BRANCH   6  20
ATOM     20  O   UNL     1      -4.561   8.878   8.402  0.00  0.00    -0.506 OA
ATOM     21  H   UNL     1      -3.638   8.923   8.107  0.00  0.00     0.292 HD
ENDBRANCH   6  20
BRANCH   8  22
ATOM     22  O   UNL     1      -5.403   4.582  10.246  0.00  0.00    -0.507 OA
ATOM     23  H   UNL     1      -6.293   4.513   9.859  0.00  0.00     0.292 HD
ENDBRANCH   8  22
TORSDOF 4
ENDMDL
MODEL 8
REMARK VINA RESULT:      -3.4      2.857      5.449
REMARK  4 active torsions:
REMARK  status: ('A' for Active; 'I' for Inactive)
REMARK    1  A    between atoms: C_2  and  C_12 
REMARK    2  A    between atoms: C_6  and  O_22 
REMARK    3  A    between atoms: C_8  and  O_20 
REMARK    4  A    between atoms: C_15  and  O_18 
ROOT
ATOM      1  O   UNL     1      -4.712  11.166  10.220  0.00  0.00    -0.454 OA
ATOM      2  C   UNL     1      -4.317  10.409   9.127  0.00  0.00     0.139 A 
ATOM      3  C   UNL     1      -3.806  10.923   7.996  0.00  0.00     0.098 A 
ATOM      4  C   UNL     1      -3.655  12.387   7.869  0.00  0.00     0.197 A 
ATOM      5  C   UNL     1      -4.085  13.186   9.027  0.00  0.00     0.105 A 
ATOM      6  C   UNL     1      -3.985  14.579   9.009  0.00  0.00     0.135 A 
ATOM      7  C   UNL     1      -4.399  15.313  10.121  0.00  0.00     0.091 A 
ATOM      8  C   UNL     1      -4.908  14.657  11.244  0.00  0.00     0.124 A 
ATOM      9  C   UNL     1      -5.005  13.266  11.258  0.00  0.00     0.092 A 
ATOM     10  O   UNL     1      -3.198  12.895   6.856  0.00  0.00    -0.287 OA
ATOM     11  C   UNL     1      -4.593  12.531  10.146  0.00  0.00     0.146 A 
ENDROOT
BRANCH   2  12
ATOM     12  C   UNL     1      -4.483   8.954   9.314  0.00  0.00     0.018 A 
ATOM     13  C   UNL     1      -4.104   8.068   8.303  0.00  0.00     0.015 A 
ATOM     14  C   UNL     1      -4.262   6.694   8.480  0.00  0.00     0.046 A 
ATOM     15  C   UNL     1      -4.799   6.200   9.669  0.00  0.00     0.117 A 
ATOM     16  C   UNL     1      -5.179   7.082  10.681  0.00  0.00     0.046 A 
ATOM     17  C   UNL     1      -5.021   8.457  10.504  0.00  0.00     0.015 A 
BRANCH  15  18
ATOM     18  O   UNL     1      -4.953   4.859   9.841  0.00  0.00    -0.507 OA
ATOM     19  H   UNL     1      -5.780   4.698  10.328  0.00  0.00     0.292 HD
ENDBRANCH  15  18
ENDBRANCH   2  12
BRANCH   6  20
ATOM     20  O   UNL     1      -3.496  15.267   7.939  0.00  0.00    -0.506 OA
ATOM     21  H   UNL     1      -2.753  15.830   8.208  0.00  0.00     0.292 HD
ENDBRANCH   6  20
BRANCH   8  22
ATOM     22  O   UNL     1      -5.309  15.378  12.328  0.00  0.00    -0.507 OA
ATOM     23  H   UNL     1      -4.543  15.856  12.690  0.00  0.00     0.292 HD
ENDBRANCH   8  22
TORSDOF 4
ENDMDL
MODEL 9
REMARK VINA RESULT:      -3.4      3.341      7.063
REMARK  4 active torsions:
REMARK  status: ('A' for Active; 'I' for Inactive)
REMARK    1  A    between atoms: C_2  and  C_12 
REMARK    2  A    between atoms: C_6  and  O_22 
REMARK    3  A    between atoms: C_8  and  O_20 
REMARK    4  A    between atoms: C_15  and  O_18 
ROOT
ATOM      1  O   UNL     1      -4.461  12.189  11.716  0.00  0.00    -0.454 OA
ATOM      2  C   UNL     1      -4.312  10.951  11.108  0.00  0.00     0.139 A 
ATOM      3  C   UNL     1      -4.239  10.765   9.780  0.00  0.00     0.098 A 
ATOM      4  C   UNL     1      -4.335  11.931   8.878  0.00  0.00     0.197 A 
ATOM      5  C   UNL     1      -4.503  13.241   9.527  0.00  0.00     0.105 A 
ATOM      6  C   UNL     1      -4.606  14.407   8.765  0.00  0.00     0.135 A 
ATOM      7  C   UNL     1      -4.764  15.636   9.406  0.00  0.00     0.091 A 
ATOM      8  C   UNL     1      -4.817  15.698  10.800  0.00  0.00     0.124 A 
ATOM      9  C   UNL     1      -4.714  14.531  11.557  0.00  0.00     0.092 A 
ATOM     10  O   UNL     1      -4.277  11.805   7.664  0.00  0.00    -0.287 OA
ATOM     11  C   UNL     1      -4.557  13.301  10.918  0.00  0.00     0.146 A 
ENDROOT
BRANCH   2  12
ATOM     12  C   UNL     1      -4.213   9.825  12.058  0.00  0.00     0.018 A 
ATOM     13  C   UNL     1      -4.054  10.071  13.423  0.00  0.00     0.015 A 
ATOM     14  C   UNL     1      -3.960   9.006  14.320  0.00  0.00     0.046 A 
ATOM     15  C   UNL     1      -4.024   7.693  13.854  0.00  0.00     0.117 A 
ATOM     16  C   UNL     1      -4.181   7.445  12.491  0.00  0.00     0.046 A 
ATOM     17  C   UNL     1      -4.276   8.508  11.593  0.00  0.00     0.015 A 
BRANCH  15  18
ATOM     18  O   UNL     1      -3.931   6.656  14.729  0.00  0.00    -0.507 OA
ATOM     19  H   UNL     1      -4.020   6.999  15.635  0.00  0.00     0.292 HD
ENDBRANCH  15  18
ENDBRANCH   2  12
BRANCH   6  20
ATOM     20  O   UNL     1      -4.558  14.401   7.403  0.00  0.00    -0.506 OA
ATOM     21  H   UNL     1      -3.737  13.988   7.094  0.00  0.00     0.292 HD
ENDBRANCH   6  20
BRANCH   8  22
ATOM     22  O   UNL     1      -4.971  16.900  11.421  0.00  0.00    -0.507 OA
ATOM     23  H   UNL     1      -5.871  16.955  11.785  0.00  0.00     0.292 HD
ENDBRANCH   8  22
TORSDOF 4
ENDMDL
MODEL 10
REMARK VINA RESULT:      -3.4      3.819      6.016
REMARK  4 active torsions:
REMARK  status: ('A' for Active; 'I' for Inactive)
REMARK    1  A    between atoms: C_2  and  C_12 
REMARK    2  A    between atoms: C_6  and  O_22 
REMARK    3  A    between atoms: C_8  and  O_20 
REMARK    4  A    between atoms: C_15  and  O_18 
ROOT
ATOM      1  O   UNL     1      -4.850  10.027  10.187  0.00  0.00    -0.454 OA
ATOM      2  C   UNL     1      -4.478  11.000  11.103  0.00  0.00     0.139 A 
ATOM      3  C   UNL     1      -4.088  10.742  12.362  0.00  0.00     0.098 A 
ATOM      4  C   UNL     1      -4.055   9.345  12.839  0.00  0.00     0.197 A 
ATOM      5  C   UNL     1      -4.459   8.317  11.867  0.00  0.00     0.105 A 
ATOM      6  C   UNL     1      -4.464   6.965  12.217  0.00  0.00     0.135 A 
ATOM      7  C   UNL     1      -4.851   6.012  11.275  0.00  0.00     0.091 A 
ATOM      8  C   UNL     1      -5.229   6.408   9.990  0.00  0.00     0.124 A 
ATOM      9  C   UNL     1      -5.223   7.760   9.645  0.00  0.00     0.092 A 
ATOM     10  O   UNL     1      -3.709   9.068  13.978  0.00  0.00    -0.287 OA
ATOM     11  C   UNL     1      -4.837   8.714  10.586  0.00  0.00     0.146 A 
ENDROOT
BRANCH   2  12
ATOM     12  C   UNL     1      -4.523  12.375  10.569  0.00  0.00     0.018 A 
ATOM     13  C   UNL     1      -4.528  12.592   9.189  0.00  0.00     0.015 A 
ATOM     14  C   UNL     1      -4.569  13.892   8.685  0.00  0.00     0.046 A 
ATOM     15  C   UNL     1      -4.605  14.979   9.559  0.00  0.00     0.117 A 
ATOM     16  C   UNL     1      -4.599  14.766  10.937  0.00  0.00     0.046 A 
ATOM     17  C   UNL     1      -4.559  13.466  11.442  0.00  0.00     0.015 A 
BRANCH  15  18
ATOM     18  O   UNL     1      -4.644  16.247   9.066  0.00  0.00    -0.507 OA
ATOM     19  H   UNL     1      -4.393  16.227   8.126  0.00  0.00     0.292 HD
ENDBRANCH  15  18
ENDBRANCH   2  12
BRANCH   6  20
ATOM     20  O   UNL     1      -4.103   6.526  13.455  0.00  0.00    -0.506 OA
ATOM     21  H   UNL     1      -4.314   5.585  13.557  0.00  0.00     0.292 HD
ENDBRANCH   6  20
BRANCH   8  22
ATOM     22  O   UNL     1      -5.605   5.474   9.074  0.00  0.00    -0.507 OA
ATOM     23  H   UNL     1      -6.152   4.801   9.516  0.00  0.00     0.292 HD
ENDBRANCH   8  22
TORSDOF 4
ENDMDL
