MODEL 1
REMARK VINA RESULT:    -8.992      0.000      0.000
REMARK INTER + INTRA:         -10.895
REMARK INTER:                 -10.539
REMARK INTRA:                  -0.356
REMARK UNBOUND:                 0.200
REMARK  Name = 5281672
REMARK  7 active torsions:
REMARK  status: ('A' for Active; 'I' for Inactive)
REMARK    1  A    between atoms: O_2  and  C_13
REMARK    2  A    between atoms: O_3  and  C_15
REMARK    3  A    between atoms: O_5  and  C_19
REMARK    4  A    between atoms: O_6  and  C_21
REMARK    5  A    between atoms: O_7  and  C_22
REMARK    6  A    between atoms: O_8  and  C_23
REMARK    7  A    between atoms: C_10  and  C_12
REMARK                            x       y       z     vdW  Elec       q    Type
REMARK                         _______ _______ _______ _____ _____    ______ ____
ROOT
ATOM      1  O   UNL     1      85.173  13.333  30.666  0.00  0.00    +0.000 OA
ATOM      2  O   UNL     1      87.239  10.917  28.116  0.00  0.00    +0.000 OA
ATOM      3  C   UNL     1      87.007  11.786  30.296  0.00  0.00    +0.000 A 
ATOM      4  C   UNL     1      84.794  13.187  29.340  0.00  0.00    +0.000 A 
ATOM      5  C   UNL     1      86.261  12.630  31.116  0.00  0.00    +0.000 A 
ATOM      6  C   UNL     1      85.434  12.414  28.444  0.00  0.00    +0.000 A 
ATOM      7  C   UNL     1      86.619  11.638  28.885  0.00  0.00    +0.000 A 
ATOM      8  C   UNL     1      88.107  11.095  30.810  0.00  0.00    +0.000 A 
ATOM      9  C   UNL     1      86.611  12.789  32.456  0.00  0.00    +0.000 A 
ATOM     10  C   UNL     1      87.708  12.101  32.974  0.00  0.00    +0.000 A 
ATOM     11  C   UNL     1      88.455  11.256  32.151  0.00  0.00    +0.000 A 
ENDROOT
BRANCH   4  12
ATOM     12  C   UNL     1      83.613  13.996  28.988  0.00  0.00    +0.000 A 
ATOM     13  C   UNL     1      83.777  15.255  28.411  0.00  0.00    +0.000 A 
ATOM     14  C   UNL     1      82.332  13.503  29.232  0.00  0.00    +0.000 A 
ATOM     15  C   UNL     1      81.215  14.269  28.899  0.00  0.00    +0.000 A 
ATOM     16  C   UNL     1      82.660  16.021  28.076  0.00  0.00    +0.000 A 
ATOM     17  C   UNL     1      81.378  15.527  28.320  0.00  0.00    +0.000 A 
BRANCH  15  18
ATOM     18  O   UNL     1      79.967  13.776  29.141  0.00  0.00    +0.000 OA
ATOM     19  H   UNL     1      79.871  13.646  30.100  0.00  0.00    +0.000 HD
ENDBRANCH  15  18
BRANCH  16  20
ATOM     20  O   UNL     1      82.835  17.249  27.512  0.00  0.00    +0.000 OA
ATOM     21  H   UNL     1      83.774  17.493  27.548  0.00  0.00    +0.000 HD
ENDBRANCH  16  20
BRANCH  17  22
ATOM     22  O   UNL     1      80.286  16.275  27.992  0.00  0.00    +0.000 OA
ATOM     23  H   UNL     1      79.950  16.727  28.783  0.00  0.00    +0.000 HD
ENDBRANCH  17  22
ENDBRANCH   4  12
BRANCH   6  24
ATOM     24  O   UNL     1      85.050  12.317  27.124  0.00  0.00    +0.000 OA
ATOM     25  H   UNL     1      84.646  11.450  26.961  0.00  0.00    +0.000 HD
ENDBRANCH   6  24
BRANCH   8  26
ATOM     26  O   UNL     1      88.870  10.260  30.051  0.00  0.00    +0.000 OA
ATOM     27  H   UNL     1      88.590   9.340  30.172  0.00  0.00    +0.000 HD
ENDBRANCH   8  26
BRANCH  10  28
ATOM     28  O   UNL     1      88.051  12.254  34.283  0.00  0.00    +0.000 OA
ATOM     29  H   UNL     1      87.303  11.974  34.838  0.00  0.00    +0.000 HD
ENDBRANCH  10  28
TORSDOF 7
ENDMDL
MODEL 2
REMARK VINA RESULT:    -8.975      1.765      7.103
REMARK INTER + INTRA:         -10.873
REMARK INTER:                 -10.544
REMARK INTRA:                  -0.330
REMARK UNBOUND:                 0.200
REMARK  Name = 5281672
REMARK  7 active torsions:
REMARK  status: ('A' for Active; 'I' for Inactive)
REMARK    1  A    between atoms: O_2  and  C_13
REMARK    2  A    between atoms: O_3  and  C_15
REMARK    3  A    between atoms: O_5  and  C_19
REMARK    4  A    between atoms: O_6  and  C_21
REMARK    5  A    between atoms: O_7  and  C_22
REMARK    6  A    between atoms: O_8  and  C_23
REMARK    7  A    between atoms: C_10  and  C_12
REMARK                            x       y       z     vdW  Elec       q    Type
REMARK                         _______ _______ _______ _____ _____    ______ ____
ROOT
ATOM      1  O   UNL     1      84.109  14.314  28.557  0.00  0.00    +0.000 OA
ATOM      2  O   UNL     1      80.478  12.893  29.742  0.00  0.00    +0.000 OA
ATOM      3  C   UNL     1      81.750  14.719  28.960  0.00  0.00    +0.000 A 
ATOM      4  C   UNL     1      83.939  12.992  28.940  0.00  0.00    +0.000 A 
ATOM      5  C   UNL     1      83.017  15.143  28.568  0.00  0.00    +0.000 A 
ATOM      6  C   UNL     1      82.773  12.460  29.349  0.00  0.00    +0.000 A 
ATOM      7  C   UNL     1      81.565  13.322  29.382  0.00  0.00    +0.000 A 
ATOM      8  C   UNL     1      80.674  15.610  28.953  0.00  0.00    +0.000 A 
ATOM      9  C   UNL     1      83.217  16.464  28.167  0.00  0.00    +0.000 A 
ATOM     10  C   UNL     1      82.146  17.357  28.158  0.00  0.00    +0.000 A 
ATOM     11  C   UNL     1      80.877  16.930  28.551  0.00  0.00    +0.000 A 
ENDROOT
BRANCH   4  12
ATOM     12  C   UNL     1      85.188  12.213  28.882  0.00  0.00    +0.000 A 
ATOM     13  C   UNL     1      85.911  11.965  30.049  0.00  0.00    +0.000 A 
ATOM     14  C   UNL     1      85.648  11.721  27.660  0.00  0.00    +0.000 A 
ATOM     15  C   UNL     1      86.830  10.983  27.606  0.00  0.00    +0.000 A 
ATOM     16  C   UNL     1      87.093  11.226  29.994  0.00  0.00    +0.000 A 
ATOM     17  C   UNL     1      87.553  10.734  28.772  0.00  0.00    +0.000 A 
BRANCH  15  18
ATOM     18  O   UNL     1      87.268  10.507  26.406  0.00  0.00    +0.000 OA
ATOM     19  H   UNL     1      87.548   9.584  26.527  0.00  0.00    +0.000 HD
ENDBRANCH  15  18
BRANCH  16  20
ATOM     20  O   UNL     1      87.789  10.992  31.142  0.00  0.00    +0.000 OA
ATOM     21  H   UNL     1      87.963  10.041  31.230  0.00  0.00    +0.000 HD
ENDBRANCH  16  20
BRANCH  17  22
ATOM     22  O   UNL     1      88.707  10.011  28.719  0.00  0.00    +0.000 OA
ATOM     23  H   UNL     1      88.826   9.650  27.826  0.00  0.00    +0.000 HD
ENDBRANCH  17  22
ENDBRANCH   4  12
BRANCH   6  24
ATOM     24  O   UNL     1      82.645  11.150  29.755  0.00  0.00    +0.000 OA
ATOM     25  H   UNL     1      83.151  10.570  29.164  0.00  0.00    +0.000 HD
ENDBRANCH   6  24
BRANCH   8  26
ATOM     26  O   UNL     1      79.415  15.246  29.328  0.00  0.00    +0.000 OA
ATOM     27  H   UNL     1      78.966  15.982  29.771  0.00  0.00    +0.000 HD
ENDBRANCH   8  26
BRANCH  10  28
ATOM     28  O   UNL     1      82.339  18.646  27.765  0.00  0.00    +0.000 OA
ATOM     29  H   UNL     1      81.626  19.197  28.133  0.00  0.00    +0.000 HD
ENDBRANCH  10  28
TORSDOF 7
ENDMDL
MODEL 3
REMARK VINA RESULT:    -8.971      0.104      1.738
REMARK INTER + INTRA:         -10.869
REMARK INTER:                 -10.512
REMARK INTRA:                  -0.357
REMARK UNBOUND:                 0.200
REMARK  Name = 5281672
REMARK  7 active torsions:
REMARK  status: ('A' for Active; 'I' for Inactive)
REMARK    1  A    between atoms: O_2  and  C_13
REMARK    2  A    between atoms: O_3  and  C_15
REMARK    3  A    between atoms: O_5  and  C_19
REMARK    4  A    between atoms: O_6  and  C_21
REMARK    5  A    between atoms: O_7  and  C_22
REMARK    6  A    between atoms: O_8  and  C_23
REMARK    7  A    between atoms: C_10  and  C_12
REMARK                            x       y       z     vdW  Elec       q    Type
REMARK                         _______ _______ _______ _____ _____    ______ ____
ROOT
ATOM      1  O   UNL     1      85.207  13.314  30.580  0.00  0.00    +0.000 OA
ATOM      2  O   UNL     1      87.232  10.912  27.984  0.00  0.00    +0.000 OA
ATOM      3  C   UNL     1      87.032  11.766  30.173  0.00  0.00    +0.000 A 
ATOM      4  C   UNL     1      84.810  13.179  29.258  0.00  0.00    +0.000 A 
ATOM      5  C   UNL     1      86.300  12.605  31.009  0.00  0.00    +0.000 A 
ATOM      6  C   UNL     1      85.435  12.410  28.349  0.00  0.00    +0.000 A 
ATOM      7  C   UNL     1      86.624  11.629  28.766  0.00  0.00    +0.000 A 
ATOM      8  C   UNL     1      88.138  11.069  30.666  0.00  0.00    +0.000 A 
ATOM      9  C   UNL     1      86.669  12.753  32.346  0.00  0.00    +0.000 A 
ATOM     10  C   UNL     1      87.772  12.059  32.843  0.00  0.00    +0.000 A 
ATOM     11  C   UNL     1      88.505  11.219  32.004  0.00  0.00    +0.000 A 
ENDROOT
BRANCH   4  12
ATOM     12  C   UNL     1      83.626  13.993  28.929  0.00  0.00    +0.000 A 
ATOM     13  C   UNL     1      82.347  13.499  29.183  0.00  0.00    +0.000 A 
ATOM     14  C   UNL     1      83.784  15.259  28.365  0.00  0.00    +0.000 A 
ATOM     15  C   UNL     1      82.664  16.029  28.054  0.00  0.00    +0.000 A 
ATOM     16  C   UNL     1      81.226  14.270  28.874  0.00  0.00    +0.000 A 
ATOM     17  C   UNL     1      81.385  15.535  28.309  0.00  0.00    +0.000 A 
BRANCH  15  18
ATOM     18  O   UNL     1      82.832  17.265  27.504  0.00  0.00    +0.000 OA
ATOM     19  H   UNL     1      83.709  17.296  27.085  0.00  0.00    +0.000 HD
ENDBRANCH  15  18
BRANCH  16  20
ATOM     20  O   UNL     1      79.983  13.774  29.128  0.00  0.00    +0.000 OA
ATOM     21  H   UNL     1      79.311  14.396  28.804  0.00  0.00    +0.000 HD
ENDBRANCH  16  20
BRANCH  17  22
ATOM     22  O   UNL     1      80.289  16.289  28.007  0.00  0.00    +0.000 OA
ATOM     23  H   UNL     1      79.511  15.933  28.465  0.00  0.00    +0.000 HD
ENDBRANCH  17  22
ENDBRANCH   4  12
BRANCH   6  24
ATOM     24  O   UNL     1      85.032  12.324  27.033  0.00  0.00    +0.000 OA
ATOM     25  H   UNL     1      85.764  12.000  26.484  0.00  0.00    +0.000 HD
ENDBRANCH   6  24
BRANCH   8  26
ATOM     26  O   UNL     1      88.888  10.237  29.891  0.00  0.00    +0.000 OA
ATOM     27  H   UNL     1      88.961  10.585  28.990  0.00  0.00    +0.000 HD
ENDBRANCH   8  26
BRANCH  10  28
ATOM     28  O   UNL     1      88.134  12.201  34.148  0.00  0.00    +0.000 OA
ATOM     29  H   UNL     1      87.891  13.095  34.446  0.00  0.00    +0.000 HD
ENDBRANCH  10  28
TORSDOF 7
ENDMDL
MODEL 4
REMARK VINA RESULT:    -8.965      1.788      7.057
REMARK INTER + INTRA:         -10.862
REMARK INTER:                 -10.536
REMARK INTRA:                  -0.326
REMARK UNBOUND:                 0.200
REMARK  Name = 5281672
REMARK  7 active torsions:
REMARK  status: ('A' for Active; 'I' for Inactive)
REMARK    1  A    between atoms: O_2  and  C_13
REMARK    2  A    between atoms: O_3  and  C_15
REMARK    3  A    between atoms: O_5  and  C_19
REMARK    4  A    between atoms: O_6  and  C_21
REMARK    5  A    between atoms: O_7  and  C_22
REMARK    6  A    between atoms: O_8  and  C_23
REMARK    7  A    between atoms: C_10  and  C_12
REMARK                            x       y       z     vdW  Elec       q    Type
REMARK                         _______ _______ _______ _____ _____    ______ ____
ROOT
ATOM      1  O   UNL     1      84.094  14.309  28.549  0.00  0.00    +0.000 OA
ATOM      2  O   UNL     1      80.472  12.882  29.754  0.00  0.00    +0.000 OA
ATOM      3  C   UNL     1      81.738  14.712  28.972  0.00  0.00    +0.000 A 
ATOM      4  C   UNL     1      83.927  12.986  28.928  0.00  0.00    +0.000 A 
ATOM      5  C   UNL     1      83.002  15.139  28.573  0.00  0.00    +0.000 A 
ATOM      6  C   UNL     1      82.764  12.452  29.342  0.00  0.00    +0.000 A 
ATOM      7  C   UNL     1      81.556  13.313  29.388  0.00  0.00    +0.000 A 
ATOM      8  C   UNL     1      80.661  15.602  28.977  0.00  0.00    +0.000 A 
ATOM      9  C   UNL     1      83.199  16.461  28.176  0.00  0.00    +0.000 A 
ATOM     10  C   UNL     1      82.127  17.354  28.179  0.00  0.00    +0.000 A 
ATOM     11  C   UNL     1      80.861  16.925  28.579  0.00  0.00    +0.000 A 
ENDROOT
BRANCH   4  12
ATOM     12  C   UNL     1      85.176  12.207  28.857  0.00  0.00    +0.000 A 
ATOM     13  C   UNL     1      85.633  11.732  27.628  0.00  0.00    +0.000 A 
ATOM     14  C   UNL     1      85.902  11.945  30.019  0.00  0.00    +0.000 A 
ATOM     15  C   UNL     1      87.085  11.208  29.951  0.00  0.00    +0.000 A 
ATOM     16  C   UNL     1      86.816  10.996  27.560  0.00  0.00    +0.000 A 
ATOM     17  C   UNL     1      87.542  10.734  28.722  0.00  0.00    +0.000 A 
BRANCH  15  18
ATOM     18  O   UNL     1      87.786  10.960  31.093  0.00  0.00    +0.000 OA
ATOM     19  H   UNL     1      88.492  11.623  31.169  0.00  0.00    +0.000 HD
ENDBRANCH  15  18
BRANCH  16  20
ATOM     20  O   UNL     1      87.250  10.539  26.352  0.00  0.00    +0.000 OA
ATOM     21  H   UNL     1      86.640  10.828  25.655  0.00  0.00    +0.000 HD
ENDBRANCH  16  20
BRANCH  17  22
ATOM     22  O   UNL     1      88.699  10.015  28.655  0.00  0.00    +0.000 OA
ATOM     23  H   UNL     1      89.364  10.411  29.242  0.00  0.00    +0.000 HD
ENDBRANCH  17  22
ENDBRANCH   4  12
BRANCH   6  24
ATOM     24  O   UNL     1      82.639  11.139  29.743  0.00  0.00    +0.000 OA
ATOM     25  H   UNL     1      83.193  10.570  29.186  0.00  0.00    +0.000 HD
ENDBRANCH   6  24
BRANCH   8  26
ATOM     26  O   UNL     1      79.406  15.237  29.358  0.00  0.00    +0.000 OA
ATOM     27  H   UNL     1      79.112  14.460  28.860  0.00  0.00    +0.000 HD
ENDBRANCH   8  26
BRANCH  10  28
ATOM     28  O   UNL     1      82.317  18.645  27.791  0.00  0.00    +0.000 OA
ATOM     29  H   UNL     1      83.094  18.688  27.208  0.00  0.00    +0.000 HD
ENDBRANCH  10  28
TORSDOF 7
ENDMDL
MODEL 5
REMARK VINA RESULT:    -8.768      8.320     12.806
REMARK INTER + INTRA:         -10.619
REMARK INTER:                 -10.344
REMARK INTRA:                  -0.275
REMARK UNBOUND:                 0.200
REMARK  Name = 5281672
REMARK  7 active torsions:
REMARK  status: ('A' for Active; 'I' for Inactive)
REMARK    1  A    between atoms: O_2  and  C_13
REMARK    2  A    between atoms: O_3  and  C_15
REMARK    3  A    between atoms: O_5  and  C_19
REMARK    4  A    between atoms: O_6  and  C_21
REMARK    5  A    between atoms: O_7  and  C_22
REMARK    6  A    between atoms: O_8  and  C_23
REMARK    7  A    between atoms: C_10  and  C_12
REMARK                            x       y       z     vdW  Elec       q    Type
REMARK                         _______ _______ _______ _____ _____    ______ ____
ROOT
ATOM      1  O   UNL     1      91.427  14.575  38.495  0.00  0.00    +0.000 OA
ATOM      2  O   UNL     1      88.586  11.679  38.103  0.00  0.00    +0.000 OA
ATOM      3  C   UNL     1      90.167  13.081  37.055  0.00  0.00    +0.000 A 
ATOM      4  C   UNL     1      90.756  14.065  39.596  0.00  0.00    +0.000 A 
ATOM      5  C   UNL     1      91.125  14.072  37.256  0.00  0.00    +0.000 A 
ATOM      6  C   UNL     1      89.804  13.116  39.538  0.00  0.00    +0.000 A 
ATOM      7  C   UNL     1      89.442  12.545  38.217  0.00  0.00    +0.000 A 
ATOM      8  C   UNL     1      89.901  12.607  35.768  0.00  0.00    +0.000 A 
ATOM      9  C   UNL     1      91.824  14.596  36.169  0.00  0.00    +0.000 A 
ATOM     10  C   UNL     1      91.562  14.127  34.882  0.00  0.00    +0.000 A 
ATOM     11  C   UNL     1      90.602  13.134  34.683  0.00  0.00    +0.000 A 
ENDROOT
BRANCH   4  12
ATOM     12  C   UNL     1      91.174  14.691  40.863  0.00  0.00    +0.000 A 
ATOM     13  C   UNL     1      92.423  14.396  41.408  0.00  0.00    +0.000 A 
ATOM     14  C   UNL     1      90.321  15.580  41.518  0.00  0.00    +0.000 A 
ATOM     15  C   UNL     1      90.718  16.172  42.716  0.00  0.00    +0.000 A 
ATOM     16  C   UNL     1      92.821  14.989  42.606  0.00  0.00    +0.000 A 
ATOM     17  C   UNL     1      91.967  15.878  43.261  0.00  0.00    +0.000 A 
BRANCH  15  18
ATOM     18  O   UNL     1      89.875  17.040  43.346  0.00  0.00    +0.000 OA
ATOM     19  H   UNL     1      89.548  17.679  42.690  0.00  0.00    +0.000 HD
ENDBRANCH  15  18
BRANCH  16  20
ATOM     20  O   UNL     1      94.044  14.692  43.127  0.00  0.00    +0.000 OA
ATOM     21  H   UNL     1      94.704  14.664  42.415  0.00  0.00    +0.000 HD
ENDBRANCH  16  20
BRANCH  17  22
ATOM     22  O   UNL     1      92.356  16.459  44.432  0.00  0.00    +0.000 OA
ATOM     23  H   UNL     1      93.059  15.929  44.842  0.00  0.00    +0.000 HD
ENDBRANCH  17  22
ENDBRANCH   4  12
BRANCH   6  24
ATOM     24  O   UNL     1      89.133  12.654  40.650  0.00  0.00    +0.000 OA
ATOM     25  H   UNL     1      89.552  12.998  41.454  0.00  0.00    +0.000 HD
ENDBRANCH   6  24
BRANCH   8  26
ATOM     26  O   UNL     1      88.974  11.640  35.517  0.00  0.00    +0.000 OA
ATOM     27  H   UNL     1      89.405  10.825  35.220  0.00  0.00    +0.000 HD
ENDBRANCH   8  26
BRANCH  10  28
ATOM     28  O   UNL     1      92.244  14.637  33.820  0.00  0.00    +0.000 OA
ATOM     29  H   UNL     1      93.146  14.274  33.821  0.00  0.00    +0.000 HD
ENDBRANCH  10  28
TORSDOF 7
ENDMDL
MODEL 6
REMARK VINA RESULT:    -8.763      8.347     12.850
REMARK INTER + INTRA:         -10.612
REMARK INTER:                 -10.319
REMARK INTRA:                  -0.293
REMARK UNBOUND:                 0.200
REMARK  Name = 5281672
REMARK  7 active torsions:
REMARK  status: ('A' for Active; 'I' for Inactive)
REMARK    1  A    between atoms: O_2  and  C_13
REMARK    2  A    between atoms: O_3  and  C_15
REMARK    3  A    between atoms: O_5  and  C_19
REMARK    4  A    between atoms: O_6  and  C_21
REMARK    5  A    between atoms: O_7  and  C_22
REMARK    6  A    between atoms: O_8  and  C_23
REMARK    7  A    between atoms: C_10  and  C_12
REMARK                            x       y       z     vdW  Elec       q    Type
REMARK                         _______ _______ _______ _____ _____    ______ ____
ROOT
ATOM      1  O   UNL     1      91.442  14.585  38.515  0.00  0.00    +0.000 OA
ATOM      2  O   UNL     1      88.601  11.688  38.141  0.00  0.00    +0.000 OA
ATOM      3  C   UNL     1      90.181  13.084  37.084  0.00  0.00    +0.000 A 
ATOM      4  C   UNL     1      90.773  14.081  39.620  0.00  0.00    +0.000 A 
ATOM      5  C   UNL     1      91.139  14.076  37.278  0.00  0.00    +0.000 A 
ATOM      6  C   UNL     1      89.822  13.131  39.567  0.00  0.00    +0.000 A 
ATOM      7  C   UNL     1      89.457  12.554  38.250  0.00  0.00    +0.000 A 
ATOM      8  C   UNL     1      89.913  12.604  35.800  0.00  0.00    +0.000 A 
ATOM      9  C   UNL     1      91.836  14.596  36.188  0.00  0.00    +0.000 A 
ATOM     10  C   UNL     1      91.572  14.120  34.904  0.00  0.00    +0.000 A 
ATOM     11  C   UNL     1      90.611  13.126  34.711  0.00  0.00    +0.000 A 
ENDROOT
BRANCH   4  12
ATOM     12  C   UNL     1      91.194  14.713  40.883  0.00  0.00    +0.000 A 
ATOM     13  C   UNL     1      90.360  15.637  41.512  0.00  0.00    +0.000 A 
ATOM     14  C   UNL     1      92.425  14.387  41.451  0.00  0.00    +0.000 A 
ATOM     15  C   UNL     1      92.822  14.985  42.647  0.00  0.00    +0.000 A 
ATOM     16  C   UNL     1      90.756  16.235  42.708  0.00  0.00    +0.000 A 
ATOM     17  C   UNL     1      91.987  15.909  43.276  0.00  0.00    +0.000 A 
BRANCH  15  18
ATOM     18  O   UNL     1      94.027  14.657  43.193  0.00  0.00    +0.000 OA
ATOM     19  H   UNL     1      94.637  15.402  43.058  0.00  0.00    +0.000 HD
ENDBRANCH  15  18
BRANCH  16  20
ATOM     20  O   UNL     1      89.931  17.136  43.311  0.00  0.00    +0.000 OA
ATOM     21  H   UNL     1      89.949  17.003  44.273  0.00  0.00    +0.000 HD
ENDBRANCH  16  20
BRANCH  17  22
ATOM     22  O   UNL     1      92.374  16.492  44.446  0.00  0.00    +0.000 OA
ATOM     23  H   UNL     1      91.708  17.141  44.724  0.00  0.00    +0.000 HD
ENDBRANCH  17  22
ENDBRANCH   4  12
BRANCH   6  24
ATOM     24  O   UNL     1      89.153  12.675  40.682  0.00  0.00    +0.000 OA
ATOM     25  H   UNL     1      89.693  12.821  41.475  0.00  0.00    +0.000 HD
ENDBRANCH   6  24
BRANCH   8  26
ATOM     26  O   UNL     1      88.985  11.636  35.555  0.00  0.00    +0.000 OA
ATOM     27  H   UNL     1      89.361  10.758  35.713  0.00  0.00    +0.000 HD
ENDBRANCH   8  26
BRANCH  10  28
ATOM     28  O   UNL     1      92.252  14.625  33.838  0.00  0.00    +0.000 OA
ATOM     29  H   UNL     1      93.124  14.934  34.139  0.00  0.00    +0.000 HD
ENDBRANCH  10  28
TORSDOF 7
ENDMDL
MODEL 7
REMARK VINA RESULT:    -8.687      1.801      3.341
REMARK INTER + INTRA:         -10.518
REMARK INTER:                 -10.417
REMARK INTRA:                  -0.101
REMARK UNBOUND:                 0.200
REMARK  Name = 5281672
REMARK  7 active torsions:
REMARK  status: ('A' for Active; 'I' for Inactive)
REMARK    1  A    between atoms: O_2  and  C_13
REMARK    2  A    between atoms: O_3  and  C_15
REMARK    3  A    between atoms: O_5  and  C_19
REMARK    4  A    between atoms: O_6  and  C_21
REMARK    5  A    between atoms: O_7  and  C_22
REMARK    6  A    between atoms: O_8  and  C_23
REMARK    7  A    between atoms: C_10  and  C_12
REMARK                            x       y       z     vdW  Elec       q    Type
REMARK                         _______ _______ _______ _____ _____    ______ ____
ROOT
ATOM      1  O   UNL     1      84.632  13.073  27.898  0.00  0.00    +0.000 OA
ATOM      2  O   UNL     1      85.678  11.470  31.496  0.00  0.00    +0.000 OA
ATOM      3  C   UNL     1      85.998  11.512  29.159  0.00  0.00    +0.000 A 
ATOM      4  C   UNL     1      84.046  13.501  29.080  0.00  0.00    +0.000 A 
ATOM      5  C   UNL     1      85.594  12.098  27.962  0.00  0.00    +0.000 A 
ATOM      6  C   UNL     1      84.338  13.011  30.298  0.00  0.00    +0.000 A 
ATOM      7  C   UNL     1      85.370  11.951  30.415  0.00  0.00    +0.000 A 
ATOM      8  C   UNL     1      86.983  10.522  29.163  0.00  0.00    +0.000 A 
ATOM      9  C   UNL     1      86.174  11.696  26.759  0.00  0.00    +0.000 A 
ATOM     10  C   UNL     1      87.158  10.708  26.758  0.00  0.00    +0.000 A 
ATOM     11  C   UNL     1      87.561  10.122  27.958  0.00  0.00    +0.000 A 
ENDROOT
BRANCH   4  12
ATOM     12  C   UNL     1      83.031  14.549  28.869  0.00  0.00    +0.000 A 
ATOM     13  C   UNL     1      83.376  15.734  28.221  0.00  0.00    +0.000 A 
ATOM     14  C   UNL     1      81.724  14.355  29.318  0.00  0.00    +0.000 A 
ATOM     15  C   UNL     1      80.764  15.347  29.118  0.00  0.00    +0.000 A 
ATOM     16  C   UNL     1      82.416  16.726  28.020  0.00  0.00    +0.000 A 
ATOM     17  C   UNL     1      81.109  16.532  28.469  0.00  0.00    +0.000 A 
BRANCH  15  18
ATOM     18  O   UNL     1      79.491  15.146  29.560  0.00  0.00    +0.000 OA
ATOM     19  H   UNL     1      79.096  16.012  29.760  0.00  0.00    +0.000 HD
ENDBRANCH  15  18
BRANCH  16  20
ATOM     20  O   UNL     1      82.768  17.879  27.385  0.00  0.00    +0.000 OA
ATOM     21  H   UNL     1      83.703  17.837  27.126  0.00  0.00    +0.000 HD
ENDBRANCH  16  20
BRANCH  17  22
ATOM     22  O   UNL     1      80.171  17.501  28.272  0.00  0.00    +0.000 OA
ATOM     23  H   UNL     1      80.354  18.257  28.852  0.00  0.00    +0.000 HD
ENDBRANCH  17  22
ENDBRANCH   4  12
BRANCH   6  24
ATOM     24  O   UNL     1      83.712  13.436  31.449  0.00  0.00    +0.000 OA
ATOM     25  H   UNL     1      84.371  13.755  32.086  0.00  0.00    +0.000 HD
ENDBRANCH   6  24
BRANCH   8  26
ATOM     26  O   UNL     1      87.413   9.916  30.306  0.00  0.00    +0.000 OA
ATOM     27  H   UNL     1      87.099   9.000  30.344  0.00  0.00    +0.000 HD
ENDBRANCH   8  26
BRANCH  10  28
ATOM     28  O   UNL     1      87.726  10.314  25.584  0.00  0.00    +0.000 OA
ATOM     29  H   UNL     1      88.484   9.737  25.779  0.00  0.00    +0.000 HD
ENDBRANCH  10  28
TORSDOF 7
ENDMDL
MODEL 8
REMARK VINA RESULT:    -8.539      8.951     13.199
REMARK INTER + INTRA:         -10.336
REMARK INTER:                 -10.389
REMARK INTRA:                   0.054
REMARK UNBOUND:                 0.200
REMARK  Name = 5281672
REMARK  7 active torsions:
REMARK  status: ('A' for Active; 'I' for Inactive)
REMARK    1  A    between atoms: O_2  and  C_13
REMARK    2  A    between atoms: O_3  and  C_15
REMARK    3  A    between atoms: O_5  and  C_19
REMARK    4  A    between atoms: O_6  and  C_21
REMARK    5  A    between atoms: O_7  and  C_22
REMARK    6  A    between atoms: O_8  and  C_23
REMARK    7  A    between atoms: C_10  and  C_12
REMARK                            x       y       z     vdW  Elec       q    Type
REMARK                         _______ _______ _______ _____ _____    ______ ____
ROOT
ATOM      1  O   UNL     1      91.298  14.688  40.684  0.00  0.00    +0.000 OA
ATOM      2  O   UNL     1      95.251  14.209  41.551  0.00  0.00    +0.000 OA
ATOM      3  C   UNL     1      93.107  14.852  42.294  0.00  0.00    +0.000 A 
ATOM      4  C   UNL     1      92.192  14.202  39.742  0.00  0.00    +0.000 A 
ATOM      5  C   UNL     1      91.769  14.995  41.934  0.00  0.00    +0.000 A 
ATOM      6  C   UNL     1      93.508  14.026  39.959  0.00  0.00    +0.000 A 
ATOM      7  C   UNL     1      94.063  14.350  41.295  0.00  0.00    +0.000 A 
ATOM      8  C   UNL     1      93.530  15.182  43.584  0.00  0.00    +0.000 A 
ATOM      9  C   UNL     1      90.844  15.471  42.863  0.00  0.00    +0.000 A 
ATOM     10  C   UNL     1      91.262  15.803  44.152  0.00  0.00    +0.000 A 
ATOM     11  C   UNL     1      92.603  15.658  44.511  0.00  0.00    +0.000 A 
ENDROOT
BRANCH   4  12
ATOM     12  C   UNL     1      91.557  13.912  38.444  0.00  0.00    +0.000 A 
ATOM     13  C   UNL     1      90.342  13.229  38.399  0.00  0.00    +0.000 A 
ATOM     14  C   UNL     1      92.169  14.323  37.260  0.00  0.00    +0.000 A 
ATOM     15  C   UNL     1      91.567  14.049  36.032  0.00  0.00    +0.000 A 
ATOM     16  C   UNL     1      89.739  12.956  37.171  0.00  0.00    +0.000 A 
ATOM     17  C   UNL     1      90.352  13.366  35.987  0.00  0.00    +0.000 A 
BRANCH  15  18
ATOM     18  O   UNL     1      92.175  14.456  34.882  0.00  0.00    +0.000 OA
ATOM     19  H   UNL     1      91.674  15.207  34.520  0.00  0.00    +0.000 HD
ENDBRANCH  15  18
BRANCH  16  20
ATOM     20  O   UNL     1      88.553  12.287  37.142  0.00  0.00    +0.000 OA
ATOM     21  H   UNL     1      87.999  12.573  37.886  0.00  0.00    +0.000 HD
ENDBRANCH  16  20
BRANCH  17  22
ATOM     22  O   UNL     1      89.763  13.100  34.786  0.00  0.00    +0.000 OA
ATOM     23  H   UNL     1      89.312  12.241  34.827  0.00  0.00    +0.000 HD
ENDBRANCH  17  22
ENDBRANCH   4  12
BRANCH   6  24
ATOM     24  O   UNL     1      94.376  13.572  38.989  0.00  0.00    +0.000 OA
ATOM     25  H   UNL     1      93.920  12.944  38.406  0.00  0.00    +0.000 HD
ENDBRANCH   6  24
BRANCH   8  26
ATOM     26  O   UNL     1      94.826  15.062  43.986  0.00  0.00    +0.000 OA
ATOM     27  H   UNL     1      95.414  15.547  43.389  0.00  0.00    +0.000 HD
ENDBRANCH   8  26
BRANCH  10  28
ATOM     28  O   UNL     1      90.360  16.267  45.061  0.00  0.00    +0.000 OA
ATOM     29  H   UNL     1      90.841  16.679  45.799  0.00  0.00    +0.000 HD
ENDBRANCH  10  28
TORSDOF 7
ENDMDL
MODEL 9
REMARK VINA RESULT:    -8.508      8.929     13.069
REMARK INTER + INTRA:         -10.297
REMARK INTER:                 -10.363
REMARK INTRA:                   0.066
REMARK UNBOUND:                 0.200
REMARK  Name = 5281672
REMARK  7 active torsions:
REMARK  status: ('A' for Active; 'I' for Inactive)
REMARK    1  A    between atoms: O_2  and  C_13
REMARK    2  A    between atoms: O_3  and  C_15
REMARK    3  A    between atoms: O_5  and  C_19
REMARK    4  A    between atoms: O_6  and  C_21
REMARK    5  A    between atoms: O_7  and  C_22
REMARK    6  A    between atoms: O_8  and  C_23
REMARK    7  A    between atoms: C_10  and  C_12
REMARK                            x       y       z     vdW  Elec       q    Type
REMARK                         _______ _______ _______ _____ _____    ______ ____
ROOT
ATOM      1  O   UNL     1      91.238  14.691  40.684  0.00  0.00    +0.000 OA
ATOM      2  O   UNL     1      95.199  14.280  41.546  0.00  0.00    +0.000 OA
ATOM      3  C   UNL     1      93.046  14.888  42.291  0.00  0.00    +0.000 A 
ATOM      4  C   UNL     1      92.138  14.218  39.741  0.00  0.00    +0.000 A 
ATOM      5  C   UNL     1      91.705  15.009  41.933  0.00  0.00    +0.000 A 
ATOM      6  C   UNL     1      93.457  14.065  39.957  0.00  0.00    +0.000 A 
ATOM      7  C   UNL     1      94.009  14.401  41.292  0.00  0.00    +0.000 A 
ATOM      8  C   UNL     1      93.465  15.229  43.579  0.00  0.00    +0.000 A 
ATOM      9  C   UNL     1      90.774  15.471  42.862  0.00  0.00    +0.000 A 
ATOM     10  C   UNL     1      91.188  15.812  44.149  0.00  0.00    +0.000 A 
ATOM     11  C   UNL     1      92.532  15.691  44.507  0.00  0.00    +0.000 A 
ENDROOT
BRANCH   4  12
ATOM     12  C   UNL     1      91.506  13.915  38.445  0.00  0.00    +0.000 A 
ATOM     13  C   UNL     1      92.119  14.318  37.259  0.00  0.00    +0.000 A 
ATOM     14  C   UNL     1      90.295  13.224  38.403  0.00  0.00    +0.000 A 
ATOM     15  C   UNL     1      89.698  12.937  37.176  0.00  0.00    +0.000 A 
ATOM     16  C   UNL     1      91.522  14.031  36.031  0.00  0.00    +0.000 A 
ATOM     17  C   UNL     1      90.311  13.340  35.990  0.00  0.00    +0.000 A 
BRANCH  15  18
ATOM     18  O   UNL     1      88.515  12.261  37.148  0.00  0.00    +0.000 OA
ATOM     19  H   UNL     1      88.240  12.162  36.221  0.00  0.00    +0.000 HD
ENDBRANCH  15  18
BRANCH  16  20
ATOM     20  O   UNL     1      92.132  14.431  34.881  0.00  0.00    +0.000 OA
ATOM     21  H   UNL     1      91.627  14.113  34.115  0.00  0.00    +0.000 HD
ENDBRANCH  16  20
BRANCH  17  22
ATOM     22  O   UNL     1      89.728  13.058  34.790  0.00  0.00    +0.000 OA
ATOM     23  H   UNL     1      89.101  13.761  34.558  0.00  0.00    +0.000 HD
ENDBRANCH  17  22
ENDBRANCH   4  12
BRANCH   6  24
ATOM     24  O   UNL     1      94.331  13.623  38.987  0.00  0.00    +0.000 OA
ATOM     25  H   UNL     1      95.245  13.809  39.255  0.00  0.00    +0.000 HD
ENDBRANCH   6  24
BRANCH   8  26
ATOM     26  O   UNL     1      94.764  15.130  43.980  0.00  0.00    +0.000 OA
ATOM     27  H   UNL     1      95.356  15.114  43.213  0.00  0.00    +0.000 HD
ENDBRANCH   8  26
BRANCH  10  28
ATOM     28  O   UNL     1      90.280  16.263  45.059  0.00  0.00    +0.000 OA
ATOM     29  H   UNL     1      90.726  16.388  45.914  0.00  0.00    +0.000 HD
ENDBRANCH  10  28
TORSDOF 7
ENDMDL
MODEL 10
REMARK VINA RESULT:    -8.133      8.793     13.029
REMARK INTER + INTRA:          -9.834
REMARK INTER:                 -10.034
REMARK INTRA:                   0.200
REMARK UNBOUND:                 0.200
REMARK  Name = 5281672
REMARK  7 active torsions:
REMARK  status: ('A' for Active; 'I' for Inactive)
REMARK    1  A    between atoms: O_2  and  C_13
REMARK    2  A    between atoms: O_3  and  C_15
REMARK    3  A    between atoms: O_5  and  C_19
REMARK    4  A    between atoms: O_6  and  C_21
REMARK    5  A    between atoms: O_7  and  C_22
REMARK    6  A    between atoms: O_8  and  C_23
REMARK    7  A    between atoms: C_10  and  C_12
REMARK                            x       y       z     vdW  Elec       q    Type
REMARK                         _______ _______ _______ _____ _____    ______ ____
ROOT
ATOM      1  O   UNL     1      91.771  14.374  40.644  0.00  0.00    +0.000 OA
ATOM      2  O   UNL     1      88.483  14.920  42.989  0.00  0.00    +0.000 OA
ATOM      3  C   UNL     1      90.836  14.914  42.818  0.00  0.00    +0.000 A 
ATOM      4  C   UNL     1      90.489  14.242  40.134  0.00  0.00    +0.000 A 
ATOM      5  C   UNL     1      91.918  14.711  41.965  0.00  0.00    +0.000 A 
ATOM      6  C   UNL     1      89.363  14.401  40.852  0.00  0.00    +0.000 A 
ATOM      7  C   UNL     1      89.472  14.760  42.287  0.00  0.00    +0.000 A 
ATOM      8  C   UNL     1      91.046  15.254  44.156  0.00  0.00    +0.000 A 
ATOM      9  C   UNL     1      93.220  14.848  42.446  0.00  0.00    +0.000 A 
ATOM     10  C   UNL     1      93.434  15.188  43.782  0.00  0.00    +0.000 A 
ATOM     11  C   UNL     1      92.349  15.390  44.635  0.00  0.00    +0.000 A 
ENDROOT
BRANCH   4  12
ATOM     12  C   UNL     1      90.474  13.878  38.706  0.00  0.00    +0.000 A 
ATOM     13  C   UNL     1      89.469  13.050  38.207  0.00  0.00    +0.000 A 
ATOM     14  C   UNL     1      91.465  14.363  37.852  0.00  0.00    +0.000 A 
ATOM     15  C   UNL     1      91.450  14.019  36.500  0.00  0.00    +0.000 A 
ATOM     16  C   UNL     1      89.454  12.707  36.855  0.00  0.00    +0.000 A 
ATOM     17  C   UNL     1      90.444  13.192  36.001  0.00  0.00    +0.000 A 
BRANCH  15  18
ATOM     18  O   UNL     1      92.423  14.500  35.676  0.00  0.00    +0.000 OA
ATOM     19  H   UNL     1      92.792  15.306  36.076  0.00  0.00    +0.000 HD
ENDBRANCH  15  18
BRANCH  16  20
ATOM     20  O   UNL     1      88.466  11.896  36.382  0.00  0.00    +0.000 OA
ATOM     21  H   UNL     1      87.813  12.427  35.896  0.00  0.00    +0.000 HD
ENDBRANCH  16  20
BRANCH  17  22
ATOM     22  O   UNL     1      90.429  12.857  34.680  0.00  0.00    +0.000 OA
ATOM     23  H   UNL     1      91.305  12.536  34.413  0.00  0.00    +0.000 HD
ENDBRANCH  17  22
ENDBRANCH   4  12
BRANCH   6  24
ATOM     24  O   UNL     1      88.102  14.229  40.321  0.00  0.00    +0.000 OA
ATOM     25  H   UNL     1      87.995  13.315  40.013  0.00  0.00    +0.000 HD
ENDBRANCH   6  24
BRANCH   8  26
ATOM     26  O   UNL     1      90.022  15.462  45.032  0.00  0.00    +0.000 OA
ATOM     27  H   UNL     1      89.366  16.064  44.650  0.00  0.00    +0.000 HD
ENDBRANCH   8  26
BRANCH  10  28
ATOM     28  O   UNL     1      94.705  15.323  44.253  0.00  0.00    +0.000 OA
ATOM     29  H   UNL     1      94.751  14.943  45.147  0.00  0.00    +0.000 HD
ENDBRANCH  10  28
TORSDOF 7
ENDMDL
