MODEL 1
REMARK VINA RESULT:      -5.2      0.000      0.000
REMARK  10 active torsions:
REMARK  status: ('A' for Active; 'I' for Inactive)
REMARK    1  A    between atoms: O_2  and  C_12 
REMARK    2  A    between atoms: O_2  and  C_14 
REMARK    3  A    between atoms: O_3  and  C_8 
REMARK    4  A    between atoms: O_4  and  C_9 
REMARK    5  A    between atoms: O_5  and  C_10 
REMARK    6  A    between atoms: O_6  and  C_13 
REMARK    7  A    between atoms: O_7  and  C_21 
REMARK    8  A    between atoms: C_11  and  C_13 
REMARK    9  A    between atoms: C_14  and  C_15 
REMARK   10  A    between atoms: C_15  and  C_16 
ROOT
HETATM    1  O   UNK     0      -0.255  -5.947   0.893  0.00  0.00    -0.348 OA
HETATM    2  C   UNK     0      -0.607  -3.339  -0.258  0.00  0.00     0.183 C 
HETATM    3  C   UNK     0      -0.681  -4.621  -1.089  0.00  0.00     0.180 C 
HETATM    4  C   UNK     0       0.183  -3.562   1.032  0.00  0.00     0.204 C 
HETATM    5  C   UNK     0      -1.129  -5.802  -0.227  0.00  0.00     0.179 C 
HETATM    6  C   UNK     0      -0.289  -4.818   1.764  0.00  0.00     0.291 C 
ENDROOT
BRANCH   5   7
HETATM    7  C   UNK     0      -1.098  -7.113  -1.005  0.00  0.00     0.198 C 
BRANCH   7   8
HETATM    8  O   UNK     0      -2.125  -7.954  -0.515  0.00  0.00    -0.398 OA
HETATM    9  H   UNK     0      -2.579  -7.478   0.200  0.00  0.00     0.209 HD
ENDBRANCH   7   8
ENDBRANCH   5   7
BRANCH   6  10
HETATM   10  O   UNK     0       0.584  -5.035   2.871  0.00  0.00    -0.358 OA
BRANCH  10  11
HETATM   11  C   UNK     0       1.635  -5.927   2.531  0.00  0.00     0.175 C 
BRANCH  11  12
HETATM   12  C   UNK     0       2.747  -5.832   3.571  0.00  0.00     0.065 C 
BRANCH  12  13
HETATM   13  C   UNK     0       4.083  -6.272   3.023  0.00  0.00    -0.056 A 
HETATM   14  C   UNK     0       4.518  -7.567   3.251  0.00  0.00     0.010 A 
HETATM   15  C   UNK     0       5.752  -7.973   2.745  0.00  0.00     0.037 A 
HETATM   16  C   UNK     0       6.537  -7.077   2.018  0.00  0.00     0.065 A 
HETATM   17  C   UNK     0       6.086  -5.776   1.796  0.00  0.00     0.037 A 
HETATM   18  C   UNK     0       4.851  -5.371   2.303  0.00  0.00     0.010 A 
BRANCH  16  19
HETATM   19  O   UNK     0       7.742  -7.474   1.525  0.00  0.00    -0.361 OA
HETATM   20  H   UNK     0       7.710  -8.430   1.348  0.00  0.00     0.217 HD
ENDBRANCH  16  19
ENDBRANCH  12  13
ENDBRANCH  11  12
ENDBRANCH  10  11
ENDBRANCH   6  10
BRANCH   3  21
HETATM   21  O   UNK     0      -1.610  -4.437  -2.155  0.00  0.00    -0.390 OA
HETATM   22  H   UNK     0      -1.266  -3.737  -2.736  0.00  0.00     0.210 HD
ENDBRANCH   3  21
BRANCH   4  23
HETATM   23  O   UNK     0       0.000  -2.443   1.899  0.00  0.00    -0.388 OA
HETATM   24  H   UNK     0      -0.709  -1.888   1.530  0.00  0.00     0.210 HD
ENDBRANCH   4  23
BRANCH   2  25
HETATM   25  O   UNK     0       0.040  -2.339  -1.045  0.00  0.00    -0.390 OA
HETATM   26  H   UNK     0       0.988  -2.366  -0.830  0.00  0.00     0.210 HD
ENDBRANCH   2  25
TORSDOF 10
ENDMDL
MODEL 2
REMARK VINA RESULT:      -5.1      1.699      2.942
REMARK  10 active torsions:
REMARK  status: ('A' for Active; 'I' for Inactive)
REMARK    1  A    between atoms: O_2  and  C_12 
REMARK    2  A    between atoms: O_2  and  C_14 
REMARK    3  A    between atoms: O_3  and  C_8 
REMARK    4  A    between atoms: O_4  and  C_9 
REMARK    5  A    between atoms: O_5  and  C_10 
REMARK    6  A    between atoms: O_6  and  C_13 
REMARK    7  A    between atoms: O_7  and  C_21 
REMARK    8  A    between atoms: C_11  and  C_13 
REMARK    9  A    between atoms: C_14  and  C_15 
REMARK   10  A    between atoms: C_15  and  C_16 
ROOT
HETATM    1  O   UNK     0      -0.940  -4.117   2.550  0.00  0.00    -0.348 OA
HETATM    2  C   UNK     0      -0.193  -5.743   0.303  0.00  0.00     0.183 C 
HETATM    3  C   UNK     0      -1.479  -4.916   0.326  0.00  0.00     0.180 C 
HETATM    4  C   UNK     0       0.305  -6.030   1.720  0.00  0.00     0.204 C 
HETATM    5  C   UNK     0      -1.325  -3.698   1.239  0.00  0.00     0.179 C 
HETATM    6  C   UNK     0       0.334  -4.758   2.568  0.00  0.00     0.291 C 
ENDROOT
BRANCH   5   7
HETATM    7  C   UNK     0      -2.631  -2.922   1.371  0.00  0.00     0.198 C 
BRANCH   7   8
HETATM    8  O   UNK     0      -3.381  -3.477   2.435  0.00  0.00    -0.398 OA
HETATM    9  H   UNK     0      -3.144  -4.417   2.503  0.00  0.00     0.209 HD
ENDBRANCH   7   8
ENDBRANCH   5   7
BRANCH   6  10
HETATM   10  O   UNK     0       0.668  -5.129   3.904  0.00  0.00    -0.358 OA
BRANCH  10  11
HETATM   11  C   UNK     0       1.359  -4.084   4.572  0.00  0.00     0.175 C 
BRANCH  11  12
HETATM   12  C   UNK     0       2.607  -4.640   5.247  0.00  0.00     0.065 C 
BRANCH  12  13
HETATM   13  C   UNK     0       3.546  -5.298   4.265  0.00  0.00    -0.056 A 
HETATM   14  C   UNK     0       4.111  -4.540   3.253  0.00  0.00     0.010 A 
HETATM   15  C   UNK     0       4.979  -5.149   2.346  0.00  0.00     0.037 A 
HETATM   16  C   UNK     0       5.268  -6.509   2.463  0.00  0.00     0.065 A 
HETATM   17  C   UNK     0       4.691  -7.259   3.486  0.00  0.00     0.037 A 
HETATM   18  C   UNK     0       3.824  -6.650   4.394  0.00  0.00     0.010 A 
BRANCH  16  19
HETATM   19  O   UNK     0       6.114  -7.103   1.577  0.00  0.00    -0.361 OA
HETATM   20  H   UNK     0       6.118  -8.062   1.739  0.00  0.00     0.217 HD
ENDBRANCH  16  19
ENDBRANCH  12  13
ENDBRANCH  11  12
ENDBRANCH  10  11
ENDBRANCH   6  10
BRANCH   3  21
HETATM   21  O   UNK     0      -1.780  -4.477  -0.996  0.00  0.00    -0.390 OA
HETATM   22  H   UNK     0      -2.652  -4.831  -1.240  0.00  0.00     0.210 HD
ENDBRANCH   3  21
BRANCH   4  23
HETATM   23  O   UNK     0       1.631  -6.556   1.658  0.00  0.00    -0.388 OA
HETATM   24  H   UNK     0       1.814  -7.011   2.499  0.00  0.00     0.210 HD
ENDBRANCH   4  23
BRANCH   2  25
HETATM   25  O   UNK     0      -0.473  -6.976  -0.361  0.00  0.00    -0.390 OA
HETATM   26  H   UNK     0      -1.258  -7.364   0.063  0.00  0.00     0.210 HD
ENDBRANCH   2  25
TORSDOF 10
ENDMDL
MODEL 3
REMARK VINA RESULT:      -5.1      4.779      6.463
REMARK  10 active torsions:
REMARK  status: ('A' for Active; 'I' for Inactive)
REMARK    1  A    between atoms: O_2  and  C_12 
REMARK    2  A    between atoms: O_2  and  C_14 
REMARK    3  A    between atoms: O_3  and  C_8 
REMARK    4  A    between atoms: O_4  and  C_9 
REMARK    5  A    between atoms: O_5  and  C_10 
REMARK    6  A    between atoms: O_6  and  C_13 
REMARK    7  A    between atoms: O_7  and  C_21 
REMARK    8  A    between atoms: C_11  and  C_13 
REMARK    9  A    between atoms: C_14  and  C_15 
REMARK   10  A    between atoms: C_15  and  C_16 
ROOT
HETATM    1  O   UNK     0      -2.652  -3.095   2.546  0.00  0.00    -0.348 OA
HETATM    2  C   UNK     0      -1.721  -0.462   1.874  0.00  0.00     0.183 C 
HETATM    3  C   UNK     0      -3.138  -0.726   2.384  0.00  0.00     0.180 C 
HETATM    4  C   UNK     0      -1.107  -1.725   1.268  0.00  0.00     0.204 C 
HETATM    5  C   UNK     0      -3.174  -1.976   3.265  0.00  0.00     0.179 C 
HETATM    6  C   UNK     0      -1.280  -2.928   2.195  0.00  0.00     0.291 C 
ENDROOT
BRANCH   5   7
HETATM    7  C   UNK     0      -4.596  -2.328   3.690  0.00  0.00     0.198 C 
BRANCH   7   8
HETATM    8  O   UNK     0      -4.843  -3.683   3.365  0.00  0.00    -0.398 OA
HETATM    9  H   UNK     0      -4.205  -3.942   2.678  0.00  0.00     0.209 HD
ENDBRANCH   7   8
ENDBRANCH   5   7
BRANCH   6  10
HETATM   10  O   UNK     0      -0.814  -4.085   1.504  0.00  0.00    -0.358 OA
BRANCH  10  11
HETATM   11  C   UNK     0      -1.746  -4.508   0.520  0.00  0.00     0.175 C 
BRANCH  11  12
HETATM   12  C   UNK     0      -1.096  -4.464  -0.858  0.00  0.00     0.065 C 
BRANCH  12  13
HETATM   13  C   UNK     0      -1.216  -5.777  -1.592  0.00  0.00    -0.056 A 
HETATM   14  C   UNK     0      -1.972  -5.841  -2.751  0.00  0.00     0.010 A 
HETATM   15  C   UNK     0      -2.083  -7.055  -3.429  0.00  0.00     0.037 A 
HETATM   16  C   UNK     0      -1.436  -8.190  -2.938  0.00  0.00     0.065 A 
HETATM   17  C   UNK     0      -0.678  -8.110  -1.770  0.00  0.00     0.037 A 
HETATM   18  C   UNK     0      -0.568  -6.896  -1.092  0.00  0.00     0.010 A 
BRANCH  16  19
HETATM   19  O   UNK     0      -1.544  -9.374  -3.600  0.00  0.00    -0.361 OA
HETATM   20  H   UNK     0      -1.846 -10.057  -2.977  0.00  0.00     0.217 HD
ENDBRANCH  16  19
ENDBRANCH  12  13
ENDBRANCH  11  12
ENDBRANCH  10  11
ENDBRANCH   6  10
BRANCH   3  21
HETATM   21  O   UNK     0      -3.583   0.396   3.140  0.00  0.00    -0.390 OA
HETATM   22  H   UNK     0      -2.813   0.960   3.324  0.00  0.00     0.210 HD
ENDBRANCH   3  21
BRANCH   4  23
HETATM   23  O   UNK     0       0.290  -1.519   1.058  0.00  0.00    -0.388 OA
HETATM   24  H   UNK     0       0.561  -2.051   0.290  0.00  0.00     0.210 HD
ENDBRANCH   4  23
BRANCH   2  25
HETATM   25  O   UNK     0      -1.793   0.557   0.876  0.00  0.00    -0.390 OA
HETATM   26  H   UNK     0      -2.160   1.353   1.299  0.00  0.00     0.210 HD
ENDBRANCH   2  25
TORSDOF 10
ENDMDL
MODEL 4
REMARK VINA RESULT:      -5.0      2.997      5.985
REMARK  10 active torsions:
REMARK  status: ('A' for Active; 'I' for Inactive)
REMARK    1  A    between atoms: O_2  and  C_12 
REMARK    2  A    between atoms: O_2  and  C_14 
REMARK    3  A    between atoms: O_3  and  C_8 
REMARK    4  A    between atoms: O_4  and  C_9 
REMARK    5  A    between atoms: O_5  and  C_10 
REMARK    6  A    between atoms: O_6  and  C_13 
REMARK    7  A    between atoms: O_7  and  C_21 
REMARK    8  A    between atoms: C_11  and  C_13 
REMARK    9  A    between atoms: C_14  and  C_15 
REMARK   10  A    between atoms: C_15  and  C_16 
ROOT
HETATM    1  O   UNK     0       0.102  -3.815   2.658  0.00  0.00    -0.348 OA
HETATM    2  C   UNK     0      -1.581  -4.574   0.458  0.00  0.00     0.183 C 
HETATM    3  C   UNK     0      -0.334  -5.368   0.849  0.00  0.00     0.180 C 
HETATM    4  C   UNK     0      -1.503  -3.134   0.968  0.00  0.00     0.204 C 
HETATM    5  C   UNK     0      -0.029  -5.201   2.339  0.00  0.00     0.179 C 
HETATM    6  C   UNK     0      -1.105  -3.087   2.443  0.00  0.00     0.291 C 
ENDROOT
BRANCH   5   7
HETATM    7  C   UNK     0       1.276  -5.887   2.729  0.00  0.00     0.198 C 
BRANCH   7   8
HETATM    8  O   UNK     0       1.926  -6.325   1.551  0.00  0.00    -0.398 OA
HETATM    9  H   UNK     0       2.453  -5.583   1.212  0.00  0.00     0.209 HD
ENDBRANCH   7   8
ENDBRANCH   5   7
BRANCH   6  10
HETATM   10  O   UNK     0      -0.914  -1.720   2.802  0.00  0.00    -0.358 OA
BRANCH  10  11
HETATM   11  C   UNK     0       0.363  -1.252   2.395  0.00  0.00     0.175 C 
BRANCH  11  12
HETATM   12  C   UNK     0       0.222   0.101   1.708  0.00  0.00     0.065 C 
BRANCH  12  13
HETATM   13  C   UNK     0       0.933   0.146   0.377  0.00  0.00    -0.056 A 
HETATM   14  C   UNK     0       1.111   1.364  -0.257  0.00  0.00     0.010 A 
HETATM   15  C   UNK     0       1.768   1.406  -1.487  0.00  0.00     0.037 A 
HETATM   16  C   UNK     0       2.239   0.226  -2.066  0.00  0.00     0.065 A 
HETATM   17  C   UNK     0       2.053  -0.993  -1.415  0.00  0.00     0.037 A 
HETATM   18  C   UNK     0       1.396  -1.033  -0.186  0.00  0.00     0.010 A 
BRANCH  16  19
HETATM   19  O   UNK     0       2.880   0.267  -3.266  0.00  0.00    -0.361 OA
HETATM   20  H   UNK     0       3.181   1.177  -3.431  0.00  0.00     0.217 HD
ENDBRANCH  16  19
ENDBRANCH  12  13
ENDBRANCH  11  12
ENDBRANCH  10  11
ENDBRANCH   6  10
BRANCH   3  21
HETATM   21  O   UNK     0      -0.545  -6.748   0.563  0.00  0.00    -0.390 OA
HETATM   22  H   UNK     0      -0.094  -7.270   1.249  0.00  0.00     0.210 HD
ENDBRANCH   3  21
BRANCH   4  23
HETATM   23  O   UNK     0      -2.780  -2.513   0.829  0.00  0.00    -0.388 OA
HETATM   24  H   UNK     0      -2.827  -1.774   1.460  0.00  0.00     0.210 HD
ENDBRANCH   4  23
BRANCH   2  25
HETATM   25  O   UNK     0      -1.674  -4.570  -0.966  0.00  0.00    -0.390 OA
HETATM   26  H   UNK     0      -0.768  -4.520  -1.317  0.00  0.00     0.210 HD
ENDBRANCH   2  25
TORSDOF 10
ENDMDL
MODEL 5
REMARK VINA RESULT:      -5.0      1.552      2.103
REMARK  10 active torsions:
REMARK  status: ('A' for Active; 'I' for Inactive)
REMARK    1  A    between atoms: O_2  and  C_12 
REMARK    2  A    between atoms: O_2  and  C_14 
REMARK    3  A    between atoms: O_3  and  C_8 
REMARK    4  A    between atoms: O_4  and  C_9 
REMARK    5  A    between atoms: O_5  and  C_10 
REMARK    6  A    between atoms: O_6  and  C_13 
REMARK    7  A    between atoms: O_7  and  C_21 
REMARK    8  A    between atoms: C_11  and  C_13 
REMARK    9  A    between atoms: C_14  and  C_15 
REMARK   10  A    between atoms: C_15  and  C_16 
ROOT
HETATM    1  O   UNK     0      -0.253  -5.867   0.912  0.00  0.00    -0.348 OA
HETATM    2  C   UNK     0      -0.601  -3.278  -0.281  0.00  0.00     0.183 C 
HETATM    3  C   UNK     0      -0.677  -4.572  -1.092  0.00  0.00     0.180 C 
HETATM    4  C   UNK     0       0.189  -3.481   1.013  0.00  0.00     0.204 C 
HETATM    5  C   UNK     0      -1.126  -5.739  -0.211  0.00  0.00     0.179 C 
HETATM    6  C   UNK     0      -0.286  -4.724   1.765  0.00  0.00     0.291 C 
ENDROOT
BRANCH   5   7
HETATM    7  C   UNK     0      -1.096  -7.062  -0.968  0.00  0.00     0.198 C 
BRANCH   7   8
HETATM    8  O   UNK     0      -2.127  -7.893  -0.466  0.00  0.00    -0.398 OA
HETATM    9  H   UNK     0      -2.809  -7.965  -1.155  0.00  0.00     0.209 HD
ENDBRANCH   7   8
ENDBRANCH   5   7
BRANCH   6  10
HETATM   10  O   UNK     0       0.586  -4.926   2.875  0.00  0.00    -0.358 OA
BRANCH  10  11
HETATM   11  C   UNK     0       1.571  -5.907   2.587  0.00  0.00     0.175 C 
BRANCH  11  12
HETATM   12  C   UNK     0       2.838  -5.616   3.384  0.00  0.00     0.065 C 
BRANCH  12  13
HETATM   13  C   UNK     0       3.481  -6.872   3.918  0.00  0.00    -0.056 A 
HETATM   14  C   UNK     0       4.546  -7.434   3.234  0.00  0.00     0.010 A 
HETATM   15  C   UNK     0       5.141  -8.595   3.728  0.00  0.00     0.037 A 
HETATM   16  C   UNK     0       4.661  -9.179   4.900  0.00  0.00     0.065 A 
HETATM   17  C   UNK     0       3.587  -8.603   5.578  0.00  0.00     0.037 A 
HETATM   18  C   UNK     0       2.993  -7.441   5.084  0.00  0.00     0.010 A 
BRANCH  16  19
HETATM   19  O   UNK     0       5.241 -10.312   5.382  0.00  0.00    -0.361 OA
HETATM   20  H   UNK     0       5.550 -10.147   6.290  0.00  0.00     0.217 HD
ENDBRANCH  16  19
ENDBRANCH  12  13
ENDBRANCH  11  12
ENDBRANCH  10  11
ENDBRANCH   6  10
BRANCH   3  21
HETATM   21  O   UNK     0      -1.605  -4.404  -2.160  0.00  0.00    -0.390 OA
HETATM   22  H   UNK     0      -1.595  -5.215  -2.697  0.00  0.00     0.210 HD
ENDBRANCH   3  21
BRANCH   4  23
HETATM   23  O   UNK     0       0.007  -2.348   1.862  0.00  0.00    -0.388 OA
HETATM   24  H   UNK     0       0.636  -1.660   1.586  0.00  0.00     0.210 HD
ENDBRANCH   4  23
BRANCH   2  25
HETATM   25  O   UNK     0       0.047  -2.291  -1.083  0.00  0.00    -0.390 OA
HETATM   26  H   UNK     0       0.898  -2.084  -0.660  0.00  0.00     0.210 HD
ENDBRANCH   2  25
TORSDOF 10
ENDMDL
MODEL 6
REMARK VINA RESULT:      -5.0      4.027      7.815
REMARK  10 active torsions:
REMARK  status: ('A' for Active; 'I' for Inactive)
REMARK    1  A    between atoms: O_2  and  C_12 
REMARK    2  A    between atoms: O_2  and  C_14 
REMARK    3  A    between atoms: O_3  and  C_8 
REMARK    4  A    between atoms: O_4  and  C_9 
REMARK    5  A    between atoms: O_5  and  C_10 
REMARK    6  A    between atoms: O_6  and  C_13 
REMARK    7  A    between atoms: O_7  and  C_21 
REMARK    8  A    between atoms: C_11  and  C_13 
REMARK    9  A    between atoms: C_14  and  C_15 
REMARK   10  A    between atoms: C_15  and  C_16 
ROOT
HETATM    1  O   UNK     0       0.196  -3.791   2.615  0.00  0.00    -0.348 OA
HETATM    2  C   UNK     0      -1.570  -4.553   0.482  0.00  0.00     0.183 C 
HETATM    3  C   UNK     0      -0.335  -5.374   0.858  0.00  0.00     0.180 C 
HETATM    4  C   UNK     0      -1.436  -3.105   0.953  0.00  0.00     0.204 C 
HETATM    5  C   UNK     0       0.016  -5.180   2.334  0.00  0.00     0.179 C 
HETATM    6  C   UNK     0      -0.995  -3.033   2.415  0.00  0.00     0.291 C 
ENDROOT
BRANCH   5   7
HETATM    7  C   UNK     0       1.311  -5.895   2.705  0.00  0.00     0.198 C 
BRANCH   7   8
HETATM    8  O   UNK     0       1.917  -6.376   1.520  0.00  0.00    -0.398 OA
HETATM    9  H   UNK     0       2.703  -6.887   1.777  0.00  0.00     0.209 HD
ENDBRANCH   7   8
ENDBRANCH   5   7
BRANCH   6  10
HETATM   10  O   UNK     0      -0.755  -1.664   2.735  0.00  0.00    -0.358 OA
BRANCH  10  11
HETATM   11  C   UNK     0      -1.094  -1.382   4.084  0.00  0.00     0.175 C 
BRANCH  11  12
HETATM   12  C   UNK     0      -2.104  -0.241   4.134  0.00  0.00     0.065 C 
BRANCH  12  13
HETATM   13  C   UNK     0      -3.497  -0.692   3.768  0.00  0.00    -0.056 A 
HETATM   14  C   UNK     0      -3.984  -1.882   4.283  0.00  0.00     0.010 A 
HETATM   15  C   UNK     0      -5.271  -2.298   3.946  0.00  0.00     0.037 A 
HETATM   16  C   UNK     0      -6.055  -1.518   3.095  0.00  0.00     0.065 A 
HETATM   17  C   UNK     0      -5.553  -0.322   2.584  0.00  0.00     0.037 A 
HETATM   18  C   UNK     0      -4.265   0.093   2.923  0.00  0.00     0.010 A 
BRANCH  16  19
HETATM   19  O   UNK     0      -7.312  -1.925   2.765  0.00  0.00    -0.361 OA
HETATM   20  H   UNK     0      -7.526  -1.597   1.875  0.00  0.00     0.217 HD
ENDBRANCH  16  19
ENDBRANCH  12  13
ENDBRANCH  11  12
ENDBRANCH  10  11
ENDBRANCH   6  10
BRANCH   3  21
HETATM   21  O   UNK     0      -0.594  -6.754   0.612  0.00  0.00    -0.390 OA
HETATM   22  H   UNK     0      -0.700  -6.874  -0.347  0.00  0.00     0.210 HD
ENDBRANCH   3  21
BRANCH   4  23
HETATM   23  O   UNK     0      -2.698  -2.449   0.834  0.00  0.00    -0.388 OA
HETATM   24  H   UNK     0      -2.845  -1.929   1.642  0.00  0.00     0.210 HD
ENDBRANCH   4  23
BRANCH   2  25
HETATM   25  O   UNK     0      -1.702  -4.581  -0.940  0.00  0.00    -0.390 OA
HETATM   26  H   UNK     0      -1.810  -3.663  -1.240  0.00  0.00     0.210 HD
ENDBRANCH   2  25
TORSDOF 10
ENDMDL
MODEL 7
REMARK VINA RESULT:      -5.0      1.692      2.803
REMARK  10 active torsions:
REMARK  status: ('A' for Active; 'I' for Inactive)
REMARK    1  A    between atoms: O_2  and  C_12 
REMARK    2  A    between atoms: O_2  and  C_14 
REMARK    3  A    between atoms: O_3  and  C_8 
REMARK    4  A    between atoms: O_4  and  C_9 
REMARK    5  A    between atoms: O_5  and  C_10 
REMARK    6  A    between atoms: O_6  and  C_13 
REMARK    7  A    between atoms: O_7  and  C_21 
REMARK    8  A    between atoms: C_11  and  C_13 
REMARK    9  A    between atoms: C_14  and  C_15 
REMARK   10  A    between atoms: C_15  and  C_16 
ROOT
HETATM    1  O   UNK     0      -0.943  -4.174   2.625  0.00  0.00    -0.348 OA
HETATM    2  C   UNK     0      -0.175  -5.731   0.338  0.00  0.00     0.183 C 
HETATM    3  C   UNK     0      -1.481  -4.938   0.389  0.00  0.00     0.180 C 
HETATM    4  C   UNK     0       0.344  -6.034   1.744  0.00  0.00     0.204 C 
HETATM    5  C   UNK     0      -1.351  -3.737   1.328  0.00  0.00     0.179 C 
HETATM    6  C   UNK     0       0.347  -4.781   2.618  0.00  0.00     0.291 C 
ENDROOT
BRANCH   5   7
HETATM    7  C   UNK     0      -2.675  -2.998   1.487  0.00  0.00     0.198 C 
BRANCH   7   8
HETATM    8  O   UNK     0      -3.098  -3.114   2.833  0.00  0.00    -0.398 OA
HETATM    9  H   UNK     0      -3.709  -3.868   2.886  0.00  0.00     0.209 HD
ENDBRANCH   7   8
ENDBRANCH   5   7
BRANCH   6  10
HETATM   10  O   UNK     0       0.703  -5.171   3.943  0.00  0.00    -0.358 OA
BRANCH  10  11
HETATM   11  C   UNK     0       1.356  -4.117   4.634  0.00  0.00     0.175 C 
BRANCH  11  12
HETATM   12  C   UNK     0       2.638  -4.636   5.275  0.00  0.00     0.065 C 
BRANCH  12  13
HETATM   13  C   UNK     0       3.580  -5.244   4.264  0.00  0.00    -0.056 A 
HETATM   14  C   UNK     0       3.929  -6.579   4.377  0.00  0.00     0.010 A 
HETATM   15  C   UNK     0       4.799  -7.141   3.443  0.00  0.00     0.037 A 
HETATM   16  C   UNK     0       5.309  -6.357   2.407  0.00  0.00     0.065 A 
HETATM   17  C   UNK     0       4.948  -5.015   2.305  0.00  0.00     0.037 A 
HETATM   18  C   UNK     0       4.078  -4.454   3.240  0.00  0.00     0.010 A 
BRANCH  16  19
HETATM   19  O   UNK     0       6.158  -6.906   1.495  0.00  0.00    -0.361 OA
HETATM   20  H   UNK     0       7.069  -6.827   1.825  0.00  0.00     0.217 HD
ENDBRANCH  16  19
ENDBRANCH  12  13
ENDBRANCH  11  12
ENDBRANCH  10  11
ENDBRANCH   6  10
BRANCH   3  21
HETATM   21  O   UNK     0      -1.806  -4.480  -0.920  0.00  0.00    -0.390 OA
HETATM   22  H   UNK     0      -1.003  -4.534  -1.466  0.00  0.00     0.210 HD
ENDBRANCH   3  21
BRANCH   4  23
HETATM   23  O   UNK     0       1.682  -6.524   1.660  0.00  0.00    -0.388 OA
HETATM   24  H   UNK     0       1.653  -7.418   1.275  0.00  0.00     0.210 HD
ENDBRANCH   4  23
BRANCH   2  25
HETATM   25  O   UNK     0      -0.428  -6.956  -0.351  0.00  0.00    -0.390 OA
HETATM   26  H   UNK     0      -1.391  -7.031  -0.467  0.00  0.00     0.210 HD
ENDBRANCH   2  25
TORSDOF 10
ENDMDL
MODEL 8
REMARK VINA RESULT:      -5.0      4.014      6.516
REMARK  10 active torsions:
REMARK  status: ('A' for Active; 'I' for Inactive)
REMARK    1  A    between atoms: O_2  and  C_12 
REMARK    2  A    between atoms: O_2  and  C_14 
REMARK    3  A    between atoms: O_3  and  C_8 
REMARK    4  A    between atoms: O_4  and  C_9 
REMARK    5  A    between atoms: O_5  and  C_10 
REMARK    6  A    between atoms: O_6  and  C_13 
REMARK    7  A    between atoms: O_7  and  C_21 
REMARK    8  A    between atoms: C_11  and  C_13 
REMARK    9  A    between atoms: C_14  and  C_15 
REMARK   10  A    between atoms: C_15  and  C_16 
ROOT
HETATM    1  O   UNK     0       0.485  -1.729  -0.715  0.00  0.00    -0.348 OA
HETATM    2  C   UNK     0       1.860  -1.937   1.798  0.00  0.00     0.183 C 
HETATM    3  C   UNK     0       2.495  -1.292   0.566  0.00  0.00     0.180 C 
HETATM    4  C   UNK     0       0.731  -2.890   1.403  0.00  0.00     0.204 C 
HETATM    5  C   UNK     0       1.423  -0.712  -0.358  0.00  0.00     0.179 C 
HETATM    6  C   UNK     0      -0.229  -2.235   0.411  0.00  0.00     0.291 C 
ENDROOT
BRANCH   5   7
HETATM    7  C   UNK     0       2.024  -0.168  -1.650  0.00  0.00     0.198 C 
BRANCH   7   8
HETATM    8  O   UNK     0       1.001  -0.085  -2.624  0.00  0.00    -0.398 OA
HETATM    9  H   UNK     0       0.468   0.703  -2.426  0.00  0.00     0.209 HD
ENDBRANCH   7   8
ENDBRANCH   5   7
BRANCH   6  10
HETATM   10  O   UNK     0      -1.163  -3.225  -0.016  0.00  0.00    -0.358 OA
BRANCH  10  11
HETATM   11  C   UNK     0      -0.509  -4.302  -0.671  0.00  0.00     0.175 C 
BRANCH  11  12
HETATM   12  C   UNK     0      -0.950  -5.625  -0.053  0.00  0.00     0.065 C 
BRANCH  12  13
HETATM   13  C   UNK     0      -1.127  -6.710  -1.087  0.00  0.00    -0.056 A 
HETATM   14  C   UNK     0      -2.162  -7.619  -0.948  0.00  0.00     0.010 A 
HETATM   15  C   UNK     0      -2.325  -8.622  -1.904  0.00  0.00     0.037 A 
HETATM   16  C   UNK     0      -1.448  -8.703  -2.986  0.00  0.00     0.065 A 
HETATM   17  C   UNK     0      -0.410  -7.780  -3.113  0.00  0.00     0.037 A 
HETATM   18  C   UNK     0      -0.248  -6.777  -2.157  0.00  0.00     0.010 A 
BRANCH  16  19
HETATM   19  O   UNK     0      -1.607  -9.682  -3.919  0.00  0.00    -0.361 OA
HETATM   20  H   UNK     0      -2.557  -9.856  -4.033  0.00  0.00     0.217 HD
ENDBRANCH  16  19
ENDBRANCH  12  13
ENDBRANCH  11  12
ENDBRANCH  10  11
ENDBRANCH   6  10
BRANCH   3  21
HETATM   21  O   UNK     0       3.374  -0.249   0.980  0.00  0.00    -0.390 OA
HETATM   22  H   UNK     0       3.040   0.588   0.616  0.00  0.00     0.210 HD
ENDBRANCH   3  21
BRANCH   4  23
HETATM   23  O   UNK     0      -0.010  -3.255   2.568  0.00  0.00    -0.388 OA
HETATM   24  H   UNK     0      -0.715  -2.597   2.695  0.00  0.00     0.210 HD
ENDBRANCH   4  23
BRANCH   2  25
HETATM   25  O   UNK     0       2.876  -2.663   2.490  0.00  0.00    -0.390 OA
HETATM   26  H   UNK     0       2.696  -3.610   2.362  0.00  0.00     0.210 HD
ENDBRANCH   2  25
TORSDOF 10
ENDMDL
MODEL 9
REMARK VINA RESULT:      -4.9      3.139      5.155
REMARK  10 active torsions:
REMARK  status: ('A' for Active; 'I' for Inactive)
REMARK    1  A    between atoms: O_2  and  C_12 
REMARK    2  A    between atoms: O_2  and  C_14 
REMARK    3  A    between atoms: O_3  and  C_8 
REMARK    4  A    between atoms: O_4  and  C_9 
REMARK    5  A    between atoms: O_5  and  C_10 
REMARK    6  A    between atoms: O_6  and  C_13 
REMARK    7  A    between atoms: O_7  and  C_21 
REMARK    8  A    between atoms: C_11  and  C_13 
REMARK    9  A    between atoms: C_14  and  C_15 
REMARK   10  A    between atoms: C_15  and  C_16 
ROOT
HETATM    1  O   UNK     0       1.120  -3.361   1.404  0.00  0.00    -0.348 OA
HETATM    2  C   UNK     0      -0.679  -5.567   1.023  0.00  0.00     0.183 C 
HETATM    3  C   UNK     0       0.694  -5.731   1.677  0.00  0.00     0.180 C 
HETATM    4  C   UNK     0      -0.730  -4.311   0.151  0.00  0.00     0.204 C 
HETATM    5  C   UNK     0       1.133  -4.430   2.352  0.00  0.00     0.179 C 
HETATM    6  C   UNK     0      -0.186  -3.093   0.897  0.00  0.00     0.291 C 
ENDROOT
BRANCH   5   7
HETATM    7  C   UNK     0       2.548  -4.532   2.909  0.00  0.00     0.198 C 
BRANCH   7   8
HETATM    8  O   UNK     0       3.236  -5.552   2.211  0.00  0.00    -0.398 OA
HETATM    9  H   UNK     0       3.092  -6.386   2.689  0.00  0.00     0.209 HD
ENDBRANCH   7   8
ENDBRANCH   5   7
BRANCH   6  10
HETATM   10  O   UNK     0      -0.133  -2.004  -0.022  0.00  0.00    -0.358 OA
BRANCH  10  11
HETATM   11  C   UNK     0       0.851  -2.220  -1.023  0.00  0.00     0.175 C 
BRANCH  11  12
HETATM   12  C   UNK     0       1.692  -0.961  -1.199  0.00  0.00     0.065 C 
BRANCH  12  13
HETATM   13  C   UNK     0       3.102  -1.137  -0.689  0.00  0.00    -0.056 A 
HETATM   14  C   UNK     0       4.099  -1.526  -1.568  0.00  0.00     0.010 A 
HETATM   15  C   UNK     0       5.401  -1.689  -1.096  0.00  0.00     0.037 A 
HETATM   16  C   UNK     0       5.689  -1.460   0.250  0.00  0.00     0.065 A 
HETATM   17  C   UNK     0       4.675  -1.069   1.123  0.00  0.00     0.037 A 
HETATM   18  C   UNK     0       3.373  -0.906   0.651  0.00  0.00     0.010 A 
BRANCH  16  19
HETATM   19  O   UNK     0       6.961  -1.619   0.710  0.00  0.00    -0.361 OA
HETATM   20  H   UNK     0       7.073  -1.086   1.515  0.00  0.00     0.217 HD
ENDBRANCH  16  19
ENDBRANCH  12  13
ENDBRANCH  11  12
ENDBRANCH  10  11
ENDBRANCH   6  10
BRANCH   3  21
HETATM   21  O   UNK     0       0.630  -6.769   2.651  0.00  0.00    -0.390 OA
HETATM   22  H   UNK     0      -0.307  -6.975   2.811  0.00  0.00     0.210 HD
ENDBRANCH   3  21
BRANCH   4  23
HETATM   23  O   UNK     0      -2.083  -4.044  -0.215  0.00  0.00    -0.388 OA
HETATM   24  H   UNK     0      -2.174  -3.086  -0.358  0.00  0.00     0.210 HD
ENDBRANCH   4  23
BRANCH   2  25
HETATM   25  O   UNK     0      -0.923  -6.718   0.214  0.00  0.00    -0.390 OA
HETATM   26  H   UNK     0      -0.060  -7.112  -0.001  0.00  0.00     0.210 HD
ENDBRANCH   2  25
TORSDOF 10
ENDMDL
MODEL 10
REMARK VINA RESULT:      -4.9      3.439      5.394
REMARK  10 active torsions:
REMARK  status: ('A' for Active; 'I' for Inactive)
REMARK    1  A    between atoms: O_2  and  C_12 
REMARK    2  A    between atoms: O_2  and  C_14 
REMARK    3  A    between atoms: O_3  and  C_8 
REMARK    4  A    between atoms: O_4  and  C_9 
REMARK    5  A    between atoms: O_5  and  C_10 
REMARK    6  A    between atoms: O_6  and  C_13 
REMARK    7  A    between atoms: O_7  and  C_21 
REMARK    8  A    between atoms: C_11  and  C_13 
REMARK    9  A    between atoms: C_14  and  C_15 
REMARK   10  A    between atoms: C_15  and  C_16 
ROOT
HETATM    1  O   UNK     0      -0.413  -3.038   2.242  0.00  0.00    -0.348 OA
HETATM    2  C   UNK     0      -0.467  -5.357   0.549  0.00  0.00     0.183 C 
HETATM    3  C   UNK     0       0.382  -5.288   1.819  0.00  0.00     0.180 C 
HETATM    4  C   UNK     0      -0.798  -3.958   0.028  0.00  0.00     0.204 C 
HETATM    5  C   UNK     0      -0.238  -4.326   2.834  0.00  0.00     0.179 C 
HETATM    6  C   UNK     0      -1.325  -3.058   1.146  0.00  0.00     0.291 C 
ENDROOT
BRANCH   5   7
HETATM    7  C   UNK     0       0.651  -4.150   4.061  0.00  0.00     0.198 C 
BRANCH   7   8
HETATM    8  O   UNK     0       0.247  -5.080   5.048  0.00  0.00    -0.398 OA
HETATM    9  H   UNK     0       0.882  -5.817   5.035  0.00  0.00     0.209 HD
ENDBRANCH   7   8
ENDBRANCH   5   7
BRANCH   6  10
HETATM   10  O   UNK     0      -1.474  -1.742   0.617  0.00  0.00    -0.358 OA
BRANCH  10  11
HETATM   11  C   UNK     0      -1.010  -0.762   1.534  0.00  0.00     0.175 C 
BRANCH  11  12
HETATM   12  C   UNK     0      -0.061   0.199   0.826  0.00  0.00     0.065 C 
BRANCH  12  13
HETATM   13  C   UNK     0       1.254  -0.451   0.472  0.00  0.00    -0.056 A 
HETATM   14  C   UNK     0       2.135  -0.796   1.484  0.00  0.00     0.010 A 
HETATM   15  C   UNK     0       3.351  -1.396   1.157  0.00  0.00     0.037 A 
HETATM   16  C   UNK     0       3.670  -1.643  -0.180  0.00  0.00     0.065 A 
HETATM   17  C   UNK     0       2.773  -1.290  -1.187  0.00  0.00     0.037 A 
HETATM   18  C   UNK     0       1.557  -0.690  -0.859  0.00  0.00     0.010 A 
BRANCH  16  19
HETATM   19  O   UNK     0       4.857  -2.229  -0.498  0.00  0.00    -0.361 OA
HETATM   20  H   UNK     0       4.966  -3.031   0.040  0.00  0.00     0.217 HD
ENDBRANCH  16  19
ENDBRANCH  12  13
ENDBRANCH  11  12
ENDBRANCH  10  11
ENDBRANCH   6  10
BRANCH   3  21
HETATM   21  O   UNK     0       0.473  -6.588   2.396  0.00  0.00    -0.390 OA
HETATM   22  H   UNK     0       0.135  -6.537   3.307  0.00  0.00     0.210 HD
ENDBRANCH   3  21
BRANCH   4  23
HETATM   23  O   UNK     0      -1.804  -4.054  -0.980  0.00  0.00    -0.388 OA
HETATM   24  H   UNK     0      -1.560  -4.778  -1.582  0.00  0.00     0.210 HD
ENDBRANCH   4  23
BRANCH   2  25
HETATM   25  O   UNK     0       0.276  -6.069  -0.441  0.00  0.00    -0.390 OA
HETATM   26  H   UNK     0       0.192  -7.017  -0.243  0.00  0.00     0.210 HD
ENDBRANCH   2  25
TORSDOF 10
ENDMDL
