REMARK SMILES O=c1c(O)c(-c2ccc(O)c(O)c2)oc2cc(O)cc(O)c12
REMARK SMILES IDX 14 1 1 2 22 3 15 4 5 5 3 6 2 7 20 8 16 9 17 10 19 11 6 16
REMARK SMILES IDX 13 17 7 18 11 19 8 20 9 21 12 22 10 27 4 32 21 37 18 42
REMARK H PARENT 12 23 10 28 4 33 21 38 18 43
REMARK Flexibility Score: inf
ROOT
ATOM      1  O   UNL     1      -0.326  -0.866  -0.125  1.00  0.00    -0.452 OA
ATOM      2  O   UNL     1      -2.041   2.825   0.085  1.00  0.00    -0.285 OA
ATOM      3  C   UNL     1      -2.336   0.486   0.023  1.00  0.00     0.111 A 
ATOM      4  C   UNL     1      -1.689  -0.746  -0.052  1.00  0.00     0.146 A 
ATOM      5  C   UNL     1       0.442   0.288  -0.110  1.00  0.00     0.180 A 
ATOM      6  C   UNL     1      -0.058   1.536  -0.049  1.00  0.00     0.208 A 
ATOM      7  C   UNL     1      -1.528   1.715   0.026  1.00  0.00     0.238 A 
ATOM      8  C   UNL     1      -3.730   0.547   0.094  1.00  0.00     0.134 A 
ATOM      9  C   UNL     1      -2.433  -1.926  -0.059  1.00  0.00     0.094 A 
ATOM     10  C   UNL     1      -3.826  -1.869   0.012  1.00  0.00     0.123 A 
ATOM     11  C   UNL     1      -4.472  -0.634   0.088  1.00  0.00     0.093 A 
ATOM     12 WAT  UNL     1       0.195  -2.098  -2.810  1.00  0.00     0.000 W 
ATOM     13 WAT  UNL     1       0.448  -2.334   2.375  1.00  0.00     0.000 W 
ATOM     14 WAT  UNL     1      -0.312   5.277   0.085  1.00  0.00     0.000 W 
ATOM     15 WAT  UNL     1      -5.025   3.094   0.230  1.00  0.00     0.000 W 
ENDROOT
BRANCH   5  16
ATOM     16  C   UNL     1       1.888   0.018  -0.193  1.00  0.00     0.025 A 
ATOM     17  C   UNL     1       2.636  -0.143   0.973  1.00  0.00     0.062 A 
ATOM     18  C   UNL     1       2.509  -0.077  -1.439  1.00  0.00     0.016 A 
ATOM     19  C   UNL     1       4.005  -0.400   0.894  1.00  0.00     0.158 A 
ATOM     20  C   UNL     1       3.878  -0.333  -1.518  1.00  0.00     0.051 A 
ATOM     21  C   UNL     1       4.626  -0.494  -0.352  1.00  0.00     0.157 A 
BRANCH  19  22
ATOM     22  O   UNL     1       4.726  -0.554   2.039  1.00  0.00    -0.504 OA
ATOM     23  H   UNL     1       5.664  -0.375   1.863  1.00  0.00     0.293 HD
ATOM     24 WAT  UNL     1       4.528  -3.450   2.800  1.00  0.00     0.000 W 
ATOM     25 WAT  UNL     1       3.785   1.564   3.943  1.00  0.00     0.000 W 
ATOM     26 WAT  UNL     1       7.595  -0.006   1.499  1.00  0.00     0.000 W 
ENDBRANCH  19  22
BRANCH  21  27
ATOM     27  O   UNL     1       5.962  -0.746  -0.442  1.00  0.00    -0.504 OA
ATOM     28  H   UNL     1       6.271  -1.170   0.374  1.00  0.00     0.293 HD
ATOM     29 WAT  UNL     1       7.333   1.918  -0.603  1.00  0.00     0.000 W 
ATOM     30 WAT  UNL     1       6.317  -2.750  -2.646  1.00  0.00     0.000 W 
ATOM     31 WAT  UNL     1       6.908  -2.045   2.056  1.00  0.00     0.000 W 
ENDBRANCH  21  27
ENDBRANCH   5  16
BRANCH   6  32
ATOM     32  O   UNL     1       0.732   2.665  -0.069  1.00  0.00    -0.502 OA
ATOM     33  H   UNL     1       1.667   2.412  -0.123  1.00  0.00     0.293 HD
ATOM     34 WAT  UNL     1       0.358   4.027   2.578  1.00  0.00     0.000 W 
ATOM     35 WAT  UNL     1       0.087   4.123  -2.610  1.00  0.00     0.000 W 
ATOM     36 WAT  UNL     1       3.595   1.890  -0.233  1.00  0.00     0.000 W 
ENDBRANCH   6  32
BRANCH   8  37
ATOM     37  O   UNL     1      -4.411   1.725   0.169  1.00  0.00    -0.507 OA
ATOM     38  H   UNL     1      -3.796   2.474   0.170  1.00  0.00     0.293 HD
ATOM     39 WAT  UNL     1      -5.789   1.746   2.834  1.00  0.00     0.000 W 
ATOM     40 WAT  UNL     1      -6.020   1.944  -2.354  1.00  0.00     0.000 W 
ATOM     41 WAT  UNL     1      -2.528   4.020   0.172  1.00  0.00     0.000 W 
ENDBRANCH   8  37
BRANCH  10  42
ATOM     42  O   UNL     1      -4.554  -3.018   0.006  1.00  0.00    -0.508 OA
ATOM     43  H   UNL     1      -5.499  -2.794   0.060  1.00  0.00     0.293 HD
ATOM     44 WAT  UNL     1      -3.864  -4.501   2.521  1.00  0.00     0.000 W 
ATOM     45 WAT  UNL     1      -4.119  -4.313  -2.665  1.00  0.00     0.000 W 
ATOM     46 WAT  UNL     1      -7.441  -2.331   0.173  1.00  0.00     0.000 W 
ENDBRANCH  10  42
TORSDOF 6
