MODEL 1
REMARK VINA RESULT:      -7.7      0.000      0.000
REMARK  12 active torsions:
REMARK  status: ('A' for Active; 'I' for Inactive)
REMARK    1  A    between atoms: O_1  and  C_10 
REMARK    2  A    between atoms: O_2  and  C_17 
REMARK    3  A    between atoms: O_3  and  C_20 
REMARK    4  A    between atoms: O_4  and  C_27 
REMARK    5  A    between atoms: O_6  and  C_29 
REMARK    6  A    between atoms: O_7  and  C_28 
REMARK    7  A    between atoms: O_8  and  C_33 
REMARK    8  A    between atoms: C_11  and  C_20 
REMARK    9  A    between atoms: C_20  and  C_28 
REMARK   10  A    between atoms: C_28  and  C_31 
REMARK   11  A    between atoms: C_31  and  C_32 
REMARK   12  A    between atoms: C_32  and  C_33 
ROOT
HETATM    1  O   UNK     0     -18.556  52.690  10.184  0.00  0.00    -0.384 OA
HETATM    2  H   UNK     0     -18.718  53.614  10.424  0.00  0.00     0.211 HD
ENDROOT
BRANCH   1   3
HETATM    3  C   UNK     0     -19.797  51.959  10.054  0.00  0.00     0.090 C 
HETATM    4  C   UNK     0     -19.827  50.799  11.083  0.00  0.00    -0.000 C 
HETATM    5  C   UNK     0     -18.647  49.930  10.574  0.00  0.00     0.034 C 
HETATM    6  C   UNK     0     -19.613  51.384  12.486  0.00  0.00     0.045 C 
HETATM    7  C   UNK     0     -21.156  49.994  11.053  0.00  0.00     0.019 C 
HETATM    8  C   UNK     0     -18.779  49.997   9.035  0.00  0.00     0.012 C 
HETATM    9  C   UNK     0     -19.689  51.205   8.721  0.00  0.00     0.044 C 
HETATM   10  C   UNK     0     -20.688  52.436  12.828  0.00  0.00     0.128 C 
HETATM   11  C   UNK     0     -20.860  53.569  11.750  0.00  0.00     0.055 C 
HETATM   12  C   UNK     0     -22.061  54.570  12.054  0.00  0.00    -0.021 C 
HETATM   13  C   UNK     0     -20.898  52.962  10.331  0.00  0.00    -0.034 C 
HETATM   14  C   UNK     0     -22.442  55.361  10.768  0.00  0.00     0.071 C 
HETATM   15  C   UNK     0     -21.693  55.578  13.205  0.00  0.00     0.045 C 
HETATM   16  C   UNK     0     -23.323  53.788  12.513  0.00  0.00     0.017 C 
HETATM   17  C   UNK     0     -21.410  56.407  10.310  0.00  0.00     0.047 C 
HETATM   18  C   UNK     0     -22.726  54.421   9.615  0.00  0.00     0.154 C 
HETATM   19  C   UNK     0     -20.607  57.019  11.453  0.00  0.00     0.147 C 
HETATM   20  C   UNK     0     -21.384  57.012  12.762  0.00  0.00     0.147 C 
HETATM   21  O   UNK     0     -23.655  54.610   8.833  0.00  0.00    -0.293 OA
HETATM   22  C   UNK     0     -21.786  53.307   9.387  0.00  0.00     0.057 C 
BRANCH   5  23
HETATM   23  C   UNK     0     -18.575  48.504  11.100  0.00  0.00     0.084 C 
HETATM   24  C   UNK     0     -19.945  48.083  11.656  0.00  0.00     0.049 C 
BRANCH  23  25
HETATM   25  O   UNK     0     -18.271  47.631  10.004  0.00  0.00    -0.387 OA
HETATM   26  H   UNK     0     -17.379  47.834   9.678  0.00  0.00     0.210 HD
ENDBRANCH  23  25
BRANCH  23  27
HETATM   27  C   UNK     0     -17.470  48.330  12.177  0.00  0.00     0.152 C 
BRANCH  27  28
HETATM   28  O   UNK     0     -16.867  47.039  12.043  0.00  0.00    -0.393 OA
HETATM   29  H   UNK     0     -16.556  46.957  11.125  0.00  0.00     0.210 HD
ENDBRANCH  27  28
BRANCH  27  30
HETATM   30  C   UNK     0     -17.969  48.483  13.627  0.00  0.00     0.037 C 
BRANCH  30  31
HETATM   31  C   UNK     0     -17.274  49.646  14.358  0.00  0.00     0.040 C 
BRANCH  31  32
HETATM   32  C   UNK     0     -17.982  50.105  15.650  0.00  0.00     0.051 C 
HETATM   33  C   UNK     0     -19.380  49.483  15.718  0.00  0.00     0.045 C 
HETATM   34  C   UNK     0     -17.190  49.747  16.911  0.00  0.00     0.045 C 
BRANCH  32  35
HETATM   35  O   UNK     0     -18.135  51.525  15.600  0.00  0.00    -0.391 OA
HETATM   36  H   UNK     0     -17.353  51.906  15.167  0.00  0.00     0.210 HD
ENDBRANCH  32  35
ENDBRANCH  31  32
ENDBRANCH  30  31
ENDBRANCH  27  30
ENDBRANCH  23  27
ENDBRANCH   5  23
BRANCH  10  37
HETATM   37  O   UNK     0     -20.340  52.995  14.092  0.00  0.00    -0.395 OA
HETATM   38  H   UNK     0     -19.432  53.336  14.025  0.00  0.00     0.210 HD
ENDBRANCH  10  37
BRANCH  19  39
HETATM   39  O   UNK     0     -20.245  58.350  11.097  0.00  0.00    -0.393 OA
HETATM   40  H   UNK     0     -20.991  58.751  10.619  0.00  0.00     0.210 HD
ENDBRANCH  19  39
BRANCH  20  41
HETATM   41  O   UNK     0     -22.612  57.728  12.615  0.00  0.00    -0.393 OA
HETATM   42  H   UNK     0     -23.215  57.423  13.313  0.00  0.00     0.210 HD
ENDBRANCH  20  41
ENDBRANCH   1   3
TORSDOF 12
ENDMDL
MODEL 2
REMARK VINA RESULT:      -7.7     36.096     39.017
REMARK  12 active torsions:
REMARK  status: ('A' for Active; 'I' for Inactive)
REMARK    1  A    between atoms: O_1  and  C_10 
REMARK    2  A    between atoms: O_2  and  C_17 
REMARK    3  A    between atoms: O_3  and  C_20 
REMARK    4  A    between atoms: O_4  and  C_27 
REMARK    5  A    between atoms: O_6  and  C_29 
REMARK    6  A    between atoms: O_7  and  C_28 
REMARK    7  A    between atoms: O_8  and  C_33 
REMARK    8  A    between atoms: C_11  and  C_20 
REMARK    9  A    between atoms: C_20  and  C_28 
REMARK   10  A    between atoms: C_28  and  C_31 
REMARK   11  A    between atoms: C_31  and  C_32 
REMARK   12  A    between atoms: C_32  and  C_33 
ROOT
HETATM    1  O   UNK     0       1.622  39.593  42.745  0.00  0.00    -0.384 OA
HETATM    2  H   UNK     0       1.419  38.945  43.434  0.00  0.00     0.211 HD
ENDROOT
BRANCH   1   3
HETATM    3  C   UNK     0       1.074  40.891  43.068  0.00  0.00     0.090 C 
HETATM    4  C   UNK     0       0.703  41.639  41.762  0.00  0.00    -0.000 C 
HETATM    5  C   UNK     0       2.104  41.804  41.116  0.00  0.00     0.034 C 
HETATM    6  C   UNK     0      -0.259  40.761  40.951  0.00  0.00     0.045 C 
HETATM    7  C   UNK     0       0.049  43.025  42.020  0.00  0.00     0.019 C 
HETATM    8  C   UNK     0       3.024  42.137  42.313  0.00  0.00     0.012 C 
HETATM    9  C   UNK     0       2.259  41.717  43.588  0.00  0.00     0.044 C 
HETATM   10  C   UNK     0      -1.530  40.422  41.758  0.00  0.00     0.128 C 
HETATM   11  C   UNK     0      -1.256  39.816  43.184  0.00  0.00     0.055 C 
HETATM   12  C   UNK     0      -2.572  39.597  44.054  0.00  0.00    -0.021 C 
HETATM   13  C   UNK     0      -0.157  40.620  43.910  0.00  0.00    -0.034 C 
HETATM   14  C   UNK     0      -2.203  39.426  45.556  0.00  0.00     0.071 C 
HETATM   15  C   UNK     0      -3.384  38.342  43.563  0.00  0.00     0.045 C 
HETATM   16  C   UNK     0      -3.515  40.828  43.941  0.00  0.00     0.017 C 
HETATM   17  C   UNK     0      -1.496  38.106  45.913  0.00  0.00     0.047 C 
HETATM   18  C   UNK     0      -1.352  40.580  46.044  0.00  0.00     0.154 C 
HETATM   19  C   UNK     0      -1.889  36.936  45.017  0.00  0.00     0.147 C 
HETATM   20  C   UNK     0      -3.295  37.099  44.454  0.00  0.00     0.147 C 
HETATM   21  O   UNK     0      -1.520  41.094  47.148  0.00  0.00    -0.293 OA
HETATM   22  C   UNK     0      -0.233  41.018  45.188  0.00  0.00     0.057 C 
BRANCH   5  23
HETATM   23  C   UNK     0       2.217  42.816  39.984  0.00  0.00     0.084 C 
HETATM   24  C   UNK     0       1.150  42.526  38.916  0.00  0.00     0.049 C 
BRANCH  23  25
HETATM   25  O   UNK     0       1.948  44.121  40.515  0.00  0.00    -0.387 OA
HETATM   26  H   UNK     0       1.372  44.600  39.896  0.00  0.00     0.210 HD
ENDBRANCH  23  25
BRANCH  23  27
HETATM   27  C   UNK     0       3.635  42.834  39.352  0.00  0.00     0.152 C 
BRANCH  27  28
HETATM   28  O   UNK     0       3.932  44.151  38.877  0.00  0.00    -0.393 OA
HETATM   29  H   UNK     0       4.191  44.686  39.646  0.00  0.00     0.210 HD
ENDBRANCH  27  28
BRANCH  27  30
HETATM   30  C   UNK     0       3.819  41.845  38.184  0.00  0.00     0.037 C 
BRANCH  30  31
HETATM   31  C   UNK     0       5.216  41.197  38.192  0.00  0.00     0.040 C 
BRANCH  31  32
HETATM   32  C   UNK     0       6.160  41.697  37.078  0.00  0.00     0.051 C 
HETATM   33  C   UNK     0       7.487  40.936  37.150  0.00  0.00     0.045 C 
HETATM   34  C   UNK     0       5.549  41.549  35.681  0.00  0.00     0.045 C 
BRANCH  32  35
HETATM   35  O   UNK     0       6.434  43.081  37.307  0.00  0.00    -0.391 OA
HETATM   36  H   UNK     0       5.616  43.515  37.600  0.00  0.00     0.210 HD
ENDBRANCH  32  35
ENDBRANCH  31  32
ENDBRANCH  30  31
ENDBRANCH  27  30
ENDBRANCH  23  27
ENDBRANCH   5  23
BRANCH  10  37
HETATM   37  O   UNK     0      -2.300  39.520  40.969  0.00  0.00    -0.395 OA
HETATM   38  H   UNK     0      -1.744  39.226  40.228  0.00  0.00     0.210 HD
ENDBRANCH  10  37
BRANCH  19  39
HETATM   39  O   UNK     0      -1.792  35.730  45.770  0.00  0.00    -0.393 OA
HETATM   40  H   UNK     0      -1.716  34.988  45.147  0.00  0.00     0.210 HD
ENDBRANCH  19  39
BRANCH  20  41
HETATM   41  O   UNK     0      -4.244  37.218  45.515  0.00  0.00    -0.393 OA
HETATM   42  H   UNK     0      -4.824  36.439  45.479  0.00  0.00     0.210 HD
ENDBRANCH  20  41
ENDBRANCH   1   3
TORSDOF 12
ENDMDL
MODEL 3
REMARK VINA RESULT:      -7.7      2.593      4.648
REMARK  12 active torsions:
REMARK  status: ('A' for Active; 'I' for Inactive)
REMARK    1  A    between atoms: O_1  and  C_10 
REMARK    2  A    between atoms: O_2  and  C_17 
REMARK    3  A    between atoms: O_3  and  C_20 
REMARK    4  A    between atoms: O_4  and  C_27 
REMARK    5  A    between atoms: O_6  and  C_29 
REMARK    6  A    between atoms: O_7  and  C_28 
REMARK    7  A    between atoms: O_8  and  C_33 
REMARK    8  A    between atoms: C_11  and  C_20 
REMARK    9  A    between atoms: C_20  and  C_28 
REMARK   10  A    between atoms: C_28  and  C_31 
REMARK   11  A    between atoms: C_31  and  C_32 
REMARK   12  A    between atoms: C_32  and  C_33 
ROOT
HETATM    1  O   UNK     0     -23.665  54.578  13.013  0.00  0.00    -0.384 OA
HETATM    2  H   UNK     0     -23.378  54.582  13.937  0.00  0.00     0.211 HD
ENDROOT
BRANCH   1   3
HETATM    3  C   UNK     0     -22.549  54.788  12.118  0.00  0.00     0.090 C 
HETATM    4  C   UNK     0     -22.052  53.422  11.578  0.00  0.00    -0.000 C 
HETATM    5  C   UNK     0     -21.560  52.754  12.889  0.00  0.00     0.034 C 
HETATM    6  C   UNK     0     -23.232  52.700  10.914  0.00  0.00     0.045 C 
HETATM    7  C   UNK     0     -20.887  53.559  10.558  0.00  0.00     0.019 C 
HETATM    8  C   UNK     0     -20.879  53.910  13.657  0.00  0.00     0.012 C 
HETATM    9  C   UNK     0     -21.382  55.223  13.016  0.00  0.00     0.044 C 
HETATM   10  C   UNK     0     -23.839  53.543   9.773  0.00  0.00     0.128 C 
HETATM   11  C   UNK     0     -24.216  55.016  10.178  0.00  0.00     0.055 C 
HETATM   12  C   UNK     0     -24.717  55.911   8.960  0.00  0.00    -0.021 C 
HETATM   13  C   UNK     0     -23.077  55.659  10.996  0.00  0.00    -0.034 C 
HETATM   14  C   UNK     0     -24.645  57.420   9.334  0.00  0.00     0.071 C 
HETATM   15  C   UNK     0     -26.187  55.540   8.539  0.00  0.00     0.045 C 
HETATM   16  C   UNK     0     -23.814  55.694   7.713  0.00  0.00     0.017 C 
HETATM   17  C   UNK     0     -25.678  57.889  10.374  0.00  0.00     0.047 C 
HETATM   18  C   UNK     0     -23.261  57.796   9.820  0.00  0.00     0.154 C 
HETATM   19  C   UNK     0     -26.985  57.105  10.339  0.00  0.00     0.147 C 
HETATM   20  C   UNK     0     -27.272  56.539   8.955  0.00  0.00     0.147 C 
HETATM   21  O   UNK     0     -22.719  58.850   9.495  0.00  0.00    -0.293 OA
HETATM   22  C   UNK     0     -22.604  56.896  10.789  0.00  0.00     0.057 C 
BRANCH   5  23
HETATM   23  C   UNK     0     -20.661  51.535  12.736  0.00  0.00     0.084 C 
HETATM   24  C   UNK     0     -21.496  50.251  12.869  0.00  0.00     0.049 C 
BRANCH  23  25
HETATM   25  O   UNK     0     -20.101  51.548  11.416  0.00  0.00    -0.387 OA
HETATM   26  H   UNK     0     -19.151  51.738  11.478  0.00  0.00     0.210 HD
ENDBRANCH  23  25
BRANCH  23  27
HETATM   27  C   UNK     0     -19.491  51.536  13.757  0.00  0.00     0.152 C 
BRANCH  27  28
HETATM   28  O   UNK     0     -18.254  51.322  13.070  0.00  0.00    -0.393 OA
HETATM   29  H   UNK     0     -17.646  52.032  13.337  0.00  0.00     0.210 HD
ENDBRANCH  27  28
BRANCH  27  30
HETATM   30  C   UNK     0     -19.619  50.476  14.868  0.00  0.00     0.037 C 
BRANCH  30  31
HETATM   31  C   UNK     0     -18.265  49.827  15.205  0.00  0.00     0.040 C 
BRANCH  31  32
HETATM   32  C   UNK     0     -17.740  50.140  16.622  0.00  0.00     0.051 C 
HETATM   33  C   UNK     0     -18.861  49.926  17.644  0.00  0.00     0.045 C 
HETATM   34  C   UNK     0     -16.523  49.289  16.998  0.00  0.00     0.045 C 
BRANCH  32  35
HETATM   35  O   UNK     0     -17.360  51.516  16.668  0.00  0.00    -0.391 OA
HETATM   36  H   UNK     0     -18.088  52.051  16.311  0.00  0.00     0.210 HD
ENDBRANCH  32  35
ENDBRANCH  31  32
ENDBRANCH  30  31
ENDBRANCH  27  30
ENDBRANCH  23  27
ENDBRANCH   5  23
BRANCH  10  37
HETATM   37  O   UNK     0     -24.987  52.844   9.300  0.00  0.00    -0.395 OA
HETATM   38  H   UNK     0     -25.286  52.250  10.009  0.00  0.00     0.210 HD
ENDBRANCH  10  37
BRANCH  19  39
HETATM   39  O   UNK     0     -28.044  57.962  10.755  0.00  0.00    -0.393 OA
HETATM   40  H   UNK     0     -27.843  58.284  11.649  0.00  0.00     0.210 HD
ENDBRANCH  19  39
BRANCH  20  41
HETATM   41  O   UNK     0     -27.329  57.592   7.990  0.00  0.00    -0.393 OA
HETATM   42  H   UNK     0     -27.133  58.424   8.451  0.00  0.00     0.210 HD
ENDBRANCH  20  41
ENDBRANCH   1   3
TORSDOF 12
ENDMDL
MODEL 4
REMARK VINA RESULT:      -7.6     11.258     16.340
REMARK  12 active torsions:
REMARK  status: ('A' for Active; 'I' for Inactive)
REMARK    1  A    between atoms: O_1  and  C_10 
REMARK    2  A    between atoms: O_2  and  C_17 
REMARK    3  A    between atoms: O_3  and  C_20 
REMARK    4  A    between atoms: O_4  and  C_27 
REMARK    5  A    between atoms: O_6  and  C_29 
REMARK    6  A    between atoms: O_7  and  C_28 
REMARK    7  A    between atoms: O_8  and  C_33 
REMARK    8  A    between atoms: C_11  and  C_20 
REMARK    9  A    between atoms: C_20  and  C_28 
REMARK   10  A    between atoms: C_28  and  C_31 
REMARK   11  A    between atoms: C_31  and  C_32 
REMARK   12  A    between atoms: C_32  and  C_33 
ROOT
HETATM    1  O   UNK     0     -13.606  40.094  10.190  0.00  0.00    -0.384 OA
HETATM    2  H   UNK     0     -13.282  40.400  11.050  0.00  0.00     0.211 HD
ENDROOT
BRANCH   1   3
HETATM    3  C   UNK     0     -12.644  40.361   9.144  0.00  0.00     0.090 C 
HETATM    4  C   UNK     0     -11.370  40.997   9.759  0.00  0.00    -0.000 C 
HETATM    5  C   UNK     0     -11.946  42.332  10.299  0.00  0.00     0.034 C 
HETATM    6  C   UNK     0     -10.834  40.060  10.850  0.00  0.00     0.045 C 
HETATM    7  C   UNK     0     -10.256  41.262   8.709  0.00  0.00     0.019 C 
HETATM    8  C   UNK     0     -12.937  42.777   9.199  0.00  0.00     0.012 C 
HETATM    9  C   UNK     0     -13.230  41.528   8.338  0.00  0.00     0.044 C 
HETATM   10  C   UNK     0     -10.519  38.659  10.287  0.00  0.00     0.128 C 
HETATM   11  C   UNK     0     -11.700  37.996   9.485  0.00  0.00     0.055 C 
HETATM   12  C   UNK     0     -11.315  36.611   8.800  0.00  0.00    -0.021 C 
HETATM   13  C   UNK     0     -12.334  39.017   8.517  0.00  0.00    -0.034 C 
HETATM   14  C   UNK     0     -12.351  36.251   7.695  0.00  0.00     0.071 C 
HETATM   15  C   UNK     0     -11.241  35.447   9.855  0.00  0.00     0.045 C 
HETATM   16  C   UNK     0      -9.921  36.706   8.119  0.00  0.00     0.017 C 
HETATM   17  C   UNK     0     -13.745  35.848   8.209  0.00  0.00     0.047 C 
HETATM   18  C   UNK     0     -12.508  37.384   6.703  0.00  0.00     0.154 C 
HETATM   19  C   UNK     0     -13.726  35.178   9.579  0.00  0.00     0.147 C 
HETATM   20  C   UNK     0     -12.411  34.458   9.840  0.00  0.00     0.147 C 
HETATM   21  O   UNK     0     -12.606  37.185   5.494  0.00  0.00    -0.293 OA
HETATM   22  C   UNK     0     -12.640  38.753   7.238  0.00  0.00     0.057 C 
BRANCH   5  23
HETATM   23  C   UNK     0     -10.936  43.413  10.658  0.00  0.00     0.084 C 
HETATM   24  C   UNK     0      -9.664  42.769  11.232  0.00  0.00     0.049 C 
BRANCH  23  25
HETATM   25  O   UNK     0     -10.563  44.101   9.456  0.00  0.00    -0.387 OA
HETATM   26  H   UNK     0     -10.493  45.051   9.645  0.00  0.00     0.210 HD
ENDBRANCH  23  25
BRANCH  23  27
HETATM   27  C   UNK     0     -11.519  44.456  11.650  0.00  0.00     0.152 C 
BRANCH  27  28
HETATM   28  O   UNK     0     -10.522  45.437  11.955  0.00  0.00    -0.393 OA
HETATM   29  H   UNK     0      -9.658  44.993  11.922  0.00  0.00     0.210 HD
ENDBRANCH  27  28
BRANCH  27  30
HETATM   30  C   UNK     0     -12.027  43.853  12.974  0.00  0.00     0.037 C 
BRANCH  30  31
HETATM   31  C   UNK     0     -13.534  44.095  13.177  0.00  0.00     0.040 C 
BRANCH  31  32
HETATM   32  C   UNK     0     -14.380  42.808  13.284  0.00  0.00     0.051 C 
HETATM   33  C   UNK     0     -15.291  42.690  12.057  0.00  0.00     0.045 C 
HETATM   34  C   UNK     0     -13.519  41.549  13.416  0.00  0.00     0.045 C 
BRANCH  32  35
HETATM   35  O   UNK     0     -15.212  42.910  14.440  0.00  0.00    -0.391 OA
HETATM   36  H   UNK     0     -15.321  43.850  14.663  0.00  0.00     0.210 HD
ENDBRANCH  32  35
ENDBRANCH  31  32
ENDBRANCH  30  31
ENDBRANCH  27  30
ENDBRANCH  23  27
ENDBRANCH   5  23
BRANCH  10  37
HETATM   37  O   UNK     0     -10.138  37.839  11.389  0.00  0.00    -0.395 OA
HETATM   38  H   UNK     0     -10.919  37.726  11.957  0.00  0.00     0.210 HD
ENDBRANCH  10  37
BRANCH  19  39
HETATM   39  O   UNK     0     -14.817  34.265   9.657  0.00  0.00    -0.393 OA
HETATM   40  H   UNK     0     -15.636  34.778   9.760  0.00  0.00     0.210 HD
ENDBRANCH  19  39
BRANCH  20  41
HETATM   41  O   UNK     0     -12.174  33.473   8.833  0.00  0.00    -0.393 OA
HETATM   42  H   UNK     0     -11.729  32.720   9.256  0.00  0.00     0.210 HD
ENDBRANCH  20  41
ENDBRANCH   1   3
TORSDOF 12
ENDMDL
MODEL 5
REMARK VINA RESULT:      -7.4     12.412     17.098
REMARK  12 active torsions:
REMARK  status: ('A' for Active; 'I' for Inactive)
REMARK    1  A    between atoms: O_1  and  C_10 
REMARK    2  A    between atoms: O_2  and  C_17 
REMARK    3  A    between atoms: O_3  and  C_20 
REMARK    4  A    between atoms: O_4  and  C_27 
REMARK    5  A    between atoms: O_6  and  C_29 
REMARK    6  A    between atoms: O_7  and  C_28 
REMARK    7  A    between atoms: O_8  and  C_33 
REMARK    8  A    between atoms: C_11  and  C_20 
REMARK    9  A    between atoms: C_20  and  C_28 
REMARK   10  A    between atoms: C_28  and  C_31 
REMARK   11  A    between atoms: C_31  and  C_32 
REMARK   12  A    between atoms: C_32  and  C_33 
ROOT
HETATM    1  O   UNK     0     -13.374  39.046   8.841  0.00  0.00    -0.384 OA
HETATM    2  H   UNK     0     -13.712  38.466   8.144  0.00  0.00     0.211 HD
ENDROOT
BRANCH   1   3
HETATM    3  C   UNK     0     -12.772  38.282   9.911  0.00  0.00     0.090 C 
HETATM    4  C   UNK     0     -11.519  37.540   9.378  0.00  0.00    -0.000 C 
HETATM    5  C   UNK     0     -12.168  36.582   8.345  0.00  0.00     0.034 C 
HETATM    6  C   UNK     0     -10.566  38.572   8.759  0.00  0.00     0.045 C 
HETATM    7  C   UNK     0     -10.772  36.739  10.480  0.00  0.00     0.019 C 
HETATM    8  C   UNK     0     -13.468  36.118   9.042  0.00  0.00     0.012 C 
HETATM    9  C   UNK     0     -13.741  37.123  10.182  0.00  0.00     0.044 C 
HETATM   10  C   UNK     0     -10.158  39.650   9.785  0.00  0.00     0.128 C 
HETATM   11  C   UNK     0     -11.366  40.344  10.518  0.00  0.00     0.055 C 
HETATM   12  C   UNK     0     -10.926  41.358  11.665  0.00  0.00    -0.021 C 
HETATM   13  C   UNK     0     -12.396  39.291  10.977  0.00  0.00    -0.034 C 
HETATM   14  C   UNK     0     -12.126  41.654  12.611  0.00  0.00     0.071 C 
HETATM   15  C   UNK     0     -10.381  42.706  11.065  0.00  0.00     0.045 C 
HETATM   16  C   UNK     0      -9.789  40.746  12.530  0.00  0.00     0.017 C 
HETATM   17  C   UNK     0     -13.250  42.509  11.998  0.00  0.00     0.047 C 
HETATM   18  C   UNK     0     -12.728  40.371  13.146  0.00  0.00     0.154 C 
HETATM   19  C   UNK     0     -12.766  43.494  10.940  0.00  0.00     0.147 C 
HETATM   20  C   UNK     0     -11.320  43.911  11.171  0.00  0.00     0.147 C 
HETATM   21  O   UNK     0     -13.091  40.259  14.315  0.00  0.00    -0.293 OA
HETATM   22  C   UNK     0     -12.963  39.271  12.192  0.00  0.00     0.057 C 
BRANCH   5  23
HETATM   23  C   UNK     0     -11.310  35.421   7.860  0.00  0.00     0.084 C 
HETATM   24  C   UNK     0     -10.717  35.752   6.481  0.00  0.00     0.049 C 
BRANCH  23  25
HETATM   25  O   UNK     0     -10.214  35.257   8.770  0.00  0.00    -0.387 OA
HETATM   26  H   UNK     0     -10.035  36.108   9.204  0.00  0.00     0.210 HD
ENDBRANCH  23  25
BRANCH  23  27
HETATM   27  C   UNK     0     -12.102  34.086   7.811  0.00  0.00     0.152 C 
BRANCH  27  28
HETATM   28  O   UNK     0     -11.687  33.242   8.890  0.00  0.00    -0.393 OA
HETATM   29  H   UNK     0     -10.805  32.900   8.668  0.00  0.00     0.210 HD
ENDBRANCH  27  28
BRANCH  27  30
HETATM   30  C   UNK     0     -11.941  33.303   6.494  0.00  0.00     0.037 C 
BRANCH  30  31
HETATM   31  C   UNK     0     -13.265  33.207   5.714  0.00  0.00     0.040 C 
BRANCH  31  32
HETATM   32  C   UNK     0     -13.141  33.494   4.203  0.00  0.00     0.051 C 
HETATM   33  C   UNK     0     -11.674  33.375   3.776  0.00  0.00     0.045 C 
HETATM   34  C   UNK     0     -14.007  32.559   3.355  0.00  0.00     0.045 C 
BRANCH  32  35
HETATM   35  O   UNK     0     -13.560  34.839   3.964  0.00  0.00    -0.391 OA
HETATM   36  H   UNK     0     -13.868  35.222   4.803  0.00  0.00     0.210 HD
ENDBRANCH  32  35
ENDBRANCH  31  32
ENDBRANCH  30  31
ENDBRANCH  27  30
ENDBRANCH  23  27
ENDBRANCH   5  23
BRANCH  10  37
HETATM   37  O   UNK     0      -9.372  40.615   9.091  0.00  0.00    -0.395 OA
HETATM   38  H   UNK     0      -9.602  41.492   9.441  0.00  0.00     0.210 HD
ENDBRANCH  10  37
BRANCH  19  39
HETATM   39  O   UNK     0     -13.620  44.634  10.950  0.00  0.00    -0.393 OA
HETATM   40  H   UNK     0     -13.165  45.360  10.493  0.00  0.00     0.210 HD
ENDBRANCH  19  39
BRANCH  20  41
HETATM   41  O   UNK     0     -11.174  44.502  12.464  0.00  0.00    -0.393 OA
HETATM   42  H   UNK     0     -11.116  43.781  13.112  0.00  0.00     0.210 HD
ENDBRANCH  20  41
ENDBRANCH   1   3
TORSDOF 12
ENDMDL
MODEL 6
REMARK VINA RESULT:      -7.2      2.263      8.223
REMARK  12 active torsions:
REMARK  status: ('A' for Active; 'I' for Inactive)
REMARK    1  A    between atoms: O_1  and  C_10 
REMARK    2  A    between atoms: O_2  and  C_17 
REMARK    3  A    between atoms: O_3  and  C_20 
REMARK    4  A    between atoms: O_4  and  C_27 
REMARK    5  A    between atoms: O_6  and  C_29 
REMARK    6  A    between atoms: O_7  and  C_28 
REMARK    7  A    between atoms: O_8  and  C_33 
REMARK    8  A    between atoms: C_11  and  C_20 
REMARK    9  A    between atoms: C_20  and  C_28 
REMARK   10  A    between atoms: C_28  and  C_31 
REMARK   11  A    between atoms: C_31  and  C_32 
REMARK   12  A    between atoms: C_32  and  C_33 
ROOT
HETATM    1  O   UNK     0     -20.541  53.469  10.460  0.00  0.00    -0.384 OA
HETATM    2  H   UNK     0     -19.858  52.784  10.474  0.00  0.00     0.211 HD
ENDROOT
BRANCH   1   3
HETATM    3  C   UNK     0     -21.375  53.400  11.639  0.00  0.00     0.090 C 
HETATM    4  C   UNK     0     -22.846  53.142  11.222  0.00  0.00    -0.000 C 
HETATM    5  C   UNK     0     -23.155  54.440  10.432  0.00  0.00     0.034 C 
HETATM    6  C   UNK     0     -22.895  51.865  10.371  0.00  0.00     0.045 C 
HETATM    7  C   UNK     0     -23.805  52.994  12.436  0.00  0.00     0.019 C 
HETATM    8  C   UNK     0     -22.457  55.547  11.256  0.00  0.00     0.012 C 
HETATM    9  C   UNK     0     -21.440  54.837  12.177  0.00  0.00     0.044 C 
HETATM   10  C   UNK     0     -22.332  50.652  11.139  0.00  0.00     0.128 C 
HETATM   11  C   UNK     0     -20.903  50.878  11.760  0.00  0.00     0.055 C 
HETATM   12  C   UNK     0     -20.392  49.667  12.659  0.00  0.00    -0.021 C 
HETATM   13  C   UNK     0     -20.831  52.250  12.463  0.00  0.00    -0.034 C 
HETATM   14  C   UNK     0     -19.217  50.130  13.569  0.00  0.00     0.071 C 
HETATM   15  C   UNK     0     -19.930  48.449  11.777  0.00  0.00     0.045 C 
HETATM   16  C   UNK     0     -21.530  49.157  13.588  0.00  0.00     0.017 C 
HETATM   17  C   UNK     0     -17.894  50.417  12.837  0.00  0.00     0.047 C 
HETATM   18  C   UNK     0     -19.602  51.352  14.377  0.00  0.00     0.154 C 
HETATM   19  C   UNK     0     -17.690  49.575  11.583  0.00  0.00     0.147 C 
HETATM   20  C   UNK     0     -18.416  48.240  11.670  0.00  0.00     0.147 C 
HETATM   21  O   UNK     0     -19.282  51.481  15.557  0.00  0.00    -0.293 OA
HETATM   22  C   UNK     0     -20.297  52.449  13.676  0.00  0.00     0.057 C 
BRANCH   5  23
HETATM   23  C   UNK     0     -24.623  54.740  10.162  0.00  0.00     0.084 C 
HETATM   24  C   UNK     0     -25.003  54.259   8.753  0.00  0.00     0.049 C 
BRANCH  23  25
HETATM   25  O   UNK     0     -25.416  53.997  11.097  0.00  0.00    -0.387 OA
HETATM   26  H   UNK     0     -26.345  54.028  10.817  0.00  0.00     0.210 HD
ENDBRANCH  23  25
BRANCH  23  27
HETATM   27  C   UNK     0     -24.956  56.247  10.335  0.00  0.00     0.152 C 
BRANCH  27  28
HETATM   28  O   UNK     0     -26.236  56.387  10.959  0.00  0.00    -0.393 OA
HETATM   29  H   UNK     0     -26.754  57.013  10.425  0.00  0.00     0.210 HD
ENDBRANCH  27  28
BRANCH  27  30
HETATM   30  C   UNK     0     -24.968  57.047   9.019  0.00  0.00     0.037 C 
BRANCH  30  31
HETATM   31  C   UNK     0     -24.116  58.326   9.112  0.00  0.00     0.040 C 
BRANCH  31  32
HETATM   32  C   UNK     0     -22.768  58.253   8.365  0.00  0.00     0.051 C 
HETATM   33  C   UNK     0     -21.618  58.429   9.362  0.00  0.00     0.045 C 
HETATM   34  C   UNK     0     -22.594  56.940   7.596  0.00  0.00     0.045 C 
BRANCH  32  35
HETATM   35  O   UNK     0     -22.710  59.334   7.432  0.00  0.00    -0.391 OA
HETATM   36  H   UNK     0     -23.152  59.060   6.611  0.00  0.00     0.210 HD
ENDBRANCH  32  35
ENDBRANCH  31  32
ENDBRANCH  30  31
ENDBRANCH  27  30
ENDBRANCH  23  27
ENDBRANCH   5  23
BRANCH  10  37
HETATM   37  O   UNK     0     -22.317  49.552  10.234  0.00  0.00    -0.395 OA
HETATM   38  H   UNK     0     -23.223  49.428   9.904  0.00  0.00     0.210 HD
ENDBRANCH  10  37
BRANCH  19  39
HETATM   39  O   UNK     0     -16.293  49.369  11.392  0.00  0.00    -0.393 OA
HETATM   40  H   UNK     0     -16.166  48.498  10.981  0.00  0.00     0.210 HD
ENDBRANCH  19  39
BRANCH  20  41
HETATM   41  O   UNK     0     -17.967  47.503  12.809  0.00  0.00    -0.393 OA
HETATM   42  H   UNK     0     -16.997  47.556  12.830  0.00  0.00     0.210 HD
ENDBRANCH  20  41
ENDBRANCH   1   3
TORSDOF 12
ENDMDL
MODEL 7
REMARK VINA RESULT:      -7.1      2.350      3.647
REMARK  12 active torsions:
REMARK  status: ('A' for Active; 'I' for Inactive)
REMARK    1  A    between atoms: O_1  and  C_10 
REMARK    2  A    between atoms: O_2  and  C_17 
REMARK    3  A    between atoms: O_3  and  C_20 
REMARK    4  A    between atoms: O_4  and  C_27 
REMARK    5  A    between atoms: O_6  and  C_29 
REMARK    6  A    between atoms: O_7  and  C_28 
REMARK    7  A    between atoms: O_8  and  C_33 
REMARK    8  A    between atoms: C_11  and  C_20 
REMARK    9  A    between atoms: C_20  and  C_28 
REMARK   10  A    between atoms: C_28  and  C_31 
REMARK   11  A    between atoms: C_31  and  C_32 
REMARK   12  A    between atoms: C_32  and  C_33 
ROOT
HETATM    1  O   UNK     0     -22.209  52.988   8.705  0.00  0.00    -0.384 OA
HETATM    2  H   UNK     0     -21.597  53.733   8.625  0.00  0.00     0.211 HD
ENDROOT
BRANCH   1   3
HETATM    3  C   UNK     0     -22.923  53.031   9.962  0.00  0.00     0.090 C 
HETATM    4  C   UNK     0     -21.923  52.853  11.134  0.00  0.00    -0.000 C 
HETATM    5  C   UNK     0     -21.414  51.413  10.864  0.00  0.00     0.034 C 
HETATM    6  C   UNK     0     -20.837  53.932  11.017  0.00  0.00     0.045 C 
HETATM    7  C   UNK     0     -22.600  52.946  12.529  0.00  0.00     0.019 C 
HETATM    8  C   UNK     0     -22.684  50.651  10.419  0.00  0.00     0.012 C 
HETATM    9  C   UNK     0     -23.724  51.722  10.021  0.00  0.00     0.044 C 
HETATM   10  C   UNK     0     -21.445  55.349  11.037  0.00  0.00     0.128 C 
HETATM   11  C   UNK     0     -22.602  55.579   9.995  0.00  0.00     0.055 C 
HETATM   12  C   UNK     0     -23.307  57.002  10.118  0.00  0.00    -0.021 C 
HETATM   13  C   UNK     0     -23.587  54.391  10.013  0.00  0.00    -0.034 C 
HETATM   14  C   UNK     0     -24.681  56.987   9.388  0.00  0.00     0.071 C 
HETATM   15  C   UNK     0     -22.404  58.145   9.524  0.00  0.00     0.045 C 
HETATM   16  C   UNK     0     -23.573  57.354  11.608  0.00  0.00     0.017 C 
HETATM   17  C   UNK     0     -24.608  56.924   7.851  0.00  0.00     0.047 C 
HETATM   18  C   UNK     0     -25.548  55.847   9.880  0.00  0.00     0.154 C 
HETATM   19  C   UNK     0     -23.365  57.587   7.267  0.00  0.00     0.147 C 
HETATM   20  C   UNK     0     -22.841  58.700   8.164  0.00  0.00     0.147 C 
HETATM   21  O   UNK     0     -26.754  55.983  10.079  0.00  0.00    -0.293 OA
HETATM   22  C   UNK     0     -24.922  54.519  10.024  0.00  0.00     0.057 C 
BRANCH   5  23
HETATM   23  C   UNK     0     -20.682  50.724  12.008  0.00  0.00     0.084 C 
HETATM   24  C   UNK     0     -21.697  50.061  12.953  0.00  0.00     0.049 C 
BRANCH  23  25
HETATM   25  O   UNK     0     -19.863  49.683  11.459  0.00  0.00    -0.387 OA
HETATM   26  H   UNK     0     -18.933  49.962  11.494  0.00  0.00     0.210 HD
ENDBRANCH  23  25
BRANCH  23  27
HETATM   27  C   UNK     0     -19.762  51.702  12.789  0.00  0.00     0.152 C 
BRANCH  27  28
HETATM   28  O   UNK     0     -18.440  51.657  12.244  0.00  0.00    -0.393 OA
HETATM   29  H   UNK     0     -18.078  50.774  12.431  0.00  0.00     0.210 HD
ENDBRANCH  27  28
BRANCH  27  30
HETATM   30  C   UNK     0     -19.673  51.415  14.301  0.00  0.00     0.037 C 
BRANCH  30  31
HETATM   31  C   UNK     0     -18.272  50.928  14.714  0.00  0.00     0.040 C 
BRANCH  31  32
HETATM   32  C   UNK     0     -18.248  50.048  15.982  0.00  0.00     0.051 C 
HETATM   33  C   UNK     0     -18.684  48.623  15.626  0.00  0.00     0.045 C 
HETATM   34  C   UNK     0     -16.871  50.020  16.650  0.00  0.00     0.045 C 
BRANCH  32  35
HETATM   35  O   UNK     0     -19.193  50.576  16.915  0.00  0.00    -0.391 OA
HETATM   36  H   UNK     0     -18.807  50.532  17.806  0.00  0.00     0.210 HD
ENDBRANCH  32  35
ENDBRANCH  31  32
ENDBRANCH  30  31
ENDBRANCH  27  30
ENDBRANCH  23  27
ENDBRANCH   5  23
BRANCH  10  37
HETATM   37  O   UNK     0     -20.379  56.267  10.812  0.00  0.00    -0.395 OA
HETATM   38  H   UNK     0     -20.740  57.028  10.326  0.00  0.00     0.210 HD
ENDBRANCH  10  37
BRANCH  19  39
HETATM   39  O   UNK     0     -23.683  58.097   5.976  0.00  0.00    -0.393 OA
HETATM   40  H   UNK     0     -23.896  59.041   6.065  0.00  0.00     0.210 HD
ENDBRANCH  19  39
BRANCH  20  41
HETATM   41  O   UNK     0     -23.849  59.691   8.368  0.00  0.00    -0.393 OA
HETATM   42  H   UNK     0     -24.693  59.320   8.059  0.00  0.00     0.210 HD
ENDBRANCH  20  41
ENDBRANCH   1   3
TORSDOF 12
ENDMDL
MODEL 8
REMARK VINA RESULT:      -7.1      1.833      3.275
REMARK  12 active torsions:
REMARK  status: ('A' for Active; 'I' for Inactive)
REMARK    1  A    between atoms: O_1  and  C_10 
REMARK    2  A    between atoms: O_2  and  C_17 
REMARK    3  A    between atoms: O_3  and  C_20 
REMARK    4  A    between atoms: O_4  and  C_27 
REMARK    5  A    between atoms: O_6  and  C_29 
REMARK    6  A    between atoms: O_7  and  C_28 
REMARK    7  A    between atoms: O_8  and  C_33 
REMARK    8  A    between atoms: C_11  and  C_20 
REMARK    9  A    between atoms: C_20  and  C_28 
REMARK   10  A    between atoms: C_28  and  C_31 
REMARK   11  A    between atoms: C_31  and  C_32 
REMARK   12  A    between atoms: C_32  and  C_33 
ROOT
HETATM    1  O   UNK     0     -18.367  52.727  10.357  0.00  0.00    -0.384 OA
HETATM    2  H   UNK     0     -18.171  53.221   9.547  0.00  0.00     0.211 HD
ENDROOT
BRANCH   1   3
HETATM    3  C   UNK     0     -19.565  51.932  10.207  0.00  0.00     0.090 C 
HETATM    4  C   UNK     0     -19.568  50.792  11.258  0.00  0.00    -0.000 C 
HETATM    5  C   UNK     0     -18.332  49.975  10.802  0.00  0.00     0.034 C 
HETATM    6  C   UNK     0     -19.426  51.415  12.654  0.00  0.00     0.045 C 
HETATM    7  C   UNK     0     -20.854  49.922  11.207  0.00  0.00     0.019 C 
HETATM    8  C   UNK     0     -18.421  50.004   9.259  0.00  0.00     0.012 C 
HETATM    9  C   UNK     0     -19.380  51.158   8.894  0.00  0.00     0.044 C 
HETATM   10  C   UNK     0     -20.561  52.419  12.943  0.00  0.00     0.128 C 
HETATM   11  C   UNK     0     -20.757  53.520  11.836  0.00  0.00     0.055 C 
HETATM   12  C   UNK     0     -22.014  54.465  12.084  0.00  0.00    -0.021 C 
HETATM   13  C   UNK     0     -20.722  52.884  10.430  0.00  0.00    -0.034 C 
HETATM   14  C   UNK     0     -22.396  55.210  10.771  0.00  0.00     0.071 C 
HETATM   15  C   UNK     0     -21.732  55.513  13.223  0.00  0.00     0.045 C 
HETATM   16  C   UNK     0     -23.250  53.630  12.523  0.00  0.00     0.017 C 
HETATM   17  C   UNK     0     -21.404  56.297  10.321  0.00  0.00     0.047 C 
HETATM   18  C   UNK     0     -22.599  54.234   9.630  0.00  0.00     0.154 C 
HETATM   19  C   UNK     0     -20.667  56.972  11.472  0.00  0.00     0.147 C 
HETATM   20  C   UNK     0     -21.482  56.952  12.758  0.00  0.00     0.147 C 
HETATM   21  O   UNK     0     -23.512  54.361   8.818  0.00  0.00    -0.293 OA
HETATM   22  C   UNK     0     -21.598  53.164   9.454  0.00  0.00     0.057 C 
BRANCH   5  23
HETATM   23  C   UNK     0     -18.204  48.564  11.361  0.00  0.00     0.084 C 
HETATM   24  C   UNK     0     -17.279  48.571  12.589  0.00  0.00     0.049 C 
BRANCH  23  25
HETATM   25  O   UNK     0     -19.499  48.133  11.802  0.00  0.00    -0.387 OA
HETATM   26  H   UNK     0     -19.503  47.164  11.867  0.00  0.00     0.210 HD
ENDBRANCH  23  25
BRANCH  23  27
HETATM   27  C   UNK     0     -17.695  47.555  10.296  0.00  0.00     0.152 C 
BRANCH  27  28
HETATM   28  O   UNK     0     -18.386  46.310  10.447  0.00  0.00    -0.393 OA
HETATM   29  H   UNK     0     -18.175  45.965  11.331  0.00  0.00     0.210 HD
ENDBRANCH  27  28
BRANCH  27  30
HETATM   30  C   UNK     0     -16.181  47.279  10.359  0.00  0.00     0.037 C 
BRANCH  30  31
HETATM   31  C   UNK     0     -15.779  46.063   9.504  0.00  0.00     0.040 C 
BRANCH  31  32
HETATM   32  C   UNK     0     -15.304  44.839  10.315  0.00  0.00     0.051 C 
HETATM   33  C   UNK     0     -14.257  44.064   9.508  0.00  0.00     0.045 C 
HETATM   34  C   UNK     0     -14.728  45.227  11.679  0.00  0.00     0.045 C 
BRANCH  32  35
HETATM   35  O   UNK     0     -16.423  43.976  10.525  0.00  0.00    -0.391 OA
HETATM   36  H   UNK     0     -16.367  43.236   9.897  0.00  0.00     0.210 HD
ENDBRANCH  32  35
ENDBRANCH  31  32
ENDBRANCH  30  31
ENDBRANCH  27  30
ENDBRANCH  23  27
ENDBRANCH   5  23
BRANCH  10  37
HETATM   37  O   UNK     0     -20.279  53.020  14.204  0.00  0.00    -0.395 OA
HETATM   38  H   UNK     0     -20.857  53.796  14.297  0.00  0.00     0.210 HD
ENDBRANCH  10  37
BRANCH  19  39
HETATM   39  O   UNK     0     -20.362  58.312  11.098  0.00  0.00    -0.393 OA
HETATM   40  H   UNK     0     -19.761  58.686  11.764  0.00  0.00     0.210 HD
ENDBRANCH  19  39
BRANCH  20  41
HETATM   41  O   UNK     0     -22.738  57.602  12.560  0.00  0.00    -0.393 OA
HETATM   42  H   UNK     0     -23.297  57.007  12.033  0.00  0.00     0.210 HD
ENDBRANCH  20  41
ENDBRANCH   1   3
TORSDOF 12
ENDMDL
MODEL 9
REMARK VINA RESULT:      -7.0     12.394     17.646
REMARK  12 active torsions:
REMARK  status: ('A' for Active; 'I' for Inactive)
REMARK    1  A    between atoms: O_1  and  C_10 
REMARK    2  A    between atoms: O_2  and  C_17 
REMARK    3  A    between atoms: O_3  and  C_20 
REMARK    4  A    between atoms: O_4  and  C_27 
REMARK    5  A    between atoms: O_6  and  C_29 
REMARK    6  A    between atoms: O_7  and  C_28 
REMARK    7  A    between atoms: O_8  and  C_33 
REMARK    8  A    between atoms: C_11  and  C_20 
REMARK    9  A    between atoms: C_20  and  C_28 
REMARK   10  A    between atoms: C_28  and  C_31 
REMARK   11  A    between atoms: C_31  and  C_32 
REMARK   12  A    between atoms: C_32  and  C_33 
ROOT
HETATM    1  O   UNK     0     -13.122  38.825   7.406  0.00  0.00    -0.384 OA
HETATM    2  H   UNK     0     -13.045  39.776   7.568  0.00  0.00     0.211 HD
ENDROOT
BRANCH   1   3
HETATM    3  C   UNK     0     -11.835  38.173   7.503  0.00  0.00     0.090 C 
HETATM    4  C   UNK     0     -11.144  38.582   8.829  0.00  0.00    -0.000 C 
HETATM    5  C   UNK     0     -10.948  40.103   8.596  0.00  0.00     0.034 C 
HETATM    6  C   UNK     0     -12.083  38.244   9.995  0.00  0.00     0.045 C 
HETATM    7  C   UNK     0      -9.775  37.877   9.044  0.00  0.00     0.019 C 
HETATM    8  C   UNK     0     -10.543  40.197   7.106  0.00  0.00     0.012 C 
HETATM    9  C   UNK     0     -10.950  38.858   6.453  0.00  0.00     0.044 C 
HETATM   10  C   UNK     0     -12.442  36.744  10.015  0.00  0.00     0.128 C 
HETATM   11  C   UNK     0     -12.991  36.186   8.649  0.00  0.00     0.055 C 
HETATM   12  C   UNK     0     -13.231  34.611   8.647  0.00  0.00    -0.021 C 
HETATM   13  C   UNK     0     -12.124  36.686   7.474  0.00  0.00    -0.034 C 
HETATM   14  C   UNK     0     -13.340  34.084   7.187  0.00  0.00     0.071 C 
HETATM   15  C   UNK     0     -14.531  34.226   9.446  0.00  0.00     0.045 C 
HETATM   16  C   UNK     0     -12.040  33.875   9.323  0.00  0.00     0.017 C 
HETATM   17  C   UNK     0     -14.620  34.491   6.436  0.00  0.00     0.047 C 
HETATM   18  C   UNK     0     -12.140  34.506   6.365  0.00  0.00     0.154 C 
HETATM   19  C   UNK     0     -15.832  34.677   7.342  0.00  0.00     0.147 C 
HETATM   20  C   UNK     0     -15.740  33.821   8.597  0.00  0.00     0.147 C 
HETATM   21  O   UNK     0     -11.597  33.746   5.565  0.00  0.00    -0.293 OA
HETATM   22  C   UNK     0     -11.688  35.907   6.474  0.00  0.00     0.057 C 
BRANCH   5  23
HETATM   23  C   UNK     0      -9.969  40.813   9.521  0.00  0.00     0.084 C 
HETATM   24  C   UNK     0     -10.141  40.295  10.958  0.00  0.00     0.049 C 
BRANCH  23  25
HETATM   25  O   UNK     0      -8.636  40.489   9.105  0.00  0.00    -0.387 OA
HETATM   26  H   UNK     0      -8.027  40.653   9.844  0.00  0.00     0.210 HD
ENDBRANCH  23  25
BRANCH  23  27
HETATM   27  C   UNK     0     -10.130  42.357   9.472  0.00  0.00     0.152 C 
BRANCH  27  28
HETATM   28  O   UNK     0      -9.106  42.971  10.261  0.00  0.00    -0.393 OA
HETATM   29  H   UNK     0      -9.485  43.774  10.656  0.00  0.00     0.210 HD
ENDBRANCH  27  28
BRANCH  27  30
HETATM   30  C   UNK     0     -11.496  42.867   9.970  0.00  0.00     0.037 C 
BRANCH  30  31
HETATM   31  C   UNK     0     -11.353  44.077  10.910  0.00  0.00     0.040 C 
BRANCH  31  32
HETATM   32  C   UNK     0     -12.093  43.933  12.257  0.00  0.00     0.051 C 
HETATM   33  C   UNK     0     -13.346  44.816  12.251  0.00  0.00     0.045 C 
HETATM   34  C   UNK     0     -12.479  42.483  12.562  0.00  0.00     0.045 C 
BRANCH  32  35
HETATM   35  O   UNK     0     -11.232  44.400  13.297  0.00  0.00    -0.391 OA
HETATM   36  H   UNK     0     -11.733  44.422  14.129  0.00  0.00     0.210 HD
ENDBRANCH  32  35
ENDBRANCH  31  32
ENDBRANCH  30  31
ENDBRANCH  27  30
ENDBRANCH  23  27
ENDBRANCH   5  23
BRANCH  10  37
HETATM   37  O   UNK     0     -13.398  36.554  11.054  0.00  0.00    -0.395 OA
HETATM   38  H   UNK     0     -13.312  37.298  11.675  0.00  0.00     0.210 HD
ENDBRANCH  10  37
BRANCH  19  39
HETATM   39  O   UNK     0     -17.009  34.355   6.606  0.00  0.00    -0.393 OA
HETATM   40  H   UNK     0     -17.416  33.571   7.010  0.00  0.00     0.210 HD
ENDBRANCH  19  39
BRANCH  20  41
HETATM   41  O   UNK     0     -15.622  32.440   8.250  0.00  0.00    -0.393 OA
HETATM   42  H   UNK     0     -16.514  32.110   8.049  0.00  0.00     0.210 HD
ENDBRANCH  20  41
ENDBRANCH   1   3
TORSDOF 12
ENDMDL
