MODEL 1
REMARK VINA RESULT:      -9.1      0.000      0.000
REMARK  Name = 5320623
REMARK  11 active torsions:
REMARK  status: ('A' for Active; 'I' for Inactive)
REMARK    1  A    between atoms: O_2  and  C_16
REMARK    2  A    between atoms: O_2  and  C_18
REMARK    3  A    between atoms: O_3  and  C_12
REMARK    4  A    between atoms: O_4  and  C_13
REMARK    5  A    between atoms: O_5  and  C_14
REMARK    6  A    between atoms: O_6  and  C_17
REMARK    7  A    between atoms: O_8  and  C_20
REMARK    8  A    between atoms: O_9  and  C_23
REMARK    9  A    between atoms: O_11  and  C_32
REMARK   10  A    between atoms: C_15  and  C_17
REMARK   11  A    between atoms: C_25  and  C_27
REMARK                            x       y       z     vdW  Elec       q    Type
REMARK                         _______ _______ _______ _____ _____    ______ ____
ROOT
ATOM      7  O   UNL     1      32.537   7.066  -4.936  0.00  0.00    +0.000 OA
ATOM     10  O   UNL     1      31.786   5.381  -8.568  0.00  0.00    +0.000 OA
ATOM     18  C   UNL     1      35.913   5.966  -5.756  0.00  0.00    +0.000 A 
ATOM     19  C   UNL     1      34.832   6.528  -5.077  0.00  0.00    +0.000 A 
ATOM     20  C   UNL     1      35.723   5.374  -7.006  0.00  0.00    +0.000 A 
ATOM     21  C   UNL     1      33.561   6.498  -5.650  0.00  0.00    +0.000 A 
ATOM     22  C   UNL     1      33.373   5.906  -6.899  0.00  0.00    +0.000 A 
ATOM     23  C   UNL     1      34.453   5.341  -7.582  0.00  0.00    +0.000 A 
ATOM     24  C   UNL     1      32.022   5.886  -7.479  0.00  0.00    +0.000 A 
ATOM     25  C   UNL     1      31.264   7.058  -5.484  0.00  0.00    +0.000 A 
ATOM     26  C   UNL     1      30.956   6.513  -6.672  0.00  0.00    +0.000 A 
ENDROOT
BRANCH  25  27
ATOM     27  C   UNL     1      30.238   7.690  -4.630  0.00  0.00    +0.000 A 
ATOM     28  C   UNL     1      28.931   7.843  -5.099  0.00  0.00    +0.000 A 
ATOM     29  C   UNL     1      30.572   8.139  -3.350  0.00  0.00    +0.000 A 
ATOM     30  C   UNL     1      27.963   8.440  -4.291  0.00  0.00    +0.000 A 
ATOM     31  C   UNL     1      29.604   8.737  -2.543  0.00  0.00    +0.000 A 
ATOM     32  C   UNL     1      28.300   8.888  -3.014  0.00  0.00    +0.000 A 
BRANCH  32  11
ATOM     11  O   UNL     1      27.354   9.471  -2.226  0.00  0.00    +0.000 OA
ATOM     39  H   UNL     1      26.731   8.788  -1.925  0.00  0.00    +0.000 HD
ENDBRANCH  32  11
ENDBRANCH  25  27
BRANCH  20   8
ATOM      8  O   UNL     1      36.787   4.825  -7.663  0.00  0.00    +0.000 OA
ATOM     37  H   UNL     1      37.322   4.330  -7.019  0.00  0.00    +0.000 HD
ENDBRANCH  20   8
BRANCH  23   9
ATOM      9  O   UNL     1      34.309   4.755  -8.803  0.00  0.00    +0.000 OA
ATOM     38  H   UNL     1      35.166   4.674  -9.249  0.00  0.00    +0.000 HD
ENDBRANCH  23   9
BRANCH  18   2
ATOM      2  O   UNL     1      37.153   6.002  -5.186  0.00  0.00    +0.000 OA
BRANCH   2  16
ATOM      1  O   UNL     1      37.490   8.255  -4.681  0.00  0.00    +0.000 OA
ATOM     12  C   UNL     1      38.968   7.588  -2.309  0.00  0.00    +0.000 C 
ATOM     13  C   UNL     1      38.957   8.999  -2.900  0.00  0.00    +0.000 C 
ATOM     14  C   UNL     1      38.602   6.544  -3.365  0.00  0.00    +0.000 C 
ATOM     15  C   UNL     1      37.662   9.254  -3.674  0.00  0.00    +0.000 C 
ATOM     16  C   UNL     1      37.344   6.946  -4.134  0.00  0.00    +0.000 C 
BRANCH  12   3
ATOM      3  O   UNL     1      40.282   7.327  -1.815  0.00  0.00    +0.000 OA
ATOM     33  H   UNL     1      40.304   7.609  -0.884  0.00  0.00    +0.000 HD
ENDBRANCH  12   3
BRANCH  13   4
ATOM      4  O   UNL     1      39.072   9.952  -1.847  0.00  0.00    +0.000 OA
ATOM     34  H   UNL     1      39.226  10.825  -2.248  0.00  0.00    +0.000 HD
ENDBRANCH  13   4
BRANCH  14   5
ATOM      5  O   UNL     1      38.354   5.292  -2.725  0.00  0.00    +0.000 OA
ATOM     35  H   UNL     1      37.659   4.831  -3.222  0.00  0.00    +0.000 HD
ENDBRANCH  14   5
BRANCH  15  17
ATOM     17  C   UNL     1      37.677  10.610  -4.371  0.00  0.00    +0.000 C 
BRANCH  17   6
ATOM      6  O   UNL     1      38.977  11.160  -4.262  0.00  0.00    +0.000 OA
ATOM     36  H   UNL     1      39.226  11.142  -3.322  0.00  0.00    +0.000 HD
ENDBRANCH  17   6
ENDBRANCH  15  17
ENDBRANCH   2  16
ENDBRANCH  18   2
TORSDOF 11
ENDMDL
MODEL 2
REMARK VINA RESULT:      -8.4      1.861      7.976
REMARK  Name = 5320623
REMARK  11 active torsions:
REMARK  status: ('A' for Active; 'I' for Inactive)
REMARK    1  A    between atoms: O_2  and  C_16
REMARK    2  A    between atoms: O_2  and  C_18
REMARK    3  A    between atoms: O_3  and  C_12
REMARK    4  A    between atoms: O_4  and  C_13
REMARK    5  A    between atoms: O_5  and  C_14
REMARK    6  A    between atoms: O_6  and  C_17
REMARK    7  A    between atoms: O_8  and  C_20
REMARK    8  A    between atoms: O_9  and  C_23
REMARK    9  A    between atoms: O_11  and  C_32
REMARK   10  A    between atoms: C_15  and  C_17
REMARK   11  A    between atoms: C_25  and  C_27
REMARK                            x       y       z     vdW  Elec       q    Type
REMARK                         _______ _______ _______ _____ _____    ______ ____
ROOT
ATOM      7  O   UNL     1      34.098   7.123  -4.686  0.00  0.00    +0.000 OA
ATOM     10  O   UNL     1      34.449   4.845  -8.045  0.00  0.00    +0.000 OA
ATOM     18  C   UNL     1      30.693   7.445  -5.945  0.00  0.00    +0.000 A 
ATOM     19  C   UNL     1      31.827   7.583  -5.145  0.00  0.00    +0.000 A 
ATOM     20  C   UNL     1      30.746   6.677  -7.109  0.00  0.00    +0.000 A 
ATOM     21  C   UNL     1      33.016   6.951  -5.512  0.00  0.00    +0.000 A 
ATOM     22  C   UNL     1      33.067   6.184  -6.675  0.00  0.00    +0.000 A 
ATOM     23  C   UNL     1      31.933   6.044  -7.478  0.00  0.00    +0.000 A 
ATOM     24  C   UNL     1      34.333   5.530  -7.038  0.00  0.00    +0.000 A 
ATOM     25  C   UNL     1      35.290   6.500  -5.021  0.00  0.00    +0.000 A 
ATOM     26  C   UNL     1      35.466   5.744  -6.116  0.00  0.00    +0.000 A 
ENDROOT
BRANCH  25  27
ATOM     27  C   UNL     1      36.389   6.757  -4.068  0.00  0.00    +0.000 A 
ATOM     28  C   UNL     1      36.132   6.808  -2.697  0.00  0.00    +0.000 A 
ATOM     29  C   UNL     1      37.691   6.953  -4.536  0.00  0.00    +0.000 A 
ATOM     30  C   UNL     1      37.170   7.051  -1.798  0.00  0.00    +0.000 A 
ATOM     31  C   UNL     1      38.730   7.195  -3.637  0.00  0.00    +0.000 A 
ATOM     32  C   UNL     1      38.469   7.245  -2.268  0.00  0.00    +0.000 A 
BRANCH  32  11
ATOM     11  O   UNL     1      39.483   7.482  -1.391  0.00  0.00    +0.000 OA
ATOM     39  H   UNL     1      40.270   6.990  -1.678  0.00  0.00    +0.000 HD
ENDBRANCH  32  11
ENDBRANCH  25  27
BRANCH  20   8
ATOM      8  O   UNL     1      29.631   6.548  -7.886  0.00  0.00    +0.000 OA
ATOM     37  H   UNL     1      29.123   7.377  -7.833  0.00  0.00    +0.000 HD
ENDBRANCH  20   8
BRANCH  23   9
ATOM      9  O   UNL     1      31.945   5.302  -8.621  0.00  0.00    +0.000 OA
ATOM     38  H   UNL     1      32.152   5.856  -9.390  0.00  0.00    +0.000 HD
ENDBRANCH  23   9
BRANCH  18   2
ATOM      2  O   UNL     1      29.535   8.068  -5.577  0.00  0.00    +0.000 OA
BRANCH   2  16
ATOM      1  O   UNL     1      28.359   8.596  -3.631  0.00  0.00    +0.000 OA
ATOM     12  C   UNL     1      29.627  11.169  -3.465  0.00  0.00    +0.000 C 
ATOM     13  C   UNL     1      28.400  10.803  -2.628  0.00  0.00    +0.000 C 
ATOM     14  C   UNL     1      29.732  10.286  -4.709  0.00  0.00    +0.000 C 
ATOM     15  C   UNL     1      28.339   9.293  -2.385  0.00  0.00    +0.000 C 
ATOM     16  C   UNL     1      29.569   8.807  -4.357  0.00  0.00    +0.000 C 
BRANCH  12   3
ATOM      3  O   UNL     1      29.500  12.536  -3.860  0.00  0.00    +0.000 OA
ATOM     33  H   UNL     1      28.636  12.634  -4.295  0.00  0.00    +0.000 HD
ENDBRANCH  12   3
BRANCH  13   4
ATOM      4  O   UNL     1      28.464  11.480  -1.376  0.00  0.00    +0.000 OA
ATOM     34  H   UNL     1      28.958  12.308  -1.507  0.00  0.00    +0.000 HD
ENDBRANCH  13   4
BRANCH  14   5
ATOM      5  O   UNL     1      31.015  10.464  -5.308  0.00  0.00    +0.000 OA
ATOM     35  H   UNL     1      30.884  10.805  -6.209  0.00  0.00    +0.000 HD
ENDBRANCH  14   5
BRANCH  15  17
ATOM     17  C   UNL     1      27.064   8.890  -1.653  0.00  0.00    +0.000 C 
BRANCH  17   6
ATOM      6  O   UNL     1      26.112   8.458  -2.608  0.00  0.00    +0.000 OA
ATOM     36  H   UNL     1      26.332   7.542  -2.849  0.00  0.00    +0.000 HD
ENDBRANCH  17   6
ENDBRANCH  15  17
ENDBRANCH   2  16
ENDBRANCH  18   2
TORSDOF 11
ENDMDL
MODEL 3
REMARK VINA RESULT:      -8.4     17.808     19.557
REMARK  Name = 5320623
REMARK  11 active torsions:
REMARK  status: ('A' for Active; 'I' for Inactive)
REMARK    1  A    between atoms: O_2  and  C_16
REMARK    2  A    between atoms: O_2  and  C_18
REMARK    3  A    between atoms: O_3  and  C_12
REMARK    4  A    between atoms: O_4  and  C_13
REMARK    5  A    between atoms: O_5  and  C_14
REMARK    6  A    between atoms: O_6  and  C_17
REMARK    7  A    between atoms: O_8  and  C_20
REMARK    8  A    between atoms: O_9  and  C_23
REMARK    9  A    between atoms: O_11  and  C_32
REMARK   10  A    between atoms: C_15  and  C_17
REMARK   11  A    between atoms: C_25  and  C_27
REMARK                            x       y       z     vdW  Elec       q    Type
REMARK                         _______ _______ _______ _____ _____    ______ ____
ROOT
ATOM      7  O   UNL     1      35.806  -1.480  11.110  0.00  0.00    +0.000 OA
ATOM     10  O   UNL     1      38.993  -4.007  11.346  0.00  0.00    +0.000 OA
ATOM     18  C   UNL     1      38.135   0.711  12.858  0.00  0.00    +0.000 A 
ATOM     19  C   UNL     1      36.985   0.232  12.230  0.00  0.00    +0.000 A 
ATOM     20  C   UNL     1      39.262  -0.104  12.971  0.00  0.00    +0.000 A 
ATOM     21  C   UNL     1      36.965  -1.064  11.716  0.00  0.00    +0.000 A 
ATOM     22  C   UNL     1      38.092  -1.877  11.829  0.00  0.00    +0.000 A 
ATOM     23  C   UNL     1      39.245  -1.401  12.458  0.00  0.00    +0.000 A 
ATOM     24  C   UNL     1      38.043  -3.240  11.279  0.00  0.00    +0.000 A 
ATOM     25  C   UNL     1      35.760  -2.761  10.582  0.00  0.00    +0.000 A 
ATOM     26  C   UNL     1      36.775  -3.638  10.635  0.00  0.00    +0.000 A 
ENDROOT
BRANCH  25  27
ATOM     27  C   UNL     1      34.466  -3.107   9.959  0.00  0.00    +0.000 A 
ATOM     28  C   UNL     1      34.353  -4.249   9.164  0.00  0.00    +0.000 A 
ATOM     29  C   UNL     1      33.350  -2.291  10.161  0.00  0.00    +0.000 A 
ATOM     30  C   UNL     1      33.131  -4.575   8.576  0.00  0.00    +0.000 A 
ATOM     31  C   UNL     1      32.128  -2.616   9.573  0.00  0.00    +0.000 A 
ATOM     32  C   UNL     1      32.018  -3.758   8.779  0.00  0.00    +0.000 A 
BRANCH  32  11
ATOM     11  O   UNL     1      30.826  -4.076   8.205  0.00  0.00    +0.000 OA
ATOM     39  H   UNL     1      30.320  -4.635   8.819  0.00  0.00    +0.000 HD
ENDBRANCH  32  11
ENDBRANCH  25  27
BRANCH  20   8
ATOM      8  O   UNL     1      40.383   0.373  13.587  0.00  0.00    +0.000 OA
ATOM     37  H   UNL     1      40.144   0.642  14.492  0.00  0.00    +0.000 HD
ENDBRANCH  20   8
BRANCH  23   9
ATOM      9  O   UNL     1      40.366  -2.165  12.587  0.00  0.00    +0.000 OA
ATOM     38  H   UNL     1      40.584  -2.300  13.522  0.00  0.00    +0.000 HD
ENDBRANCH  23   9
BRANCH  18   2
ATOM      2  O   UNL     1      38.144   1.982  13.358  0.00  0.00    +0.000 OA
BRANCH   2  16
ATOM      1  O   UNL     1      36.505   3.643  13.334  0.00  0.00    +0.000 OA
ATOM     12  C   UNL     1      36.011   3.312  16.145  0.00  0.00    +0.000 C 
ATOM     13  C   UNL     1      35.479   4.508  15.354  0.00  0.00    +0.000 C 
ATOM     14  C   UNL     1      37.215   2.678  15.447  0.00  0.00    +0.000 C 
ATOM     15  C   UNL     1      35.283   4.141  13.881  0.00  0.00    +0.000 C 
ATOM     16  C   UNL     1      36.935   2.438  13.963  0.00  0.00    +0.000 C 
BRANCH  12   3
ATOM      3  O   UNL     1      36.400   3.776  17.438  0.00  0.00    +0.000 OA
ATOM     33  H   UNL     1      35.698   3.523  18.061  0.00  0.00    +0.000 HD
ENDBRANCH  12   3
BRANCH  13   4
ATOM      4  O   UNL     1      34.233   4.923  15.906  0.00  0.00    +0.000 OA
ATOM     34  H   UNL     1      33.816   5.536  15.277  0.00  0.00    +0.000 HD
ENDBRANCH  13   4
BRANCH  14   5
ATOM      5  O   UNL     1      37.506   1.421  16.056  0.00  0.00    +0.000 OA
ATOM     35  H   UNL     1      37.088   1.405  16.933  0.00  0.00    +0.000 HD
ENDBRANCH  14   5
BRANCH  15  17
ATOM     17  C   UNL     1      34.865   5.348  13.048  0.00  0.00    +0.000 C 
BRANCH  17   6
ATOM      6  O   UNL     1      35.299   6.523  13.706  0.00  0.00    +0.000 OA
ATOM     36  H   UNL     1      34.551   7.145  13.722  0.00  0.00    +0.000 HD
ENDBRANCH  17   6
ENDBRANCH  15  17
ENDBRANCH   2  16
ENDBRANCH  18   2
TORSDOF 11
ENDMDL
MODEL 4
REMARK VINA RESULT:      -8.4      4.566      7.782
REMARK  Name = 5320623
REMARK  11 active torsions:
REMARK  status: ('A' for Active; 'I' for Inactive)
REMARK    1  A    between atoms: O_2  and  C_16
REMARK    2  A    between atoms: O_2  and  C_18
REMARK    3  A    between atoms: O_3  and  C_12
REMARK    4  A    between atoms: O_4  and  C_13
REMARK    5  A    between atoms: O_5  and  C_14
REMARK    6  A    between atoms: O_6  and  C_17
REMARK    7  A    between atoms: O_8  and  C_20
REMARK    8  A    between atoms: O_9  and  C_23
REMARK    9  A    between atoms: O_11  and  C_32
REMARK   10  A    between atoms: C_15  and  C_17
REMARK   11  A    between atoms: C_25  and  C_27
REMARK                            x       y       z     vdW  Elec       q    Type
REMARK                         _______ _______ _______ _____ _____    ______ ____
ROOT
ATOM      7  O   UNL     1      33.105   6.448   0.302  0.00  0.00    +0.000 OA
ATOM     10  O   UNL     1      37.171   6.534   0.534  0.00  0.00    +0.000 OA
ATOM     18  C   UNL     1      33.835   7.681  -3.049  0.00  0.00    +0.000 A 
ATOM     19  C   UNL     1      33.139   7.248  -1.920  0.00  0.00    +0.000 A 
ATOM     20  C   UNL     1      35.229   7.733  -3.035  0.00  0.00    +0.000 A 
ATOM     21  C   UNL     1      33.842   6.866  -0.777  0.00  0.00    +0.000 A 
ATOM     22  C   UNL     1      35.235   6.918  -0.765  0.00  0.00    +0.000 A 
ATOM     23  C   UNL     1      35.935   7.352  -1.894  0.00  0.00    +0.000 A 
ATOM     24  C   UNL     1      35.951   6.511   0.453  0.00  0.00    +0.000 A 
ATOM     25  C   UNL     1      33.776   6.054   1.449  0.00  0.00    +0.000 A 
ATOM     26  C   UNL     1      35.112   6.067   1.585  0.00  0.00    +0.000 A 
ENDROOT
BRANCH  25  27
ATOM     27  C   UNL     1      32.887   5.630   2.549  0.00  0.00    +0.000 A 
ATOM     28  C   UNL     1      31.760   4.852   2.280  0.00  0.00    +0.000 A 
ATOM     29  C   UNL     1      33.170   6.009   3.865  0.00  0.00    +0.000 A 
ATOM     30  C   UNL     1      30.920   4.452   3.320  0.00  0.00    +0.000 A 
ATOM     31  C   UNL     1      32.330   5.609   4.904  0.00  0.00    +0.000 A 
ATOM     32  C   UNL     1      31.205   4.832   4.632  0.00  0.00    +0.000 A 
BRANCH  32  11
ATOM     11  O   UNL     1      30.385   4.441   5.646  0.00  0.00    +0.000 OA
ATOM     39  H   UNL     1      30.787   4.700   6.493  0.00  0.00    +0.000 HD
ENDBRANCH  32  11
ENDBRANCH  25  27
BRANCH  20   8
ATOM      8  O   UNL     1      35.901   8.160  -4.144  0.00  0.00    +0.000 OA
ATOM     37  H   UNL     1      35.341   7.998  -4.923  0.00  0.00    +0.000 HD
ENDBRANCH  20   8
BRANCH  23   9
ATOM      9  O   UNL     1      37.296   7.416  -1.920  0.00  0.00    +0.000 OA
ATOM     38  H   UNL     1      37.640   7.774  -1.087  0.00  0.00    +0.000 HD
ENDBRANCH  23   9
BRANCH  18   2
ATOM      2  O   UNL     1      33.137   8.052  -4.162  0.00  0.00    +0.000 OA
BRANCH   2  16
ATOM      1  O   UNL     1      33.600   6.732  -6.030  0.00  0.00    +0.000 OA
ATOM     12  C   UNL     1      30.803   6.431  -6.613  0.00  0.00    +0.000 C 
ATOM     13  C   UNL     1      31.895   6.050  -7.613  0.00  0.00    +0.000 C 
ATOM     14  C   UNL     1      31.319   7.441  -5.588  0.00  0.00    +0.000 C 
ATOM     15  C   UNL     1      33.187   5.666  -6.887  0.00  0.00    +0.000 C 
ATOM     16  C   UNL     1      32.656   6.998  -4.994  0.00  0.00    +0.000 C 
BRANCH  12   3
ATOM      3  O   UNL     1      29.717   7.005  -7.343  0.00  0.00    +0.000 OA
ATOM     33  H   UNL     1      29.625   7.927  -7.050  0.00  0.00    +0.000 HD
ENDBRANCH  12   3
BRANCH  13   4
ATOM      4  O   UNL     1      31.452   4.947  -8.399  0.00  0.00    +0.000 OA
ATOM     34  H   UNL     1      30.542   5.132  -8.689  0.00  0.00    +0.000 HD
ENDBRANCH  13   4
BRANCH  14   5
ATOM      5  O   UNL     1      30.375   7.561  -4.525  0.00  0.00    +0.000 OA
ATOM     35  H   UNL     1      29.495   7.341  -4.875  0.00  0.00    +0.000 HD
ENDBRANCH  14   5
BRANCH  15  17
ATOM     17  C   UNL     1      34.326   5.395  -7.864  0.00  0.00    +0.000 C 
BRANCH  17   6
ATOM      6  O   UNL     1      33.907   5.771  -9.163  0.00  0.00    +0.000 OA
ATOM     36  H   UNL     1      34.628   6.284  -9.568  0.00  0.00    +0.000 HD
ENDBRANCH  17   6
ENDBRANCH  15  17
ENDBRANCH   2  16
ENDBRANCH  18   2
TORSDOF 11
ENDMDL
MODEL 5
REMARK VINA RESULT:      -8.2      3.083      6.114
REMARK  Name = 5320623
REMARK  11 active torsions:
REMARK  status: ('A' for Active; 'I' for Inactive)
REMARK    1  A    between atoms: O_2  and  C_16
REMARK    2  A    between atoms: O_2  and  C_18
REMARK    3  A    between atoms: O_3  and  C_12
REMARK    4  A    between atoms: O_4  and  C_13
REMARK    5  A    between atoms: O_5  and  C_14
REMARK    6  A    between atoms: O_6  and  C_17
REMARK    7  A    between atoms: O_8  and  C_20
REMARK    8  A    between atoms: O_9  and  C_23
REMARK    9  A    between atoms: O_11  and  C_32
REMARK   10  A    between atoms: C_15  and  C_17
REMARK   11  A    between atoms: C_25  and  C_27
REMARK                            x       y       z     vdW  Elec       q    Type
REMARK                         _______ _______ _______ _____ _____    ______ ____
ROOT
ATOM      7  O   UNL     1      35.259   6.455  -3.209  0.00  0.00    +0.000 OA
ATOM     10  O   UNL     1      32.064   6.768  -0.699  0.00  0.00    +0.000 OA
ATOM     18  C   UNL     1      37.051   6.902  -0.067  0.00  0.00    +0.000 A 
ATOM     19  C   UNL     1      36.782   6.714  -1.423  0.00  0.00    +0.000 A 
ATOM     20  C   UNL     1      36.001   7.015   0.846  0.00  0.00    +0.000 A 
ATOM     21  C   UNL     1      35.461   6.640  -1.864  0.00  0.00    +0.000 A 
ATOM     22  C   UNL     1      34.414   6.754  -0.951  0.00  0.00    +0.000 A 
ATOM     23  C   UNL     1      34.679   6.942   0.407  0.00  0.00    +0.000 A 
ATOM     24  C   UNL     1      33.031   6.674  -1.444  0.00  0.00    +0.000 A 
ATOM     25  C   UNL     1      33.956   6.369  -3.675  0.00  0.00    +0.000 A 
ATOM     26  C   UNL     1      32.866   6.471  -2.897  0.00  0.00    +0.000 A 
ENDROOT
BRANCH  25  27
ATOM     27  C   UNL     1      33.853   6.176  -5.136  0.00  0.00    +0.000 A 
ATOM     28  C   UNL     1      32.632   6.371  -5.785  0.00  0.00    +0.000 A 
ATOM     29  C   UNL     1      34.977   5.794  -5.873  0.00  0.00    +0.000 A 
ATOM     30  C   UNL     1      32.535   6.188  -7.165  0.00  0.00    +0.000 A 
ATOM     31  C   UNL     1      34.880   5.611  -7.253  0.00  0.00    +0.000 A 
ATOM     32  C   UNL     1      33.659   5.807  -7.898  0.00  0.00    +0.000 A 
BRANCH  32  11
ATOM     11  O   UNL     1      33.565   5.628  -9.245  0.00  0.00    +0.000 OA
ATOM     39  H   UNL     1      33.145   6.412  -9.638  0.00  0.00    +0.000 HD
ENDBRANCH  32  11
ENDBRANCH  25  27
BRANCH  20   8
ATOM      8  O   UNL     1      36.274   7.200   2.170  0.00  0.00    +0.000 OA
ATOM     37  H   UNL     1      37.107   6.742   2.378  0.00  0.00    +0.000 HD
ENDBRANCH  20   8
BRANCH  23   9
ATOM      9  O   UNL     1      33.682   7.057   1.329  0.00  0.00    +0.000 OA
ATOM     38  H   UNL     1      33.537   7.986   1.566  0.00  0.00    +0.000 HD
ENDBRANCH  23   9
BRANCH  18   2
ATOM      2  O   UNL     1      38.347   6.972   0.354  0.00  0.00    +0.000 OA
BRANCH   2  16
ATOM      1  O   UNL     1      39.336   6.078  -1.562  0.00  0.00    +0.000 OA
ATOM     12  C   UNL     1      41.832   7.378  -0.981  0.00  0.00    +0.000 C 
ATOM     13  C   UNL     1      41.707   6.275  -2.032  0.00  0.00    +0.000 C 
ATOM     14  C   UNL     1      40.693   7.304   0.037  0.00  0.00    +0.000 C 
ATOM     15  C   UNL     1      40.291   6.235  -2.613  0.00  0.00    +0.000 C 
ATOM     16  C   UNL     1      39.336   7.178  -0.655  0.00  0.00    +0.000 C 
BRANCH  12   3
ATOM      3  O   UNL     1      43.082   7.210  -0.311  0.00  0.00    +0.000 OA
ATOM     33  H   UNL     1      43.167   7.935   0.331  0.00  0.00    +0.000 HD
ENDBRANCH  12   3
BRANCH  13   4
ATOM      4  O   UNL     1      42.640   6.515  -3.082  0.00  0.00    +0.000 OA
ATOM     34  H   UNL     1      43.007   5.658  -3.359  0.00  0.00    +0.000 HD
ENDBRANCH  13   4
BRANCH  14   5
ATOM      5  O   UNL     1      40.685   8.495   0.824  0.00  0.00    +0.000 OA
ATOM     35  H   UNL     1      40.964   9.234   0.259  0.00  0.00    +0.000 HD
ENDBRANCH  14   5
BRANCH  15  17
ATOM     17  C   UNL     1      40.108   5.068  -3.577  0.00  0.00    +0.000 C 
BRANCH  17   6
ATOM      6  O   UNL     1      41.027   4.048  -3.233  0.00  0.00    +0.000 OA
ATOM     36  H   UNL     1      41.850   4.479  -2.945  0.00  0.00    +0.000 HD
ENDBRANCH  17   6
ENDBRANCH  15  17
ENDBRANCH   2  16
ENDBRANCH  18   2
TORSDOF 11
ENDMDL
MODEL 6
REMARK VINA RESULT:      -8.2      2.787      7.614
REMARK  Name = 5320623
REMARK  11 active torsions:
REMARK  status: ('A' for Active; 'I' for Inactive)
REMARK    1  A    between atoms: O_2  and  C_16
REMARK    2  A    between atoms: O_2  and  C_18
REMARK    3  A    between atoms: O_3  and  C_12
REMARK    4  A    between atoms: O_4  and  C_13
REMARK    5  A    between atoms: O_5  and  C_14
REMARK    6  A    between atoms: O_6  and  C_17
REMARK    7  A    between atoms: O_8  and  C_20
REMARK    8  A    between atoms: O_9  and  C_23
REMARK    9  A    between atoms: O_11  and  C_32
REMARK   10  A    between atoms: C_15  and  C_17
REMARK   11  A    between atoms: C_25  and  C_27
REMARK                            x       y       z     vdW  Elec       q    Type
REMARK                         _______ _______ _______ _____ _____    ______ ____
ROOT
ATOM      7  O   UNL     1      35.895  10.809  -5.267  0.00  0.00    +0.000 OA
ATOM     10  O   UNL     1      39.485  10.116  -3.470  0.00  0.00    +0.000 OA
ATOM     18  C   UNL     1      35.907   7.168  -5.418  0.00  0.00    +0.000 A 
ATOM     19  C   UNL     1      35.512   8.498  -5.563  0.00  0.00    +0.000 A 
ATOM     20  C   UNL     1      37.126   6.862  -4.810  0.00  0.00    +0.000 A 
ATOM     21  C   UNL     1      36.337   9.522  -5.097  0.00  0.00    +0.000 A 
ATOM     22  C   UNL     1      37.554   9.214  -4.490  0.00  0.00    +0.000 A 
ATOM     23  C   UNL     1      37.954   7.884  -4.344  0.00  0.00    +0.000 A 
ATOM     24  C   UNL     1      38.404  10.313  -4.009  0.00  0.00    +0.000 A 
ATOM     25  C   UNL     1      36.691  11.847  -4.807  0.00  0.00    +0.000 A 
ATOM     26  C   UNL     1      37.883  11.679  -4.213  0.00  0.00    +0.000 A 
ENDROOT
BRANCH  25  27
ATOM     27  C   UNL     1      36.123  13.190  -5.046  0.00  0.00    +0.000 A 
ATOM     28  C   UNL     1      34.973  13.337  -5.824  0.00  0.00    +0.000 A 
ATOM     29  C   UNL     1      36.737  14.318  -4.497  0.00  0.00    +0.000 A 
ATOM     30  C   UNL     1      34.438  14.605  -6.050  0.00  0.00    +0.000 A 
ATOM     31  C   UNL     1      36.202  15.586  -4.723  0.00  0.00    +0.000 A 
ATOM     32  C   UNL     1      35.053  15.730  -5.501  0.00  0.00    +0.000 A 
BRANCH  32  11
ATOM     11  O   UNL     1      34.531  16.968  -5.721  0.00  0.00    +0.000 OA
ATOM     39  H   UNL     1      33.571  16.936  -5.571  0.00  0.00    +0.000 HD
ENDBRANCH  32  11
ENDBRANCH  25  27
BRANCH  20   8
ATOM      8  O   UNL     1      37.505   5.558  -4.673  0.00  0.00    +0.000 OA
ATOM     37  H   UNL     1      36.727   4.995  -4.830  0.00  0.00    +0.000 HD
ENDBRANCH  20   8
BRANCH  23   9
ATOM      9  O   UNL     1      39.134   7.545  -3.754  0.00  0.00    +0.000 OA
ATOM     38  H   UNL     1      39.840   7.470  -4.416  0.00  0.00    +0.000 HD
ENDBRANCH  23   9
BRANCH  18   2
ATOM      2  O   UNL     1      35.092   6.174  -5.877  0.00  0.00    +0.000 OA
BRANCH   2  16
ATOM      1  O   UNL     1      32.977   7.096  -5.525  0.00  0.00    +0.000 OA
ATOM     12  C   UNL     1      31.893   5.677  -7.775  0.00  0.00    +0.000 C 
ATOM     13  C   UNL     1      31.008   6.372  -6.740  0.00  0.00    +0.000 C 
ATOM     14  C   UNL     1      33.275   5.364  -7.201  0.00  0.00    +0.000 C 
ATOM     15  C   UNL     1      31.747   7.546  -6.094  0.00  0.00    +0.000 C 
ATOM     16  C   UNL     1      33.878   6.584  -6.504  0.00  0.00    +0.000 C 
BRANCH  12   3
ATOM      3  O   UNL     1      31.250   4.462  -8.161  0.00  0.00    +0.000 OA
ATOM     33  H   UNL     1      30.302   4.561  -7.970  0.00  0.00    +0.000 HD
ENDBRANCH  12   3
BRANCH  13   4
ATOM      4  O   UNL     1      29.826   6.851  -7.374  0.00  0.00    +0.000 OA
ATOM     34  H   UNL     1      29.141   6.958  -6.692  0.00  0.00    +0.000 HD
ENDBRANCH  13   4
BRANCH  14   5
ATOM      5  O   UNL     1      34.149   4.976  -8.260  0.00  0.00    +0.000 OA
ATOM     35  H   UNL     1      34.739   4.280  -7.926  0.00  0.00    +0.000 HD
ENDBRANCH  14   5
BRANCH  15  17
ATOM     17  C   UNL     1      30.929   8.182  -4.975  0.00  0.00    +0.000 C 
BRANCH  17   6
ATOM      6  O   UNL     1      29.870   8.922  -5.553  0.00  0.00    +0.000 OA
ATOM     36  H   UNL     1      29.036   8.495  -5.291  0.00  0.00    +0.000 HD
ENDBRANCH  17   6
ENDBRANCH  15  17
ENDBRANCH   2  16
ENDBRANCH  18   2
TORSDOF 11
ENDMDL
MODEL 7
REMARK VINA RESULT:      -8.2      2.874      5.804
REMARK  Name = 5320623
REMARK  11 active torsions:
REMARK  status: ('A' for Active; 'I' for Inactive)
REMARK    1  A    between atoms: O_2  and  C_16
REMARK    2  A    between atoms: O_2  and  C_18
REMARK    3  A    between atoms: O_3  and  C_12
REMARK    4  A    between atoms: O_4  and  C_13
REMARK    5  A    between atoms: O_5  and  C_14
REMARK    6  A    between atoms: O_6  and  C_17
REMARK    7  A    between atoms: O_8  and  C_20
REMARK    8  A    between atoms: O_9  and  C_23
REMARK    9  A    between atoms: O_11  and  C_32
REMARK   10  A    between atoms: C_15  and  C_17
REMARK   11  A    between atoms: C_25  and  C_27
REMARK                            x       y       z     vdW  Elec       q    Type
REMARK                         _______ _______ _______ _____ _____    ______ ____
ROOT
ATOM      7  O   UNL     1      35.373   6.307  -3.316  0.00  0.00    +0.000 OA
ATOM     10  O   UNL     1      32.677   8.396  -1.087  0.00  0.00    +0.000 OA
ATOM     18  C   UNL     1      37.122   6.253  -0.119  0.00  0.00    +0.000 A 
ATOM     19  C   UNL     1      36.814   6.044  -1.464  0.00  0.00    +0.000 A 
ATOM     20  C   UNL     1      36.240   6.959   0.700  0.00  0.00    +0.000 A 
ATOM     21  C   UNL     1      35.621   6.543  -1.988  0.00  0.00    +0.000 A 
ATOM     22  C   UNL     1      34.741   7.249  -1.168  0.00  0.00    +0.000 A 
ATOM     23  C   UNL     1      35.047   7.461   0.178  0.00  0.00    +0.000 A 
ATOM     24  C   UNL     1      33.493   7.766  -1.747  0.00  0.00    +0.000 A 
ATOM     25  C   UNL     1      34.192   6.784  -3.863  0.00  0.00    +0.000 A 
ATOM     26  C   UNL     1      33.271   7.482  -3.179  0.00  0.00    +0.000 A 
ENDROOT
BRANCH  25  27
ATOM     27  C   UNL     1      34.028   6.480  -5.299  0.00  0.00    +0.000 A 
ATOM     28  C   UNL     1      32.871   6.876  -5.973  0.00  0.00    +0.000 A 
ATOM     29  C   UNL     1      35.030   5.791  -5.988  0.00  0.00    +0.000 A 
ATOM     30  C   UNL     1      32.718   6.587  -7.329  0.00  0.00    +0.000 A 
ATOM     31  C   UNL     1      34.876   5.502  -7.344  0.00  0.00    +0.000 A 
ATOM     32  C   UNL     1      33.720   5.899  -8.014  0.00  0.00    +0.000 A 
BRANCH  32  11
ATOM     11  O   UNL     1      33.570   5.618  -9.338  0.00  0.00    +0.000 OA
ATOM     39  H   UNL     1      33.327   6.433  -9.808  0.00  0.00    +0.000 HD
ENDBRANCH  32  11
ENDBRANCH  25  27
BRANCH  20   8
ATOM      8  O   UNL     1      36.550   7.160   2.014  0.00  0.00    +0.000 OA
ATOM     37  H   UNL     1      35.771   7.540   2.458  0.00  0.00    +0.000 HD
ENDBRANCH  20   8
BRANCH  23   9
ATOM      9  O   UNL     1      34.212   8.145   1.010  0.00  0.00    +0.000 OA
ATOM     38  H   UNL     1      34.522   9.055   1.137  0.00  0.00    +0.000 HD
ENDBRANCH  23   9
BRANCH  18   2
ATOM      2  O   UNL     1      38.291   5.759   0.383  0.00  0.00    +0.000 OA
BRANCH   2  16
ATOM      1  O   UNL     1      39.486   7.479  -0.646  0.00  0.00    +0.000 OA
ATOM     12  C   UNL     1      40.682   5.646  -2.508  0.00  0.00    +0.000 C 
ATOM     13  C   UNL     1      40.746   7.163  -2.693  0.00  0.00    +0.000 C 
ATOM     14  C   UNL     1      39.512   5.248  -1.607  0.00  0.00    +0.000 C 
ATOM     15  C   UNL     1      40.666   7.879  -1.343  0.00  0.00    +0.000 C 
ATOM     16  C   UNL     1      39.482   6.088  -0.330  0.00  0.00    +0.000 C 
BRANCH  12   3
ATOM      3  O   UNL     1      40.516   5.051  -3.795  0.00  0.00    +0.000 OA
ATOM     33  H   UNL     1      40.510   4.086  -3.671  0.00  0.00    +0.000 HD
ENDBRANCH  12   3
BRANCH  13   4
ATOM      4  O   UNL     1      41.968   7.508  -3.338  0.00  0.00    +0.000 OA
ATOM     34  H   UNL     1      41.783   8.224  -3.970  0.00  0.00    +0.000 HD
ENDBRANCH  13   4
BRANCH  14   5
ATOM      5  O   UNL     1      39.646   3.877  -1.237  0.00  0.00    +0.000 OA
ATOM     35  H   UNL     1      40.571   3.721  -0.981  0.00  0.00    +0.000 HD
ENDBRANCH  14   5
BRANCH  15  17
ATOM     17  C   UNL     1      40.610   9.394  -1.509  0.00  0.00    +0.000 C 
BRANCH  17   6
ATOM      6  O   UNL     1      40.136   9.689  -2.809  0.00  0.00    +0.000 OA
ATOM     36  H   UNL     1      40.502   9.022  -3.415  0.00  0.00    +0.000 HD
ENDBRANCH  17   6
ENDBRANCH  15  17
ENDBRANCH   2  16
ENDBRANCH  18   2
TORSDOF 11
ENDMDL
MODEL 8
REMARK VINA RESULT:      -8.2      1.809      2.524
REMARK  Name = 5320623
REMARK  11 active torsions:
REMARK  status: ('A' for Active; 'I' for Inactive)
REMARK    1  A    between atoms: O_2  and  C_16
REMARK    2  A    between atoms: O_2  and  C_18
REMARK    3  A    between atoms: O_3  and  C_12
REMARK    4  A    between atoms: O_4  and  C_13
REMARK    5  A    between atoms: O_5  and  C_14
REMARK    6  A    between atoms: O_6  and  C_17
REMARK    7  A    between atoms: O_8  and  C_20
REMARK    8  A    between atoms: O_9  and  C_23
REMARK    9  A    between atoms: O_11  and  C_32
REMARK   10  A    between atoms: C_15  and  C_17
REMARK   11  A    between atoms: C_25  and  C_27
REMARK                            x       y       z     vdW  Elec       q    Type
REMARK                         _______ _______ _______ _____ _____    ______ ____
ROOT
ATOM      7  O   UNL     1      31.899   8.013  -4.417  0.00  0.00    +0.000 OA
ATOM     10  O   UNL     1      31.189   5.770  -7.743  0.00  0.00    +0.000 OA
ATOM     18  C   UNL     1      35.341   7.197  -5.292  0.00  0.00    +0.000 A 
ATOM     19  C   UNL     1      34.233   7.723  -4.627  0.00  0.00    +0.000 A 
ATOM     20  C   UNL     1      35.167   6.421  -6.439  0.00  0.00    +0.000 A 
ATOM     21  C   UNL     1      32.949   7.470  -5.112  0.00  0.00    +0.000 A 
ATOM     22  C   UNL     1      32.777   6.694  -6.258  0.00  0.00    +0.000 A 
ATOM     23  C   UNL     1      33.884   6.166  -6.926  0.00  0.00    +0.000 A 
ATOM     24  C   UNL     1      31.413   6.443  -6.746  0.00  0.00    +0.000 A 
ATOM     25  C   UNL     1      30.612   7.786  -4.880  0.00  0.00    +0.000 A 
ATOM     26  C   UNL     1      30.318   7.052  -5.965  0.00  0.00    +0.000 A 
ENDROOT
BRANCH  25  27
ATOM     27  C   UNL     1      29.558   8.410  -4.054  0.00  0.00    +0.000 A 
ATOM     28  C   UNL     1      29.888   9.399  -3.126  0.00  0.00    +0.000 A 
ATOM     29  C   UNL     1      28.227   8.010  -4.197  0.00  0.00    +0.000 A 
ATOM     30  C   UNL     1      28.892   9.988  -2.346  0.00  0.00    +0.000 A 
ATOM     31  C   UNL     1      27.231   8.599  -3.418  0.00  0.00    +0.000 A 
ATOM     32  C   UNL     1      27.564   9.587  -2.492  0.00  0.00    +0.000 A 
BRANCH  32  11
ATOM     11  O   UNL     1      26.592  10.162  -1.730  0.00  0.00    +0.000 OA
ATOM     39  H   UNL     1      26.609  11.124  -1.872  0.00  0.00    +0.000 HD
ENDBRANCH  32  11
ENDBRANCH  25  27
BRANCH  20   8
ATOM      8  O   UNL     1      36.257   5.910  -7.082  0.00  0.00    +0.000 OA
ATOM     37  H   UNL     1      36.614   6.596  -7.672  0.00  0.00    +0.000 HD
ENDBRANCH  20   8
BRANCH  23   9
ATOM      9  O   UNL     1      33.756   5.405  -8.049  0.00  0.00    +0.000 OA
ATOM     38  H   UNL     1      34.295   5.763  -8.771  0.00  0.00    +0.000 HD
ENDBRANCH  23   9
BRANCH  18   2
ATOM      2  O   UNL     1      36.592   7.451  -4.809  0.00  0.00    +0.000 OA
BRANCH   2  16
ATOM      1  O   UNL     1      37.221   7.382  -2.563  0.00  0.00    +0.000 OA
ATOM     12  C   UNL     1      39.017   5.192  -3.046  0.00  0.00    +0.000 C 
ATOM     13  C   UNL     1      39.037   5.998  -1.747  0.00  0.00    +0.000 C 
ATOM     14  C   UNL     1      38.379   5.991  -4.183  0.00  0.00    +0.000 C 
ATOM     15  C   UNL     1      37.657   6.593  -1.455  0.00  0.00    +0.000 C 
ATOM     16  C   UNL     1      37.050   6.611  -3.750  0.00  0.00    +0.000 C 
BRANCH  12   3
ATOM      3  O   UNL     1      40.366   4.871  -3.388  0.00  0.00    +0.000 OA
ATOM     33  H   UNL     1      40.342   4.348  -4.207  0.00  0.00    +0.000 HD
ENDBRANCH  12   3
BRANCH  13   4
ATOM      4  O   UNL     1      39.421   5.148  -0.670  0.00  0.00    +0.000 OA
ATOM     34  H   UNL     1      39.138   4.242  -0.887  0.00  0.00    +0.000 HD
ENDBRANCH  13   4
BRANCH  14   5
ATOM      5  O   UNL     1      38.128   5.123  -5.288  0.00  0.00    +0.000 OA
ATOM     35  H   UNL     1      37.982   5.671  -6.077  0.00  0.00    +0.000 HD
ENDBRANCH  14   5
BRANCH  15  17
ATOM     17  C   UNL     1      37.680   7.498  -0.228  0.00  0.00    +0.000 C 
BRANCH  17   6
ATOM      6  O   UNL     1      37.633   6.688   0.932  0.00  0.00    +0.000 OA
ATOM     36  H   UNL     1      37.479   5.771   0.645  0.00  0.00    +0.000 HD
ENDBRANCH  17   6
ENDBRANCH  15  17
ENDBRANCH   2  16
ENDBRANCH  18   2
TORSDOF 11
ENDMDL
MODEL 9
REMARK VINA RESULT:      -8.1      2.031      3.251
REMARK  Name = 5320623
REMARK  11 active torsions:
REMARK  status: ('A' for Active; 'I' for Inactive)
REMARK    1  A    between atoms: O_2  and  C_16
REMARK    2  A    between atoms: O_2  and  C_18
REMARK    3  A    between atoms: O_3  and  C_12
REMARK    4  A    between atoms: O_4  and  C_13
REMARK    5  A    between atoms: O_5  and  C_14
REMARK    6  A    between atoms: O_6  and  C_17
REMARK    7  A    between atoms: O_8  and  C_20
REMARK    8  A    between atoms: O_9  and  C_23
REMARK    9  A    between atoms: O_11  and  C_32
REMARK   10  A    between atoms: C_15  and  C_17
REMARK   11  A    between atoms: C_25  and  C_27
REMARK                            x       y       z     vdW  Elec       q    Type
REMARK                         _______ _______ _______ _____ _____    ______ ____
ROOT
ATOM      7  O   UNL     1      32.889   7.508  -4.081  0.00  0.00    +0.000 OA
ATOM     10  O   UNL     1      33.822   5.163  -7.279  0.00  0.00    +0.000 OA
ATOM     18  C   UNL     1      36.511   7.419  -3.678  0.00  0.00    +0.000 A 
ATOM     19  C   UNL     1      35.162   7.705  -3.468  0.00  0.00    +0.000 A 
ATOM     20  C   UNL     1      36.897   6.623  -4.757  0.00  0.00    +0.000 A 
ATOM     21  C   UNL     1      34.200   7.193  -4.339  0.00  0.00    +0.000 A 
ATOM     22  C   UNL     1      34.588   6.397  -5.416  0.00  0.00    +0.000 A 
ATOM     23  C   UNL     1      35.937   6.108  -5.630  0.00  0.00    +0.000 A 
ATOM     24  C   UNL     1      33.553   5.869  -6.317  0.00  0.00    +0.000 A 
ATOM     25  C   UNL     1      31.912   7.019  -4.934  0.00  0.00    +0.000 A 
ATOM     26  C   UNL     1      32.160   6.239  -5.998  0.00  0.00    +0.000 A 
ENDROOT
BRANCH  25  27
ATOM     27  C   UNL     1      30.539   7.413  -4.561  0.00  0.00    +0.000 A 
ATOM     28  C   UNL     1      30.165   7.469  -3.217  0.00  0.00    +0.000 A 
ATOM     29  C   UNL     1      29.606   7.729  -5.553  0.00  0.00    +0.000 A 
ATOM     30  C   UNL     1      28.867   7.841  -2.865  0.00  0.00    +0.000 A 
ATOM     31  C   UNL     1      28.308   8.100  -5.201  0.00  0.00    +0.000 A 
ATOM     32  C   UNL     1      27.939   8.156  -3.858  0.00  0.00    +0.000 A 
BRANCH  32  11
ATOM     11  O   UNL     1      26.672   8.518  -3.515  0.00  0.00    +0.000 OA
ATOM     39  H   UNL     1      26.230   7.760  -3.095  0.00  0.00    +0.000 HD
ENDBRANCH  32  11
ENDBRANCH  25  27
BRANCH  20   8
ATOM      8  O   UNL     1      38.219   6.347  -4.955  0.00  0.00    +0.000 OA
ATOM     37  H   UNL     1      38.300   5.785  -5.745  0.00  0.00    +0.000 HD
ENDBRANCH  20   8
BRANCH  23   9
ATOM      9  O   UNL     1      36.355   5.336  -6.672  0.00  0.00    +0.000 OA
ATOM     38  H   UNL     1      37.031   5.797  -7.192  0.00  0.00    +0.000 HD
ENDBRANCH  23   9
BRANCH  18   2
ATOM      2  O   UNL     1      37.443   7.926  -2.821  0.00  0.00    +0.000 OA
BRANCH   2  16
ATOM      1  O   UNL     1      37.298   7.176  -0.615  0.00  0.00    +0.000 OA
ATOM     12  C   UNL     1      40.094   6.517  -0.568  0.00  0.00    +0.000 C 
ATOM     13  C   UNL     1      39.245   6.579   0.701  0.00  0.00    +0.000 C 
ATOM     14  C   UNL     1      39.469   7.341  -1.694  0.00  0.00    +0.000 C 
ATOM     15  C   UNL     1      37.777   6.279   0.388  0.00  0.00    +0.000 C 
ATOM     16  C   UNL     1      37.982   7.022  -1.857  0.00  0.00    +0.000 C 
BRANCH  12   3
ATOM      3  O   UNL     1      41.388   7.037  -0.260  0.00  0.00    +0.000 OA
ATOM     33  H   UNL     1      41.994   6.744  -0.962  0.00  0.00    +0.000 HD
ENDBRANCH  12   3
BRANCH  13   4
ATOM      4  O   UNL     1      39.730   5.625   1.642  0.00  0.00    +0.000 OA
ATOM     34  H   UNL     1      39.331   4.764   1.430  0.00  0.00    +0.000 HD
ENDBRANCH  13   4
BRANCH  14   5
ATOM      5  O   UNL     1      40.128   7.040  -2.923  0.00  0.00    +0.000 OA
ATOM     35  H   UNL     1      41.002   6.669  -2.715  0.00  0.00    +0.000 HD
ENDBRANCH  14   5
BRANCH  15  17
ATOM     17  C   UNL     1      36.890   6.451   1.617  0.00  0.00    +0.000 C 
BRANCH  17   6
ATOM      6  O   UNL     1      37.511   7.367   2.499  0.00  0.00    +0.000 OA
ATOM     36  H   UNL     1      38.451   7.124   2.561  0.00  0.00    +0.000 HD
ENDBRANCH  17   6
ENDBRANCH  15  17
ENDBRANCH   2  16
ENDBRANCH  18   2
TORSDOF 11
ENDMDL
