MODEL 1
REMARK VINA RESULT:      -4.6      0.000      0.000
REMARK  11 active torsions:
REMARK  status: ('A' for Active; 'I' for Inactive)
REMARK    1  A    between atoms: O_1  and  C_9 
REMARK    2  A    between atoms: O_2  and  C_19 
REMARK    3  A    between atoms: O_3  and  C_26 
REMARK    4  A    between atoms: O_4  and  C_27 
REMARK    5  A    between atoms: O_6  and  C_28 
REMARK    6  A    between atoms: O_7  and  C_32 
REMARK    7  A    between atoms: C_10  and  C_19 
REMARK    8  A    between atoms: C_19  and  C_27 
REMARK    9  A    between atoms: C_27  and  C_30 
REMARK   10  A    between atoms: C_30  and  C_31 
REMARK   11  A    between atoms: C_31  and  C_32 
ROOT
HETATM    1  O   UNK     0      -4.937  -5.985   6.863  0.00  0.00    -0.384 OA
HETATM    2  H   UNK     0      -5.448  -5.482   7.521  0.00  0.00     0.211 HD
ENDROOT
BRANCH   1   3
HETATM    3  C   UNK     0      -4.119  -6.941   7.575  0.00  0.00     0.089 C 
HETATM    4  C   UNK     0      -2.622  -6.617   7.335  0.00  0.00    -0.002 C 
HETATM    5  C   UNK     0      -2.512  -6.870   5.810  0.00  0.00     0.034 C 
HETATM    6  C   UNK     0      -2.365  -5.155   7.745  0.00  0.00     0.014 C 
HETATM    7  C   UNK     0      -1.666  -7.555   8.121  0.00  0.00     0.019 C 
HETATM    8  C   UNK     0      -3.378  -8.130   5.583  0.00  0.00     0.012 C 
HETATM    9  C   UNK     0      -4.288  -8.270   6.823  0.00  0.00     0.044 C 
HETATM   10  C   UNK     0      -2.720  -4.926   9.223  0.00  0.00     0.011 C 
HETATM   11  C   UNK     0      -4.130  -5.436   9.654  0.00  0.00     0.027 C 
HETATM   12  C   UNK     0      -4.334  -5.390  11.219  0.00  0.00    -0.023 C 
HETATM   13  C   UNK     0      -4.497  -6.793   9.034  0.00  0.00    -0.037 C 
HETATM   14  C   UNK     0      -5.668  -6.089  11.603  0.00  0.00     0.071 C 
HETATM   15  C   UNK     0      -4.373  -3.928  11.749  0.00  0.00     0.044 C 
HETATM   16  C   UNK     0      -3.179  -6.112  11.966  0.00  0.00     0.016 C 
HETATM   17  C   UNK     0      -6.919  -5.305  11.171  0.00  0.00     0.047 C 
HETATM   18  C   UNK     0      -5.732  -7.495  11.038  0.00  0.00     0.154 C 
HETATM   19  C   UNK     0      -6.908  -3.878  11.715  0.00  0.00     0.147 C 
HETATM   20  C   UNK     0      -5.622  -3.152  11.319  0.00  0.00     0.147 C 
HETATM   21  O   UNK     0      -6.287  -8.411  11.644  0.00  0.00    -0.293 OA
HETATM   22  C   UNK     0      -5.183  -7.744   9.686  0.00  0.00     0.057 C 
BRANCH   5  23
HETATM   23  C   UNK     0      -1.105  -7.010   5.242  0.00  0.00     0.084 C 
HETATM   24  C   UNK     0      -1.145  -6.881   3.710  0.00  0.00     0.049 C 
BRANCH  23  25
HETATM   25  O   UNK     0      -0.305  -5.930   5.742  0.00  0.00    -0.387 OA
HETATM   26  H   UNK     0      -0.822  -5.109   5.699  0.00  0.00     0.210 HD
ENDBRANCH  23  25
BRANCH  23  27
HETATM   27  C   UNK     0      -0.432  -8.345   5.663  0.00  0.00     0.152 C 
BRANCH  27  28
HETATM   28  O   UNK     0       0.947  -8.113   5.966  0.00  0.00    -0.393 OA
HETATM   29  H   UNK     0       1.407  -8.969   5.903  0.00  0.00     0.210 HD
ENDBRANCH  27  28
BRANCH  27  30
HETATM   30  C   UNK     0      -0.514  -9.457   4.599  0.00  0.00     0.037 C 
BRANCH  30  31
HETATM   31  C   UNK     0       0.863 -10.087   4.316  0.00  0.00     0.040 C 
BRANCH  31  32
HETATM   32  C   UNK     0       1.476  -9.698   2.954  0.00  0.00     0.051 C 
HETATM   33  C   UNK     0       2.641 -10.640   2.629  0.00  0.00     0.045 C 
HETATM   34  C   UNK     0       0.451  -9.726   1.819  0.00  0.00     0.045 C 
BRANCH  32  35
HETATM   35  O   UNK     0       2.001  -8.373   3.059  0.00  0.00    -0.391 OA
HETATM   36  H   UNK     0       1.411  -7.779   2.565  0.00  0.00     0.210 HD
ENDBRANCH  32  35
ENDBRANCH  31  32
ENDBRANCH  30  31
ENDBRANCH  27  30
ENDBRANCH  23  27
ENDBRANCH   5  23
BRANCH  19  37
HETATM   37  O   UNK     0      -7.006  -3.918  13.140  0.00  0.00    -0.393 OA
HETATM   38  H   UNK     0      -7.897  -4.236  13.364  0.00  0.00     0.210 HD
ENDBRANCH  19  37
BRANCH  20  39
HETATM   39  O   UNK     0      -5.614  -1.860  11.922  0.00  0.00    -0.393 OA
HETATM   40  H   UNK     0      -5.335  -1.222  11.243  0.00  0.00     0.210 HD
ENDBRANCH  20  39
ENDBRANCH   1   3
TORSDOF 11
ENDMDL
MODEL 2
REMARK VINA RESULT:      -4.5     10.353     13.308
REMARK  11 active torsions:
REMARK  status: ('A' for Active; 'I' for Inactive)
REMARK    1  A    between atoms: O_1  and  C_9 
REMARK    2  A    between atoms: O_2  and  C_19 
REMARK    3  A    between atoms: O_3  and  C_26 
REMARK    4  A    between atoms: O_4  and  C_27 
REMARK    5  A    between atoms: O_6  and  C_28 
REMARK    6  A    between atoms: O_7  and  C_32 
REMARK    7  A    between atoms: C_10  and  C_19 
REMARK    8  A    between atoms: C_19  and  C_27 
REMARK    9  A    between atoms: C_27  and  C_30 
REMARK   10  A    between atoms: C_30  and  C_31 
REMARK   11  A    between atoms: C_31  and  C_32 
ROOT
HETATM    1  O   UNK     0      -2.385   4.524   8.948  0.00  0.00    -0.384 OA
HETATM    2  H   UNK     0      -3.105   5.165   9.086  0.00  0.00     0.211 HD
ENDROOT
BRANCH   1   3
HETATM    3  C   UNK     0      -1.141   5.260   8.900  0.00  0.00     0.089 C 
HETATM    4  C   UNK     0      -0.074   4.522   9.749  0.00  0.00    -0.002 C 
HETATM    5  C   UNK     0      -0.696   4.640  11.164  0.00  0.00     0.034 C 
HETATM    6  C   UNK     0       0.043   3.074   9.239  0.00  0.00     0.014 C 
HETATM    7  C   UNK     0       1.319   5.207   9.699  0.00  0.00     0.019 C 
HETATM    8  C   UNK     0      -1.274   6.074  11.192  0.00  0.00     0.012 C 
HETATM    9  C   UNK     0      -1.385   6.535   9.722  0.00  0.00     0.044 C 
HETATM   10  C   UNK     0       0.442   3.043   7.754  0.00  0.00     0.011 C 
HETATM   11  C   UNK     0      -0.418   3.947   6.817  0.00  0.00     0.027 C 
HETATM   12  C   UNK     0       0.188   4.055   5.364  0.00  0.00    -0.023 C 
HETATM   13  C   UNK     0      -0.755   5.312   7.437  0.00  0.00    -0.037 C 
HETATM   14  C   UNK     0      -0.591   5.117   4.538  0.00  0.00     0.071 C 
HETATM   15  C   UNK     0       0.118   2.696   4.610  0.00  0.00     0.044 C 
HETATM   16  C   UNK     0       1.683   4.476   5.399  0.00  0.00     0.016 C 
HETATM   17  C   UNK     0      -2.022   4.683   4.174  0.00  0.00     0.047 C 
HETATM   18  C   UNK     0      -0.637   6.449   5.263  0.00  0.00     0.154 C 
HETATM   19  C   UNK     0      -2.036   3.344   3.439  0.00  0.00     0.147 C 
HETATM   20  C   UNK     0      -1.308   2.269   4.247  0.00  0.00     0.147 C 
HETATM   21  O   UNK     0      -0.607   7.517   4.653  0.00  0.00    -0.293 OA
HETATM   22  C   UNK     0      -0.805   6.453   6.733  0.00  0.00     0.057 C 
BRANCH   5  23
HETATM   23  C   UNK     0       0.228   4.353  12.341  0.00  0.00     0.084 C 
HETATM   24  C   UNK     0       1.138   5.566  12.598  0.00  0.00     0.049 C 
BRANCH  23  25
HETATM   25  O   UNK     0      -0.576   4.165  13.513  0.00  0.00    -0.387 OA
HETATM   26  H   UNK     0      -1.337   3.605  13.286  0.00  0.00     0.210 HD
ENDBRANCH  23  25
BRANCH  23  27
HETATM   27  C   UNK     0       1.074   3.069  12.123  0.00  0.00     0.152 C 
BRANCH  27  28
HETATM   28  O   UNK     0       0.376   1.939  12.657  0.00  0.00    -0.393 OA
HETATM   29  H   UNK     0       0.563   1.181  12.075  0.00  0.00     0.210 HD
ENDBRANCH  27  28
BRANCH  27  30
HETATM   30  C   UNK     0       2.475   3.119  12.761  0.00  0.00     0.037 C 
BRANCH  30  31
HETATM   31  C   UNK     0       3.486   2.236  12.005  0.00  0.00     0.040 C 
BRANCH  31  32
HETATM   32  C   UNK     0       3.594   0.791  12.534  0.00  0.00     0.051 C 
HETATM   33  C   UNK     0       4.982   0.227  12.206  0.00  0.00     0.045 C 
HETATM   34  C   UNK     0       3.337   0.696  14.039  0.00  0.00     0.045 C 
BRANCH  32  35
HETATM   35  O   UNK     0       2.624  -0.011  11.857  0.00  0.00    -0.391 OA
HETATM   36  H   UNK     0       1.782   0.474  11.860  0.00  0.00     0.210 HD
ENDBRANCH  32  35
ENDBRANCH  31  32
ENDBRANCH  30  31
ENDBRANCH  27  30
ENDBRANCH  23  27
ENDBRANCH   5  23
BRANCH  19  37
HETATM   37  O   UNK     0      -1.393   3.497   2.172  0.00  0.00    -0.393 OA
HETATM   38  H   UNK     0      -0.433   3.463   2.324  0.00  0.00     0.210 HD
ENDBRANCH  19  37
BRANCH  20  39
HETATM   39  O   UNK     0      -1.267   1.064   3.485  0.00  0.00    -0.393 OA
HETATM   40  H   UNK     0      -2.183   0.756   3.376  0.00  0.00     0.210 HD
ENDBRANCH  20  39
ENDBRANCH   1   3
TORSDOF 11
ENDMDL
MODEL 3
REMARK VINA RESULT:      -4.5      2.197      9.124
REMARK  11 active torsions:
REMARK  status: ('A' for Active; 'I' for Inactive)
REMARK    1  A    between atoms: O_1  and  C_9 
REMARK    2  A    between atoms: O_2  and  C_19 
REMARK    3  A    between atoms: O_3  and  C_26 
REMARK    4  A    between atoms: O_4  and  C_27 
REMARK    5  A    between atoms: O_6  and  C_28 
REMARK    6  A    between atoms: O_7  and  C_32 
REMARK    7  A    between atoms: C_10  and  C_19 
REMARK    8  A    between atoms: C_19  and  C_27 
REMARK    9  A    between atoms: C_27  and  C_30 
REMARK   10  A    between atoms: C_30  and  C_31 
REMARK   11  A    between atoms: C_31  and  C_32 
ROOT
HETATM    1  O   UNK     0      -2.619  -4.890   7.215  0.00  0.00    -0.384 OA
HETATM    2  H   UNK     0      -1.786  -5.033   6.734  0.00  0.00     0.211 HD
ENDROOT
BRANCH   1   3
HETATM    3  C   UNK     0      -2.813  -6.012   8.105  0.00  0.00     0.089 C 
HETATM    4  C   UNK     0      -4.269  -5.999   8.641  0.00  0.00    -0.002 C 
HETATM    5  C   UNK     0      -4.264  -4.680   9.456  0.00  0.00     0.034 C 
HETATM    6  C   UNK     0      -5.233  -5.986   7.441  0.00  0.00     0.014 C 
HETATM    7  C   UNK     0      -4.588  -7.212   9.555  0.00  0.00     0.019 C 
HETATM    8  C   UNK     0      -2.878  -4.675  10.140  0.00  0.00     0.012 C 
HETATM    9  C   UNK     0      -2.000  -5.683   9.366  0.00  0.00     0.044 C 
HETATM   10  C   UNK     0      -5.016  -7.218   6.547  0.00  0.00     0.011 C 
HETATM   11  C   UNK     0      -3.536  -7.484   6.131  0.00  0.00     0.027 C 
HETATM   12  C   UNK     0      -3.353  -8.883   5.423  0.00  0.00    -0.023 C 
HETATM   13  C   UNK     0      -2.536  -7.246   7.273  0.00  0.00    -0.037 C 
HETATM   14  C   UNK     0      -1.841  -9.179   5.211  0.00  0.00     0.071 C 
HETATM   15  C   UNK     0      -4.061  -8.922   4.038  0.00  0.00     0.044 C 
HETATM   16  C   UNK     0      -3.954 -10.036   6.272  0.00  0.00     0.016 C 
HETATM   17  C   UNK     0      -1.181  -8.281   4.151  0.00  0.00     0.047 C 
HETATM   18  C   UNK     0      -1.074  -9.069   6.515  0.00  0.00     0.154 C 
HETATM   19  C   UNK     0      -1.915  -8.354   2.813  0.00  0.00     0.147 C 
HETATM   20  C   UNK     0      -3.399  -8.028   2.984  0.00  0.00     0.147 C 
HETATM   21  O   UNK     0      -0.114  -9.798   6.763  0.00  0.00    -0.293 OA
HETATM   22  C   UNK     0      -1.444  -8.001   7.470  0.00  0.00     0.057 C 
BRANCH   5  23
HETATM   23  C   UNK     0      -5.410  -4.485  10.442  0.00  0.00     0.084 C 
HETATM   24  C   UNK     0      -5.344  -5.563  11.537  0.00  0.00     0.049 C 
BRANCH  23  25
HETATM   25  O   UNK     0      -5.244  -3.213  11.082  0.00  0.00    -0.387 OA
HETATM   26  H   UNK     0      -5.247  -3.343  12.045  0.00  0.00     0.210 HD
ENDBRANCH  23  25
BRANCH  23  27
HETATM   27  C   UNK     0      -6.796  -4.498   9.741  0.00  0.00     0.152 C 
BRANCH  27  28
HETATM   28  O   UNK     0      -6.942  -3.317   8.945  0.00  0.00    -0.393 OA
HETATM   29  H   UNK     0      -7.850  -2.990   9.073  0.00  0.00     0.210 HD
ENDBRANCH  27  28
BRANCH  27  30
HETATM   30  C   UNK     0      -7.992  -4.581  10.708  0.00  0.00     0.037 C 
BRANCH  30  31
HETATM   31  C   UNK     0      -8.887  -3.330  10.629  0.00  0.00     0.040 C 
BRANCH  31  32
HETATM   32  C   UNK     0      -8.604  -2.271  11.715  0.00  0.00     0.051 C 
HETATM   33  C   UNK     0      -9.852  -1.407  11.926  0.00  0.00     0.045 C 
HETATM   34  C   UNK     0      -8.171  -2.894  13.044  0.00  0.00     0.045 C 
BRANCH  32  35
HETATM   35  O   UNK     0      -7.555  -1.419  11.251  0.00  0.00    -0.391 OA
HETATM   36  H   UNK     0      -7.404  -1.617  10.311  0.00  0.00     0.210 HD
ENDBRANCH  32  35
ENDBRANCH  31  32
ENDBRANCH  30  31
ENDBRANCH  27  30
ENDBRANCH  23  27
ENDBRANCH   5  23
BRANCH  19  37
HETATM   37  O   UNK     0      -1.780  -9.671   2.276  0.00  0.00    -0.393 OA
HETATM   38  H   UNK     0      -1.651  -9.585   1.316  0.00  0.00     0.210 HD
ENDBRANCH  19  37
BRANCH  20  39
HETATM   39  O   UNK     0      -4.059  -8.197   1.732  0.00  0.00    -0.393 OA
HETATM   40  H   UNK     0      -4.057  -9.148   1.526  0.00  0.00     0.210 HD
ENDBRANCH  20  39
ENDBRANCH   1   3
TORSDOF 11
ENDMDL
MODEL 4
REMARK VINA RESULT:      -4.4     10.329     13.231
REMARK  11 active torsions:
REMARK  status: ('A' for Active; 'I' for Inactive)
REMARK    1  A    between atoms: O_1  and  C_9 
REMARK    2  A    between atoms: O_2  and  C_19 
REMARK    3  A    between atoms: O_3  and  C_26 
REMARK    4  A    between atoms: O_4  and  C_27 
REMARK    5  A    between atoms: O_6  and  C_28 
REMARK    6  A    between atoms: O_7  and  C_32 
REMARK    7  A    between atoms: C_10  and  C_19 
REMARK    8  A    between atoms: C_19  and  C_27 
REMARK    9  A    between atoms: C_27  and  C_30 
REMARK   10  A    between atoms: C_30  and  C_31 
REMARK   11  A    between atoms: C_31  and  C_32 
ROOT
HETATM    1  O   UNK     0      -1.581   3.951   9.175  0.00  0.00    -0.384 OA
HETATM    2  H   UNK     0      -1.850   3.719   8.269  0.00  0.00     0.211 HD
ENDROOT
BRANCH   1   3
HETATM    3  C   UNK     0      -0.259   4.533   9.109  0.00  0.00     0.089 C 
HETATM    4  C   UNK     0       0.769   3.543   9.715  0.00  0.00    -0.002 C 
HETATM    5  C   UNK     0       0.292   3.496  11.189  0.00  0.00     0.034 C 
HETATM    6  C   UNK     0       0.647   2.197   8.977  0.00  0.00     0.014 C 
HETATM    7  C   UNK     0       2.231   4.058   9.623  0.00  0.00     0.019 C 
HETATM    8  C   UNK     0      -0.084   4.963  11.500  0.00  0.00     0.012 C 
HETATM    9  C   UNK     0      -0.259   5.672  10.140  0.00  0.00     0.044 C 
HETATM   10  C   UNK     0       0.909   2.368   7.472  0.00  0.00     0.011 C 
HETATM   11  C   UNK     0       0.100   3.510   6.783  0.00  0.00     0.027 C 
HETATM   12  C   UNK     0       0.588   3.787   5.307  0.00  0.00    -0.023 C 
HETATM   13  C   UNK     0       0.003   4.782   7.639  0.00  0.00    -0.037 C 
HETATM   14  C   UNK     0      -0.111   5.056   4.744  0.00  0.00     0.071 C 
HETATM   15  C   UNK     0       0.272   2.590   4.365  0.00  0.00     0.044 C 
HETATM   16  C   UNK     0       2.123   4.017   5.248  0.00  0.00     0.016 C 
HETATM   17  C   UNK     0      -1.612   4.860   4.471  0.00  0.00     0.047 C 
HETATM   18  C   UNK     0       0.085   6.244   5.666  0.00  0.00     0.154 C 
HETATM   19  C   UNK     0      -1.869   3.673   3.544  0.00  0.00     0.147 C 
HETATM   20  C   UNK     0      -1.224   2.401   4.094  0.00  0.00     0.147 C 
HETATM   21  O   UNK     0       0.204   7.388   5.230  0.00  0.00    -0.293 OA
HETATM   22  C   UNK     0       0.046   6.022   7.129  0.00  0.00     0.057 C 
BRANCH   5  23
HETATM   23  C   UNK     0       1.267   2.909  12.202  0.00  0.00     0.084 C 
HETATM   24  C   UNK     0       1.773   4.017  13.142  0.00  0.00     0.049 C 
BRANCH  23  25
HETATM   25  O   UNK     0       0.564   1.953  13.007  0.00  0.00    -0.387 OA
HETATM   26  H   UNK     0       0.453   1.134  12.498  0.00  0.00     0.210 HD
ENDBRANCH  23  25
BRANCH  23  27
HETATM   27  C   UNK     0       2.458   2.184  11.519  0.00  0.00     0.152 C 
BRANCH  27  28
HETATM   28  O   UNK     0       2.205   0.775  11.482  0.00  0.00    -0.393 OA
HETATM   29  H   UNK     0       2.046   0.485  12.398  0.00  0.00     0.210 HD
ENDBRANCH  27  28
BRANCH  27  30
HETATM   30  C   UNK     0       3.818   2.414  12.206  0.00  0.00     0.037 C 
BRANCH  30  31
HETATM   31  C   UNK     0       4.377   1.120  12.827  0.00  0.00     0.040 C 
BRANCH  31  32
HETATM   32  C   UNK     0       4.118   0.973  14.341  0.00  0.00     0.051 C 
HETATM   33  C   UNK     0       4.980  -0.164  14.901  0.00  0.00     0.045 C 
HETATM   34  C   UNK     0       4.395   2.265  15.112  0.00  0.00     0.045 C 
BRANCH  32  35
HETATM   35  O   UNK     0       2.747   0.617  14.530  0.00  0.00    -0.391 OA
HETATM   36  H   UNK     0       2.682   0.105  15.354  0.00  0.00     0.210 HD
ENDBRANCH  32  35
ENDBRANCH  31  32
ENDBRANCH  30  31
ENDBRANCH  27  30
ENDBRANCH  23  27
ENDBRANCH   5  23
BRANCH  19  37
HETATM   37  O   UNK     0      -1.322   3.960   2.255  0.00  0.00    -0.393 OA
HETATM   38  H   UNK     0      -0.522   3.418   2.149  0.00  0.00     0.210 HD
ENDBRANCH  19  37
BRANCH  20  39
HETATM   39  O   UNK     0      -1.409   1.344   3.155  0.00  0.00    -0.393 OA
HETATM   40  H   UNK     0      -0.528   1.048   2.869  0.00  0.00     0.210 HD
ENDBRANCH  20  39
ENDBRANCH   1   3
TORSDOF 11
ENDMDL
MODEL 5
REMARK VINA RESULT:      -4.4     10.409     11.754
REMARK  11 active torsions:
REMARK  status: ('A' for Active; 'I' for Inactive)
REMARK    1  A    between atoms: O_1  and  C_9 
REMARK    2  A    between atoms: O_2  and  C_19 
REMARK    3  A    between atoms: O_3  and  C_26 
REMARK    4  A    between atoms: O_4  and  C_27 
REMARK    5  A    between atoms: O_6  and  C_28 
REMARK    6  A    between atoms: O_7  and  C_32 
REMARK    7  A    between atoms: C_10  and  C_19 
REMARK    8  A    between atoms: C_19  and  C_27 
REMARK    9  A    between atoms: C_27  and  C_30 
REMARK   10  A    between atoms: C_30  and  C_31 
REMARK   11  A    between atoms: C_31  and  C_32 
ROOT
HETATM    1  O   UNK     0       1.137   1.843   8.822  0.00  0.00    -0.384 OA
HETATM    2  H   UNK     0       0.228   1.674   8.520  0.00  0.00     0.211 HD
ENDROOT
BRANCH   1   3
HETATM    3  C   UNK     0       1.453   3.222   8.525  0.00  0.00     0.089 C 
HETATM    4  C   UNK     0       0.662   3.672   7.269  0.00  0.00    -0.002 C 
HETATM    5  C   UNK     0       1.284   2.750   6.190  0.00  0.00     0.034 C 
HETATM    6  C   UNK     0      -0.836   3.419   7.517  0.00  0.00     0.014 C 
HETATM    7  C   UNK     0       0.888   5.167   6.916  0.00  0.00     0.019 C 
HETATM    8  C   UNK     0       2.788   2.726   6.549  0.00  0.00     0.012 C 
HETATM    9  C   UNK     0       2.901   3.212   8.011  0.00  0.00     0.044 C 
HETATM   10  C   UNK     0      -1.329   4.192   8.751  0.00  0.00     0.011 C 
HETATM   11  C   UNK     0      -0.465   4.011  10.037  0.00  0.00     0.027 C 
HETATM   12  C   UNK     0      -0.882   5.009  11.187  0.00  0.00    -0.023 C 
HETATM   13  C   UNK     0       1.045   4.007   9.754  0.00  0.00    -0.037 C 
HETATM   14  C   UNK     0       0.133   4.922  12.361  0.00  0.00     0.071 C 
HETATM   15  C   UNK     0      -2.301   4.690  11.737  0.00  0.00     0.044 C 
HETATM   16  C   UNK     0      -0.911   6.479  10.685  0.00  0.00     0.016 C 
HETATM   17  C   UNK     0       0.053   3.601  13.145  0.00  0.00     0.047 C 
HETATM   18  C   UNK     0       1.554   5.137  11.876  0.00  0.00     0.154 C 
HETATM   19  C   UNK     0      -1.360   3.333  13.661  0.00  0.00     0.147 C 
HETATM   20  C   UNK     0      -2.376   3.374  12.519  0.00  0.00     0.147 C 
HETATM   21  O   UNK     0       2.393   5.712  12.567  0.00  0.00    -0.293 OA
HETATM   22  C   UNK     0       1.952   4.564  10.570  0.00  0.00     0.057 C 
BRANCH   5  23
HETATM   23  C   UNK     0       1.030   3.134   4.737  0.00  0.00     0.084 C 
HETATM   24  C   UNK     0       1.493   4.580   4.492  0.00  0.00     0.049 C 
BRANCH  23  25
HETATM   25  O   UNK     0       1.823   2.282   3.899  0.00  0.00    -0.387 OA
HETATM   26  H   UNK     0       2.229   2.820   3.199  0.00  0.00     0.210 HD
ENDBRANCH  23  25
BRANCH  23  27
HETATM   27  C   UNK     0      -0.459   2.958   4.336  0.00  0.00     0.152 C 
BRANCH  27  28
HETATM   28  O   UNK     0      -0.658   1.651   3.788  0.00  0.00    -0.393 OA
HETATM   29  H   UNK     0      -0.484   1.708   2.831  0.00  0.00     0.210 HD
ENDBRANCH  27  28
BRANCH  27  30
HETATM   30  C   UNK     0      -0.965   3.994   3.313  0.00  0.00     0.037 C 
BRANCH  30  31
HETATM   31  C   UNK     0      -2.442   3.765   2.941  0.00  0.00     0.040 C 
BRANCH  31  32
HETATM   32  C   UNK     0      -2.671   3.293   1.490  0.00  0.00     0.051 C 
HETATM   33  C   UNK     0      -4.175   3.175   1.221  0.00  0.00     0.045 C 
HETATM   34  C   UNK     0      -2.029   4.227   0.461  0.00  0.00     0.045 C 
BRANCH  32  35
HETATM   35  O   UNK     0      -2.095   1.993   1.344  0.00  0.00    -0.391 OA
HETATM   36  H   UNK     0      -1.308   1.950   1.912  0.00  0.00     0.210 HD
ENDBRANCH  32  35
ENDBRANCH  31  32
ENDBRANCH  30  31
ENDBRANCH  27  30
ENDBRANCH  23  27
ENDBRANCH   5  23
BRANCH  19  37
HETATM   37  O   UNK     0      -1.700   4.326  14.631  0.00  0.00    -0.393 OA
HETATM   38  H   UNK     0      -1.602   3.924  15.510  0.00  0.00     0.210 HD
ENDBRANCH  19  37
BRANCH  20  39
HETATM   39  O   UNK     0      -3.686   3.212  13.058  0.00  0.00    -0.393 OA
HETATM   40  H   UNK     0      -4.174   2.615  12.464  0.00  0.00     0.210 HD
ENDBRANCH  20  39
ENDBRANCH   1   3
TORSDOF 11
ENDMDL
MODEL 6
REMARK VINA RESULT:      -4.2      2.309      8.499
REMARK  11 active torsions:
REMARK  status: ('A' for Active; 'I' for Inactive)
REMARK    1  A    between atoms: O_1  and  C_9 
REMARK    2  A    between atoms: O_2  and  C_19 
REMARK    3  A    between atoms: O_3  and  C_26 
REMARK    4  A    between atoms: O_4  and  C_27 
REMARK    5  A    between atoms: O_6  and  C_28 
REMARK    6  A    between atoms: O_7  and  C_32 
REMARK    7  A    between atoms: C_10  and  C_19 
REMARK    8  A    between atoms: C_19  and  C_27 
REMARK    9  A    between atoms: C_27  and  C_30 
REMARK   10  A    between atoms: C_30  and  C_31 
REMARK   11  A    between atoms: C_31  and  C_32 
ROOT
HETATM    1  O   UNK     0      -4.150  -5.551   7.253  0.00  0.00    -0.384 OA
HETATM    2  H   UNK     0      -3.889  -4.696   6.870  0.00  0.00     0.211 HD
ENDROOT
BRANCH   1   3
HETATM    3  C   UNK     0      -2.943  -6.286   7.559  0.00  0.00     0.089 C 
HETATM    4  C   UNK     0      -3.213  -7.246   8.747  0.00  0.00    -0.002 C 
HETATM    5  C   UNK     0      -3.507  -6.229   9.880  0.00  0.00     0.034 C 
HETATM    6  C   UNK     0      -4.411  -8.144   8.389  0.00  0.00     0.014 C 
HETATM    7  C   UNK     0      -1.985  -8.129   9.101  0.00  0.00     0.019 C 
HETATM    8  C   UNK     0      -2.480  -5.100   9.636  0.00  0.00     0.012 C 
HETATM    9  C   UNK     0      -1.984  -5.260   8.182  0.00  0.00     0.044 C 
HETATM   10  C   UNK     0      -4.130  -8.956   7.114  0.00  0.00     0.011 C 
HETATM   11  C   UNK     0      -3.614  -8.124   5.899  0.00  0.00     0.027 C 
HETATM   12  C   UNK     0      -3.120  -9.039   4.710  0.00  0.00    -0.023 C 
HETATM   13  C   UNK     0      -2.596  -7.043   6.295  0.00  0.00    -0.037 C 
HETATM   14  C   UNK     0      -2.437  -8.170   3.617  0.00  0.00     0.071 C 
HETATM   15  C   UNK     0      -4.299  -9.816   4.058  0.00  0.00     0.044 C 
HETATM   16  C   UNK     0      -2.092 -10.098   5.194  0.00  0.00     0.016 C 
HETATM   17  C   UNK     0      -3.419  -7.273   2.843  0.00  0.00     0.047 C 
HETATM   18  C   UNK     0      -1.331  -7.316   4.207  0.00  0.00     0.154 C 
HETATM   19  C   UNK     0      -4.557  -8.084   2.224  0.00  0.00     0.147 C 
HETATM   20  C   UNK     0      -5.273  -8.920   3.285  0.00  0.00     0.147 C 
HETATM   21  O   UNK     0      -0.307  -7.058   3.576  0.00  0.00    -0.293 OA
HETATM   22  C   UNK     0      -1.533  -6.716   5.544  0.00  0.00     0.057 C 
BRANCH   5  23
HETATM   23  C   UNK     0      -3.466  -6.767  11.305  0.00  0.00     0.084 C 
HETATM   24  C   UNK     0      -4.197  -8.118  11.373  0.00  0.00     0.049 C 
BRANCH  23  25
HETATM   25  O   UNK     0      -2.097  -7.002  11.661  0.00  0.00    -0.387 OA
HETATM   26  H   UNK     0      -1.698  -6.164  11.947  0.00  0.00     0.210 HD
ENDBRANCH  23  25
BRANCH  23  27
HETATM   27  C   UNK     0      -4.067  -5.765  12.328  0.00  0.00     0.152 C 
BRANCH  27  28
HETATM   28  O   UNK     0      -3.938  -6.296  13.651  0.00  0.00    -0.393 OA
HETATM   29  H   UNK     0      -4.827  -6.561  13.946  0.00  0.00     0.210 HD
ENDBRANCH  27  28
BRANCH  27  30
HETATM   30  C   UNK     0      -5.551  -5.427  12.085  0.00  0.00     0.037 C 
BRANCH  30  31
HETATM   31  C   UNK     0      -5.820  -3.913  12.174  0.00  0.00     0.040 C 
BRANCH  31  32
HETATM   32  C   UNK     0      -6.011  -3.216  10.811  0.00  0.00     0.051 C 
HETATM   33  C   UNK     0      -4.670  -2.650  10.332  0.00  0.00     0.045 C 
HETATM   34  C   UNK     0      -6.590  -4.152   9.748  0.00  0.00     0.045 C 
BRANCH  32  35
HETATM   35  O   UNK     0      -6.911  -2.120  10.988  0.00  0.00    -0.391 OA
HETATM   36  H   UNK     0      -7.814  -2.478  11.022  0.00  0.00     0.210 HD
ENDBRANCH  32  35
ENDBRANCH  31  32
ENDBRANCH  30  31
ENDBRANCH  27  30
ENDBRANCH  23  27
ENDBRANCH   5  23
BRANCH  19  37
HETATM   37  O   UNK     0      -4.023  -8.951   1.222  0.00  0.00    -0.393 OA
HETATM   38  H   UNK     0      -4.772  -9.394   0.788  0.00  0.00     0.210 HD
ENDBRANCH  19  37
BRANCH  20  39
HETATM   39  O   UNK     0      -6.263  -9.726   2.651  0.00  0.00    -0.393 OA
HETATM   40  H   UNK     0      -5.827 -10.211   1.929  0.00  0.00     0.210 HD
ENDBRANCH  20  39
ENDBRANCH   1   3
TORSDOF 11
ENDMDL
MODEL 7
REMARK VINA RESULT:      -4.2     10.011     13.046
REMARK  11 active torsions:
REMARK  status: ('A' for Active; 'I' for Inactive)
REMARK    1  A    between atoms: O_1  and  C_9 
REMARK    2  A    between atoms: O_2  and  C_19 
REMARK    3  A    between atoms: O_3  and  C_26 
REMARK    4  A    between atoms: O_4  and  C_27 
REMARK    5  A    between atoms: O_6  and  C_28 
REMARK    6  A    between atoms: O_7  and  C_32 
REMARK    7  A    between atoms: C_10  and  C_19 
REMARK    8  A    between atoms: C_19  and  C_27 
REMARK    9  A    between atoms: C_27  and  C_30 
REMARK   10  A    between atoms: C_30  and  C_31 
REMARK   11  A    between atoms: C_31  and  C_32 
ROOT
HETATM    1  O   UNK     0       1.351   1.843  10.132  0.00  0.00    -0.384 OA
HETATM    2  H   UNK     0       0.942   1.362  10.872  0.00  0.00     0.211 HD
ENDROOT
BRANCH   1   3
HETATM    3  C   UNK     0       1.178   3.258  10.375  0.00  0.00     0.089 C 
HETATM    4  C   UNK     0       2.544   3.886  10.757  0.00  0.00    -0.002 C 
HETATM    5  C   UNK     0       2.833   3.157  12.095  0.00  0.00     0.034 C 
HETATM    6  C   UNK     0       3.558   3.568   9.643  0.00  0.00     0.014 C 
HETATM    7  C   UNK     0       2.466   5.422  10.970  0.00  0.00     0.019 C 
HETATM    8  C   UNK     0       1.453   3.106  12.790  0.00  0.00     0.012 C 
HETATM    9  C   UNK     0       0.395   3.357  11.693  0.00  0.00     0.044 C 
HETATM   10  C   UNK     0       3.085   4.128   8.291  0.00  0.00     0.011 C 
HETATM   11  C   UNK     0       1.620   3.762   7.898  0.00  0.00     0.027 C 
HETATM   12  C   UNK     0       1.122   4.558   6.629  0.00  0.00    -0.023 C 
HETATM   13  C   UNK     0       0.642   3.831   9.081  0.00  0.00    -0.037 C 
HETATM   14  C   UNK     0      -0.396   4.306   6.403  0.00  0.00     0.071 C 
HETATM   15  C   UNK     0       1.889   4.129   5.345  0.00  0.00     0.044 C 
HETATM   16  C   UNK     0       1.336   6.087   6.794  0.00  0.00     0.016 C 
HETATM   17  C   UNK     0      -0.718   2.876   5.936  0.00  0.00     0.047 C 
HETATM   18  C   UNK     0      -1.195   4.621   7.653  0.00  0.00     0.154 C 
HETATM   19  C   UNK     0       0.061   2.504   4.675  0.00  0.00     0.147 C 
HETATM   20  C   UNK     0       1.563   2.705   4.881  0.00  0.00     0.147 C 
HETATM   21  O   UNK     0      -2.329   5.096   7.592  0.00  0.00    -0.293 OA
HETATM   22  C   UNK     0      -0.622   4.270   8.971  0.00  0.00     0.057 C 
BRANCH   5  23
HETATM   23  C   UNK     0       3.917   3.761  12.978  0.00  0.00     0.084 C 
HETATM   24  C   UNK     0       4.979   4.449  12.104  0.00  0.00     0.049 C 
BRANCH  23  25
HETATM   25  O   UNK     0       3.321   4.771  13.802  0.00  0.00    -0.387 OA
HETATM   26  H   UNK     0       4.024   5.319  14.188  0.00  0.00     0.210 HD
ENDBRANCH  23  25
BRANCH  23  27
HETATM   27  C   UNK     0       4.574   2.703  13.907  0.00  0.00     0.152 C 
BRANCH  27  28
HETATM   28  O   UNK     0       5.872   3.155  14.305  0.00  0.00    -0.393 OA
HETATM   29  H   UNK     0       5.793   3.507  15.209  0.00  0.00     0.210 HD
ENDBRANCH  27  28
BRANCH  27  30
HETATM   30  C   UNK     0       4.721   1.307  13.272  0.00  0.00     0.037 C 
BRANCH  30  31
HETATM   31  C   UNK     0       3.740   0.288  13.883  0.00  0.00     0.040 C 
BRANCH  31  32
HETATM   32  C   UNK     0       3.171  -0.734  12.878  0.00  0.00     0.051 C 
HETATM   33  C   UNK     0       4.302  -1.631  12.363  0.00  0.00     0.045 C 
HETATM   34  C   UNK     0       2.059  -1.594  13.482  0.00  0.00     0.045 C 
BRANCH  32  35
HETATM   35  O   UNK     0       2.636  -0.019  11.763  0.00  0.00    -0.391 OA
HETATM   36  H   UNK     0       2.097  -0.637  11.242  0.00  0.00     0.210 HD
ENDBRANCH  32  35
ENDBRANCH  31  32
ENDBRANCH  30  31
ENDBRANCH  27  30
ENDBRANCH  23  27
ENDBRANCH   5  23
BRANCH  19  37
HETATM   37  O   UNK     0      -0.380   3.325   3.592  0.00  0.00    -0.393 OA
HETATM   38  H   UNK     0      -0.584   4.203   3.954  0.00  0.00     0.210 HD
ENDBRANCH  19  37
BRANCH  20  39
HETATM   39  O   UNK     0       2.240   2.435   3.656  0.00  0.00    -0.393 OA
HETATM   40  H   UNK     0       1.694   2.794   2.935  0.00  0.00     0.210 HD
ENDBRANCH  20  39
ENDBRANCH   1   3
TORSDOF 11
ENDMDL
MODEL 8
REMARK VINA RESULT:      -4.1     10.569     13.587
REMARK  11 active torsions:
REMARK  status: ('A' for Active; 'I' for Inactive)
REMARK    1  A    between atoms: O_1  and  C_9 
REMARK    2  A    between atoms: O_2  and  C_19 
REMARK    3  A    between atoms: O_3  and  C_26 
REMARK    4  A    between atoms: O_4  and  C_27 
REMARK    5  A    between atoms: O_6  and  C_28 
REMARK    6  A    between atoms: O_7  and  C_32 
REMARK    7  A    between atoms: C_10  and  C_19 
REMARK    8  A    between atoms: C_19  and  C_27 
REMARK    9  A    between atoms: C_27  and  C_30 
REMARK   10  A    between atoms: C_30  and  C_31 
REMARK   11  A    between atoms: C_31  and  C_32 
ROOT
HETATM    1  O   UNK     0       0.760   2.970   4.064  0.00  0.00    -0.384 OA
HETATM    2  H   UNK     0       1.300   2.327   4.556  0.00  0.00     0.211 HD
ENDROOT
BRANCH   1   3
HETATM    3  C   UNK     0      -0.539   3.032   4.697  0.00  0.00     0.089 C 
HETATM    4  C   UNK     0      -0.479   4.010   5.899  0.00  0.00    -0.002 C 
HETATM    5  C   UNK     0       0.519   3.268   6.825  0.00  0.00     0.034 C 
HETATM    6  C   UNK     0       0.032   5.373   5.398  0.00  0.00     0.014 C 
HETATM    7  C   UNK     0      -1.853   4.192   6.600  0.00  0.00     0.019 C 
HETATM    8  C   UNK     0       0.119   1.782   6.681  0.00  0.00     0.012 C 
HETATM    9  C   UNK     0      -0.724   1.674   5.391  0.00  0.00     0.044 C 
HETATM   10  C   UNK     0      -0.892   5.940   4.308  0.00  0.00     0.011 C 
HETATM   11  C   UNK     0      -1.229   4.956   3.145  0.00  0.00     0.027 C 
HETATM   12  C   UNK     0      -2.361   5.512   2.195  0.00  0.00    -0.023 C 
HETATM   13  C   UNK     0      -1.491   3.521   3.626  0.00  0.00    -0.037 C 
HETATM   14  C   UNK     0      -2.793   4.416   1.182  0.00  0.00     0.071 C 
HETATM   15  C   UNK     0      -1.880   6.758   1.399  0.00  0.00     0.044 C 
HETATM   16  C   UNK     0      -3.618   5.946   2.999  0.00  0.00     0.016 C 
HETATM   17  C   UNK     0      -1.721   4.100   0.124  0.00  0.00     0.047 C 
HETATM   18  C   UNK     0      -3.191   3.137   1.894  0.00  0.00     0.154 C 
HETATM   19  C   UNK     0      -1.282   5.356  -0.628  0.00  0.00     0.147 C 
HETATM   20  C   UNK     0      -0.815   6.440   0.344  0.00  0.00     0.147 C 
HETATM   21  O   UNK     0      -4.090   2.413   1.468  0.00  0.00    -0.293 OA
HETATM   22  C   UNK     0      -2.418   2.716   3.084  0.00  0.00     0.057 C 
BRANCH   5  23
HETATM   23  C   UNK     0       0.570   3.727   8.277  0.00  0.00     0.084 C 
HETATM   24  C   UNK     0      -0.321   4.967   8.464  0.00  0.00     0.049 C 
BRANCH  23  25
HETATM   25  O   UNK     0       0.031   2.685   9.101  0.00  0.00    -0.387 OA
HETATM   26  H   UNK     0       0.400   1.833   8.814  0.00  0.00     0.210 HD
ENDBRANCH  23  25
BRANCH  23  27
HETATM   27  C   UNK     0       2.020   4.017   8.751  0.00  0.00     0.152 C 
BRANCH  27  28
HETATM   28  O   UNK     0       2.839   2.865   8.521  0.00  0.00    -0.393 OA
HETATM   29  H   UNK     0       3.004   2.450   9.386  0.00  0.00     0.210 HD
ENDBRANCH  27  28
BRANCH  27  30
HETATM   30  C   UNK     0       2.135   4.404  10.238  0.00  0.00     0.037 C 
BRANCH  30  31
HETATM   31  C   UNK     0       3.045   3.437  11.018  0.00  0.00     0.040 C 
BRANCH  31  32
HETATM   32  C   UNK     0       2.291   2.363  11.829  0.00  0.00     0.051 C 
HETATM   33  C   UNK     0       3.215   1.800  12.915  0.00  0.00     0.045 C 
HETATM   34  C   UNK     0       1.007   2.901  12.464  0.00  0.00     0.045 C 
BRANCH  32  35
HETATM   35  O   UNK     0       1.948   1.293  10.947  0.00  0.00    -0.391 OA
HETATM   36  H   UNK     0       2.237   1.538  10.053  0.00  0.00     0.210 HD
ENDBRANCH  32  35
ENDBRANCH  31  32
ENDBRANCH  30  31
ENDBRANCH  27  30
ENDBRANCH  23  27
ENDBRANCH   5  23
BRANCH  19  37
HETATM   37  O   UNK     0      -2.382   5.852  -1.393  0.00  0.00    -0.393 OA
HETATM   38  H   UNK     0      -2.243   6.805  -1.523  0.00  0.00     0.210 HD
ENDBRANCH  19  37
BRANCH  20  39
HETATM   39  O   UNK     0      -0.503   7.620  -0.392  0.00  0.00    -0.393 OA
HETATM   40  H   UNK     0      -1.138   7.683  -1.126  0.00  0.00     0.210 HD
ENDBRANCH  20  39
ENDBRANCH   1   3
TORSDOF 11
ENDMDL
MODEL 9
REMARK VINA RESULT:      -4.1     10.480     12.851
REMARK  11 active torsions:
REMARK  status: ('A' for Active; 'I' for Inactive)
REMARK    1  A    between atoms: O_1  and  C_9 
REMARK    2  A    between atoms: O_2  and  C_19 
REMARK    3  A    between atoms: O_3  and  C_26 
REMARK    4  A    between atoms: O_4  and  C_27 
REMARK    5  A    between atoms: O_6  and  C_28 
REMARK    6  A    between atoms: O_7  and  C_32 
REMARK    7  A    between atoms: C_10  and  C_19 
REMARK    8  A    between atoms: C_19  and  C_27 
REMARK    9  A    between atoms: C_27  and  C_30 
REMARK   10  A    between atoms: C_30  and  C_31 
REMARK   11  A    between atoms: C_31  and  C_32 
ROOT
HETATM    1  O   UNK     0       2.983   1.839   6.772  0.00  0.00    -0.384 OA
HETATM    2  H   UNK     0       2.826   1.474   5.883  0.00  0.00     0.211 HD
ENDROOT
BRANCH   1   3
HETATM    3  C   UNK     0       2.456   3.185   6.795  0.00  0.00     0.089 C 
HETATM    4  C   UNK     0       0.927   3.135   7.048  0.00  0.00    -0.002 C 
HETATM    5  C   UNK     0       0.446   2.409   5.766  0.00  0.00     0.034 C 
HETATM    6  C   UNK     0       0.670   2.347   8.345  0.00  0.00     0.014 C 
HETATM    7  C   UNK     0       0.286   4.546   7.158  0.00  0.00     0.019 C 
HETATM    8  C   UNK     0       1.320   3.019   4.647  0.00  0.00     0.012 C 
HETATM    9  C   UNK     0       2.530   3.681   5.343  0.00  0.00     0.044 C 
HETATM   10  C   UNK     0       1.376   3.007   9.540  0.00  0.00     0.011 C 
HETATM   11  C   UNK     0       2.886   3.333   9.321  0.00  0.00     0.027 C 
HETATM   12  C   UNK     0       3.485   4.219  10.483  0.00  0.00    -0.023 C 
HETATM   13  C   UNK     0       3.186   3.888   7.920  0.00  0.00    -0.037 C 
HETATM   14  C   UNK     0       4.924   4.677  10.117  0.00  0.00     0.071 C 
HETATM   15  C   UNK     0       3.543   3.437  11.827  0.00  0.00     0.044 C 
HETATM   16  C   UNK     0       2.625   5.488  10.735  0.00  0.00     0.016 C 
HETATM   17  C   UNK     0       5.954   3.534  10.126  0.00  0.00     0.047 C 
HETATM   18  C   UNK     0       4.952   5.371   8.769  0.00  0.00     0.154 C 
HETATM   19  C   UNK     0       5.971   2.798  11.465  0.00  0.00     0.147 C 
HETATM   20  C   UNK     0       4.572   2.301  11.833  0.00  0.00     0.147 C 
HETATM   21  O   UNK     0       5.716   6.307   8.539  0.00  0.00    -0.293 OA
HETATM   22  C   UNK     0       4.092   4.849   7.683  0.00  0.00     0.057 C 
BRANCH   5  23
HETATM   23  C   UNK     0      -1.045   2.486   5.458  0.00  0.00     0.084 C 
HETATM   24  C   UNK     0      -1.572   1.091   5.083  0.00  0.00     0.049 C 
BRANCH  23  25
HETATM   25  O   UNK     0      -1.732   2.898   6.647  0.00  0.00    -0.387 OA
HETATM   26  H   UNK     0      -2.400   3.562   6.411  0.00  0.00     0.210 HD
ENDBRANCH  23  25
BRANCH  23  27
HETATM   27  C   UNK     0      -1.361   3.512   4.337  0.00  0.00     0.152 C 
BRANCH  27  28
HETATM   28  O   UNK     0      -2.108   4.604   4.882  0.00  0.00    -0.393 OA
HETATM   29  H   UNK     0      -2.967   4.251   5.174  0.00  0.00     0.210 HD
ENDBRANCH  27  28
BRANCH  27  30
HETATM   30  C   UNK     0      -2.151   2.929   3.150  0.00  0.00     0.037 C 
BRANCH  30  31
HETATM   31  C   UNK     0      -2.280   3.936   1.991  0.00  0.00     0.040 C 
BRANCH  31  32
HETATM   32  C   UNK     0      -2.508   3.293   0.607  0.00  0.00     0.051 C 
HETATM   33  C   UNK     0      -3.986   3.418   0.221  0.00  0.00     0.045 C 
HETATM   34  C   UNK     0      -1.630   3.915  -0.481  0.00  0.00     0.045 C 
BRANCH  32  35
HETATM   35  O   UNK     0      -2.195   1.901   0.701  0.00  0.00    -0.391 OA
HETATM   36  H   UNK     0      -1.719   1.647  -0.107  0.00  0.00     0.210 HD
ENDBRANCH  32  35
ENDBRANCH  31  32
ENDBRANCH  30  31
ENDBRANCH  27  30
ENDBRANCH  23  27
ENDBRANCH   5  23
BRANCH  19  37
HETATM   37  O   UNK     0       6.438   3.686  12.481  0.00  0.00    -0.393 OA
HETATM   38  H   UNK     0       5.896   4.493  12.438  0.00  0.00     0.210 HD
ENDBRANCH  19  37
BRANCH  20  39
HETATM   39  O   UNK     0       4.618   1.704  13.126  0.00  0.00    -0.393 OA
HETATM   40  H   UNK     0       4.108   2.272  13.729  0.00  0.00     0.210 HD
ENDBRANCH  20  39
ENDBRANCH   1   3
TORSDOF 11
ENDMDL
MODEL 10
REMARK VINA RESULT:      -4.1      1.990      9.047
REMARK  11 active torsions:
REMARK  status: ('A' for Active; 'I' for Inactive)
REMARK    1  A    between atoms: O_1  and  C_9 
REMARK    2  A    between atoms: O_2  and  C_19 
REMARK    3  A    between atoms: O_3  and  C_26 
REMARK    4  A    between atoms: O_4  and  C_27 
REMARK    5  A    between atoms: O_6  and  C_28 
REMARK    6  A    between atoms: O_7  and  C_32 
REMARK    7  A    between atoms: C_10  and  C_19 
REMARK    8  A    between atoms: C_19  and  C_27 
REMARK    9  A    between atoms: C_27  and  C_30 
REMARK   10  A    between atoms: C_30  and  C_31 
REMARK   11  A    between atoms: C_31  and  C_32 
ROOT
HETATM    1  O   UNK     0      -0.950  -8.048   8.701  0.00  0.00    -0.384 OA
HETATM    2  H   UNK     0      -0.438  -8.577   8.064  0.00  0.00     0.211 HD
ENDROOT
BRANCH   1   3
HETATM    3  C   UNK     0      -2.316  -7.992   8.232  0.00  0.00     0.089 C 
HETATM    4  C   UNK     0      -2.764  -6.511   8.128  0.00  0.00    -0.002 C 
HETATM    5  C   UNK     0      -2.706  -6.086   9.617  0.00  0.00     0.034 C 
HETATM    6  C   UNK     0      -1.769  -5.760   7.226  0.00  0.00     0.014 C 
HETATM    7  C   UNK     0      -4.202  -6.353   7.564  0.00  0.00     0.019 C 
HETATM    8  C   UNK     0      -3.261  -7.315  10.372  0.00  0.00     0.012 C 
HETATM    9  C   UNK     0      -3.173  -8.510   9.397  0.00  0.00     0.044 C 
HETATM   10  C   UNK     0      -1.712  -6.389   5.824  0.00  0.00     0.011 C 
HETATM   11  C   UNK     0      -1.503  -7.935   5.798  0.00  0.00     0.027 C 
HETATM   12  C   UNK     0      -1.693  -8.543   4.354  0.00  0.00    -0.023 C 
HETATM   13  C   UNK     0      -2.310  -8.671   6.879  0.00  0.00    -0.037 C 
HETATM   14  C   UNK     0      -1.672 -10.096   4.423  0.00  0.00     0.071 C 
HETATM   15  C   UNK     0      -0.571  -8.077   3.383  0.00  0.00     0.044 C 
HETATM   16  C   UNK     0      -3.045  -8.109   3.725  0.00  0.00     0.016 C 
HETATM   17  C   UNK     0      -0.285 -10.677   4.751  0.00  0.00     0.047 C 
HETATM   18  C   UNK     0      -2.687 -10.615   5.424  0.00  0.00     0.154 C 
HETATM   19  C   UNK     0       0.780 -10.188   3.771  0.00  0.00     0.147 C 
HETATM   20  C   UNK     0       0.807  -8.660   3.712  0.00  0.00     0.147 C 
HETATM   21  O   UNK     0      -3.291 -11.671   5.243  0.00  0.00    -0.293 OA
HETATM   22  C   UNK     0      -2.887  -9.867   6.685  0.00  0.00     0.057 C 
BRANCH   5  23
HETATM   23  C   UNK     0      -3.424  -4.794   9.985  0.00  0.00     0.084 C 
HETATM   24  C   UNK     0      -2.735  -4.141  11.195  0.00  0.00     0.049 C 
BRANCH  23  25
HETATM   25  O   UNK     0      -3.310  -3.882   8.884  0.00  0.00    -0.387 OA
HETATM   26  H   UNK     0      -2.841  -4.324   8.157  0.00  0.00     0.210 HD
ENDBRANCH  23  25
BRANCH  23  27
HETATM   27  C   UNK     0      -4.933  -5.021  10.271  0.00  0.00     0.152 C 
BRANCH  27  28
HETATM   28  O   UNK     0      -5.714  -4.157   9.439  0.00  0.00    -0.393 OA
HETATM   29  H   UNK     0      -5.738  -4.553   8.550  0.00  0.00     0.210 HD
ENDBRANCH  27  28
BRANCH  27  30
HETATM   30  C   UNK     0      -5.343  -4.783  11.737  0.00  0.00     0.037 C 
BRANCH  30  31
HETATM   31  C   UNK     0      -6.756  -4.180  11.851  0.00  0.00     0.040 C 
BRANCH  31  32
HETATM   32  C   UNK     0      -6.785  -2.692  12.260  0.00  0.00     0.051 C 
HETATM   33  C   UNK     0      -8.042  -2.414  13.091  0.00  0.00     0.045 C 
HETATM   34  C   UNK     0      -5.539  -2.274  13.043  0.00  0.00     0.045 C 
BRANCH  32  35
HETATM   35  O   UNK     0      -6.861  -1.901  11.072  0.00  0.00    -0.391 OA
HETATM   36  H   UNK     0      -7.235  -1.037  11.313  0.00  0.00     0.210 HD
ENDBRANCH  32  35
ENDBRANCH  31  32
ENDBRANCH  30  31
ENDBRANCH  27  30
ENDBRANCH  23  27
ENDBRANCH   5  23
BRANCH  19  37
HETATM   37  O   UNK     0       0.492 -10.705   2.471  0.00  0.00    -0.393 OA
HETATM   38  H   UNK     0       0.098 -11.586   2.586  0.00  0.00     0.210 HD
ENDBRANCH  19  37
BRANCH  20  39
HETATM   39  O   UNK     0       1.748  -8.251   2.721  0.00  0.00    -0.393 OA
HETATM   40  H   UNK     0       2.605  -8.130   3.165  0.00  0.00     0.210 HD
ENDBRANCH  20  39
ENDBRANCH   1   3
TORSDOF 11
ENDMDL
