MODEL 1
REMARK VINA RESULT:      -6.0      0.000      0.000
REMARK  5 active torsions:
REMARK  status: ('A' for Active; 'I' for Inactive)
REMARK    1  A    between atoms: C_3  and  O_1 
REMARK    2  A    between atoms: C_4  and  O_14 
REMARK    3  A    between atoms: C_7  and  C_8 
REMARK    4  A    between atoms: C_9  and  C_10 
REMARK    5  A    between atoms: C_10  and  O_12 
ROOT
ATOM      1  C   LIG     1     147.358 174.112 134.631  0.00  0.00     0.162 A 
ATOM      2  C   LIG     1     148.497 174.679 135.206  0.00  0.00     0.158 A 
ATOM      3  C   LIG     1     149.757 174.395 134.681  0.00  0.00     0.050 A 
ATOM      4  C   LIG     1     149.880 173.544 133.582  0.00  0.00     0.012 A 
ATOM      5  C   LIG     1     148.742 172.978 133.008  0.00  0.00    -0.021 A 
ATOM      6  C   LIG     1     147.481 173.262 133.532  0.00  0.00     0.057 A 
ENDROOT
BRANCH   5   7
ATOM      7  C   LIG     1     148.870 172.093 131.862  0.00  0.00     0.015 C 
ATOM      8  C   LIG     1     149.959 171.348 131.566  0.00  0.00     0.092 C 
BRANCH   8   9
ATOM      9  C   LIG     1     149.960 170.478 130.374  0.00  0.00     0.330 C 
ATOM     10  O   LIG     1     150.938 170.119 129.738  0.00  0.00    -0.246 OA
BRANCH   9  11
ATOM     11  O   LIG     1     148.683 170.131 130.088  0.00  0.00    -0.478 OA
ATOM     12  H   LIG     1     148.580 169.844 129.156  0.00  0.00     0.295 HD
ENDBRANCH   9  11
ENDBRANCH   8   9
ENDBRANCH   5   7
BRANCH   1  13
ATOM     13  O   LIG     1     146.121 174.382 135.136  0.00  0.00    -0.491 OA
ATOM     14  C   LIG     1     145.219 175.094 134.291  0.00  0.00     0.277 C 
ENDBRANCH   1  13
BRANCH   2  15
ATOM     15  O   LIG     1     148.390 175.510 136.280  0.00  0.00    -0.503 OA
ATOM     16  H   LIG     1     147.611 176.081 136.162  0.00  0.00     0.292 HD
ENDBRANCH   2  15
TORSDOF 5
ENDMDL
MODEL 2
REMARK VINA RESULT:      -5.9      3.836      6.552
REMARK  5 active torsions:
REMARK  status: ('A' for Active; 'I' for Inactive)
REMARK    1  A    between atoms: C_3  and  O_1 
REMARK    2  A    between atoms: C_4  and  O_14 
REMARK    3  A    between atoms: C_7  and  C_8 
REMARK    4  A    between atoms: C_9  and  C_10 
REMARK    5  A    between atoms: C_10  and  O_12 
ROOT
ATOM      1  C   LIG     1     150.769 169.936 130.799  0.00  0.00     0.162 A 
ATOM      2  C   LIG     1     149.606 170.690 130.957  0.00  0.00     0.158 A 
ATOM      3  C   LIG     1     149.604 171.797 131.806  0.00  0.00     0.050 A 
ATOM      4  C   LIG     1     150.764 172.150 132.497  0.00  0.00     0.012 A 
ATOM      5  C   LIG     1     151.925 171.395 132.338  0.00  0.00    -0.021 A 
ATOM      6  C   LIG     1     151.929 170.289 131.490  0.00  0.00     0.057 A 
ENDROOT
BRANCH   5   7
ATOM      7  C   LIG     1     153.135 171.764 133.057  0.00  0.00     0.015 C 
ATOM      8  C   LIG     1     154.163 170.932 133.336  0.00  0.00     0.092 C 
BRANCH   8   9
ATOM      9  C   LIG     1     155.344 171.432 134.067  0.00  0.00     0.330 C 
ATOM     10  O   LIG     1     156.509 171.331 133.719  0.00  0.00    -0.246 OA
BRANCH   9  11
ATOM     11  O   LIG     1     154.926 172.034 135.205  0.00  0.00    -0.478 OA
ATOM     12  H   LIG     1     155.551 172.729 135.504  0.00  0.00     0.295 HD
ENDBRANCH   9  11
ENDBRANCH   8   9
ENDBRANCH   5   7
BRANCH   1  13
ATOM     13  O   LIG     1     150.784 168.852 129.973  0.00  0.00    -0.491 OA
ATOM     14  C   LIG     1     152.039 168.202 129.780  0.00  0.00     0.277 C 
ENDBRANCH   1  13
BRANCH   2  15
ATOM     15  O   LIG     1     148.468 170.355 130.289  0.00  0.00    -0.503 OA
ATOM     16  H   LIG     1     148.679 170.223 129.349  0.00  0.00     0.292 HD
ENDBRANCH   2  15
TORSDOF 5
ENDMDL
MODEL 3
REMARK VINA RESULT:      -5.9     19.115     20.329
REMARK  5 active torsions:
REMARK  status: ('A' for Active; 'I' for Inactive)
REMARK    1  A    between atoms: C_3  and  O_1 
REMARK    2  A    between atoms: C_4  and  O_14 
REMARK    3  A    between atoms: C_7  and  C_8 
REMARK    4  A    between atoms: C_9  and  C_10 
REMARK    5  A    between atoms: C_10  and  O_12 
ROOT
ATOM      1  C   LIG     1     162.525 159.456 141.257  0.00  0.00     0.162 A 
ATOM      2  C   LIG     1     161.788 160.294 142.094  0.00  0.00     0.158 A 
ATOM      3  C   LIG     1     160.450 160.565 141.808  0.00  0.00     0.050 A 
ATOM      4  C   LIG     1     159.849 159.998 140.683  0.00  0.00     0.012 A 
ATOM      5  C   LIG     1     160.586 159.162 139.846  0.00  0.00    -0.021 A 
ATOM      6  C   LIG     1     161.924 158.890 140.132  0.00  0.00     0.057 A 
ENDROOT
BRANCH   5   7
ATOM      7  C   LIG     1     159.959 158.570 138.675  0.00  0.00     0.015 C 
ATOM      8  C   LIG     1     160.296 157.383 138.123  0.00  0.00     0.092 C 
BRANCH   8   9
ATOM      9  C   LIG     1     159.573 156.887 136.935  0.00  0.00     0.330 C 
ATOM     10  O   LIG     1     160.073 156.466 135.905  0.00  0.00    -0.246 OA
BRANCH   9  11
ATOM     11  O   LIG     1     158.242 156.971 137.170  0.00  0.00    -0.478 OA
ATOM     12  H   LIG     1     157.893 157.869 136.987  0.00  0.00     0.295 HD
ENDBRANCH   9  11
ENDBRANCH   8   9
ENDBRANCH   5   7
BRANCH   1  13
ATOM     13  O   LIG     1     163.833 159.185 141.526  0.00  0.00    -0.491 OA
ATOM     14  C   LIG     1     164.811 159.924 140.796  0.00  0.00     0.277 C 
ENDBRANCH   1  13
BRANCH   2  15
ATOM     15  O   LIG     1     162.364 160.854 143.194  0.00  0.00    -0.503 OA
ATOM     16  H   LIG     1     161.763 161.527 143.559  0.00  0.00     0.292 HD
ENDBRANCH   2  15
TORSDOF 5
ENDMDL
MODEL 4
REMARK VINA RESULT:      -5.9      3.674      5.566
REMARK  5 active torsions:
REMARK  status: ('A' for Active; 'I' for Inactive)
REMARK    1  A    between atoms: C_3  and  O_1 
REMARK    2  A    between atoms: C_4  and  O_14 
REMARK    3  A    between atoms: C_7  and  C_8 
REMARK    4  A    between atoms: C_9  and  C_10 
REMARK    5  A    between atoms: C_10  and  O_12 
ROOT
ATOM      1  C   LIG     1     149.644 171.756 131.877  0.00  0.00     0.162 A 
ATOM      2  C   LIG     1     149.578 170.686 130.985  0.00  0.00     0.158 A 
ATOM      3  C   LIG     1     150.721 169.939 130.707  0.00  0.00     0.050 A 
ATOM      4  C   LIG     1     151.932 170.260 131.322  0.00  0.00     0.012 A 
ATOM      5  C   LIG     1     151.997 171.330 132.214  0.00  0.00    -0.021 A 
ATOM      6  C   LIG     1     150.854 172.078 132.492  0.00  0.00     0.057 A 
ENDROOT
BRANCH   5   7
ATOM      7  C   LIG     1     153.259 171.665 132.856  0.00  0.00     0.015 C 
ATOM      8  C   LIG     1     154.149 170.773 133.345  0.00  0.00     0.092 C 
BRANCH   8   9
ATOM      9  C   LIG     1     155.402 171.242 133.967  0.00  0.00     0.330 C 
ATOM     10  O   LIG     1     156.534 171.046 133.555  0.00  0.00    -0.246 OA
BRANCH   9  11
ATOM     11  O   LIG     1     155.097 171.938 135.087  0.00  0.00    -0.478 OA
ATOM     12  H   LIG     1     154.134 171.936 135.270  0.00  0.00     0.295 HD
ENDBRANCH   9  11
ENDBRANCH   8   9
ENDBRANCH   5   7
BRANCH   1  13
ATOM     13  O   LIG     1     148.533 172.495 132.156  0.00  0.00    -0.491 OA
ATOM     14  C   LIG     1     148.650 173.479 133.182  0.00  0.00     0.277 C 
ENDBRANCH   1  13
BRANCH   2  15
ATOM     15  O   LIG     1     148.402 170.363 130.377  0.00  0.00    -0.503 OA
ATOM     16  H   LIG     1     147.860 171.166 130.288  0.00  0.00     0.292 HD
ENDBRANCH   2  15
TORSDOF 5
ENDMDL
MODEL 5
REMARK VINA RESULT:      -5.7      3.576      5.082
REMARK  5 active torsions:
REMARK  status: ('A' for Active; 'I' for Inactive)
REMARK    1  A    between atoms: C_3  and  O_1 
REMARK    2  A    between atoms: C_4  and  O_14 
REMARK    3  A    between atoms: C_7  and  C_8 
REMARK    4  A    between atoms: C_9  and  C_10 
REMARK    5  A    between atoms: C_10  and  O_12 
ROOT
ATOM      1  C   LIG     1     149.661 171.812 131.973  0.00  0.00     0.162 A 
ATOM      2  C   LIG     1     149.231 172.863 132.783  0.00  0.00     0.158 A 
ATOM      3  C   LIG     1     150.147 173.546 133.583  0.00  0.00     0.050 A 
ATOM      4  C   LIG     1     151.493 173.178 133.574  0.00  0.00     0.012 A 
ATOM      5  C   LIG     1     151.922 172.127 132.765  0.00  0.00    -0.021 A 
ATOM      6  C   LIG     1     151.007 171.443 131.964  0.00  0.00     0.057 A 
ENDROOT
BRANCH   5   7
ATOM      7  C   LIG     1     153.325 171.744 132.754  0.00  0.00     0.015 C 
ATOM      8  C   LIG     1     154.037 171.352 133.834  0.00  0.00     0.092 C 
BRANCH   8   9
ATOM      9  C   LIG     1     155.457 170.978 133.689  0.00  0.00     0.330 C 
ATOM     10  O   LIG     1     156.337 171.653 133.179  0.00  0.00    -0.246 OA
BRANCH   9  11
ATOM     11  O   LIG     1     155.639 169.746 134.221  0.00  0.00    -0.478 OA
ATOM     12  H   LIG     1     155.111 169.063 133.753  0.00  0.00     0.295 HD
ENDBRANCH   9  11
ENDBRANCH   8   9
ENDBRANCH   5   7
BRANCH   1  13
ATOM     13  O   LIG     1     148.776 171.136 131.188  0.00  0.00    -0.491 OA
ATOM     14  C   LIG     1     149.247 169.948 130.555  0.00  0.00     0.277 C 
ENDBRANCH   1  13
BRANCH   2  15
ATOM     15  O   LIG     1     147.920 173.231 132.802  0.00  0.00    -0.503 OA
ATOM     16  H   LIG     1     147.611 173.349 131.887  0.00  0.00     0.292 HD
ENDBRANCH   2  15
TORSDOF 5
ENDMDL
MODEL 6
REMARK VINA RESULT:      -5.7      2.076      6.367
REMARK  5 active torsions:
REMARK  status: ('A' for Active; 'I' for Inactive)
REMARK    1  A    between atoms: C_3  and  O_1 
REMARK    2  A    between atoms: C_4  and  O_14 
REMARK    3  A    between atoms: C_7  and  C_8 
REMARK    4  A    between atoms: C_9  and  C_10 
REMARK    5  A    between atoms: C_10  and  O_12 
ROOT
ATOM      1  C   LIG     1     151.905 170.319 131.591  0.00  0.00     0.162 A 
ATOM      2  C   LIG     1     151.242 169.369 130.813  0.00  0.00     0.158 A 
ATOM      3  C   LIG     1     149.900 169.553 130.482  0.00  0.00     0.050 A 
ATOM      4  C   LIG     1     149.220 170.687 130.929  0.00  0.00     0.012 A 
ATOM      5  C   LIG     1     149.883 171.635 131.706  0.00  0.00    -0.021 A 
ATOM      6  C   LIG     1     151.225 171.452 132.038  0.00  0.00     0.057 A 
ENDROOT
BRANCH   5   7
ATOM      7  C   LIG     1     149.174 172.817 132.171  0.00  0.00     0.015 C 
ATOM      8  C   LIG     1     147.979 172.815 132.803  0.00  0.00     0.092 C 
BRANCH   8   9
ATOM      9  C   LIG     1     147.367 174.086 133.235  0.00  0.00     0.330 C 
ATOM     10  O   LIG     1     147.712 175.208 132.900  0.00  0.00    -0.246 OA
BRANCH   9  11
ATOM     11  O   LIG     1     146.343 173.812 134.076  0.00  0.00    -0.478 OA
ATOM     12  H   LIG     1     146.275 174.470 134.800  0.00  0.00     0.295 HD
ENDBRANCH   9  11
ENDBRANCH   8   9
ENDBRANCH   5   7
BRANCH   1  13
ATOM     13  O   LIG     1     153.216 170.150 131.922  0.00  0.00    -0.491 OA
ATOM     14  C   LIG     1     153.668 170.780 133.119  0.00  0.00     0.277 C 
ENDBRANCH   1  13
BRANCH   2  15
ATOM     15  O   LIG     1     151.895 168.258 130.372  0.00  0.00    -0.503 OA
ATOM     16  H   LIG     1     151.618 167.494 130.907  0.00  0.00     0.292 HD
ENDBRANCH   2  15
TORSDOF 5
ENDMDL
MODEL 7
REMARK VINA RESULT:      -5.6     19.741     21.385
REMARK  5 active torsions:
REMARK  status: ('A' for Active; 'I' for Inactive)
REMARK    1  A    between atoms: C_3  and  O_1 
REMARK    2  A    between atoms: C_4  and  O_14 
REMARK    3  A    between atoms: C_7  and  C_8 
REMARK    4  A    between atoms: C_9  and  C_10 
REMARK    5  A    between atoms: C_10  and  O_12 
ROOT
ATOM      1  C   LIG     1     162.800 157.561 132.365  0.00  0.00     0.162 A 
ATOM      2  C   LIG     1     162.546 156.643 131.345  0.00  0.00     0.158 A 
ATOM      3  C   LIG     1     161.678 155.575 131.570  0.00  0.00     0.050 A 
ATOM      4  C   LIG     1     161.064 155.424 132.814  0.00  0.00     0.012 A 
ATOM      5  C   LIG     1     161.318 156.342 133.832  0.00  0.00    -0.021 A 
ATOM      6  C   LIG     1     162.186 157.411 133.608  0.00  0.00     0.057 A 
ENDROOT
BRANCH   5   7
ATOM      7  C   LIG     1     160.677 156.185 135.128  0.00  0.00     0.015 C 
ATOM      8  C   LIG     1     160.510 157.168 136.042  0.00  0.00     0.092 C 
BRANCH   8   9
ATOM      9  C   LIG     1     159.832 156.882 137.321  0.00  0.00     0.330 C 
ATOM     10  O   LIG     1     158.852 157.456 137.766  0.00  0.00    -0.246 OA
BRANCH   9  11
ATOM     11  O   LIG     1     160.476 155.862 137.936  0.00  0.00    -0.478 OA
ATOM     12  H   LIG     1     161.416 155.805 137.663  0.00  0.00     0.295 HD
ENDBRANCH   9  11
ENDBRANCH   8   9
ENDBRANCH   5   7
BRANCH   1  13
ATOM     13  O   LIG     1     163.647 158.609 132.157  0.00  0.00    -0.491 OA
ATOM     14  C   LIG     1     163.053 159.879 131.894  0.00  0.00     0.277 C 
ENDBRANCH   1  13
BRANCH   2  15
ATOM     15  O   LIG     1     163.140 156.779 130.127  0.00  0.00    -0.503 OA
ATOM     16  H   LIG     1     162.847 156.054 129.549  0.00  0.00     0.292 HD
ENDBRANCH   2  15
TORSDOF 5
ENDMDL
MODEL 8
REMARK VINA RESULT:      -5.6      3.081      4.108
REMARK  5 active torsions:
REMARK  status: ('A' for Active; 'I' for Inactive)
REMARK    1  A    between atoms: C_3  and  O_1 
REMARK    2  A    between atoms: C_4  and  O_14 
REMARK    3  A    between atoms: C_7  and  C_8 
REMARK    4  A    between atoms: C_9  and  C_10 
REMARK    5  A    between atoms: C_10  and  O_12 
ROOT
ATOM      1  C   LIG     1     149.219 173.750 133.632  0.00  0.00     0.162 A 
ATOM      2  C   LIG     1     148.328 173.013 132.852  0.00  0.00     0.158 A 
ATOM      3  C   LIG     1     148.804 172.009 132.010  0.00  0.00     0.050 A 
ATOM      4  C   LIG     1     150.171 171.740 131.948  0.00  0.00     0.012 A 
ATOM      5  C   LIG     1     151.062 172.476 132.728  0.00  0.00    -0.021 A 
ATOM      6  C   LIG     1     150.587 173.481 133.570  0.00  0.00     0.057 A 
ENDROOT
BRANCH   5   7
ATOM      7  C   LIG     1     152.487 172.195 132.664  0.00  0.00     0.015 C 
ATOM      8  C   LIG     1     153.179 171.449 133.555  0.00  0.00     0.092 C 
BRANCH   8   9
ATOM      9  C   LIG     1     154.627 171.230 133.371  0.00  0.00     0.330 C 
ATOM     10  O   LIG     1     155.201 171.022 132.315  0.00  0.00    -0.246 OA
BRANCH   9  11
ATOM     11  O   LIG     1     155.232 171.298 134.580  0.00  0.00    -0.478 OA
ATOM     12  H   LIG     1     155.688 170.460 134.810  0.00  0.00     0.295 HD
ENDBRANCH   9  11
ENDBRANCH   8   9
ENDBRANCH   5   7
BRANCH   1  13
ATOM     13  O   LIG     1     148.766 174.735 134.458  0.00  0.00    -0.491 OA
ATOM     14  C   LIG     1     148.382 174.349 135.776  0.00  0.00     0.277 C 
ENDBRANCH   1  13
BRANCH   2  15
ATOM     15  O   LIG     1     146.990 173.267 132.903  0.00  0.00    -0.503 OA
ATOM     16  H   LIG     1     146.753 173.535 133.808  0.00  0.00     0.292 HD
ENDBRANCH   2  15
TORSDOF 5
ENDMDL
MODEL 9
REMARK VINA RESULT:      -5.6     20.816     23.827
REMARK  5 active torsions:
REMARK  status: ('A' for Active; 'I' for Inactive)
REMARK    1  A    between atoms: C_3  and  O_1 
REMARK    2  A    between atoms: C_4  and  O_14 
REMARK    3  A    between atoms: C_7  and  C_8 
REMARK    4  A    between atoms: C_9  and  C_10 
REMARK    5  A    between atoms: C_10  and  O_12 
ROOT
ATOM      1  C   LIG     1     146.931 149.021 128.797  0.00  0.00     0.162 A 
ATOM      2  C   LIG     1     146.690 148.598 127.489  0.00  0.00     0.158 A 
ATOM      3  C   LIG     1     145.764 149.277 126.697  0.00  0.00     0.050 A 
ATOM      4  C   LIG     1     145.079 150.378 127.213  0.00  0.00     0.012 A 
ATOM      5  C   LIG     1     145.320 150.799 128.519  0.00  0.00    -0.021 A 
ATOM      6  C   LIG     1     146.246 150.121 129.312  0.00  0.00     0.057 A 
ENDROOT
BRANCH   5   7
ATOM      7  C   LIG     1     144.607 151.947 129.056  0.00  0.00     0.015 C 
ATOM      8  C   LIG     1     143.448 151.894 129.750  0.00  0.00     0.092 C 
BRANCH   8   9
ATOM      9  C   LIG     1     142.827 153.135 130.252  0.00  0.00     0.330 C 
ATOM     10  O   LIG     1     141.633 153.384 130.292  0.00  0.00    -0.246 OA
BRANCH   9  11
ATOM     11  O   LIG     1     143.805 153.972 130.671  0.00  0.00    -0.478 OA
ATOM     12  H   LIG     1     144.051 153.810 131.606  0.00  0.00     0.295 HD
ENDBRANCH   9  11
ENDBRANCH   8   9
ENDBRANCH   5   7
BRANCH   1  13
ATOM     13  O   LIG     1     147.833 148.365 129.580  0.00  0.00    -0.491 OA
ATOM     14  C   LIG     1     147.948 148.797 130.934  0.00  0.00     0.277 C 
ENDBRANCH   1  13
BRANCH   2  15
ATOM     15  O   LIG     1     147.351 147.524 126.975  0.00  0.00    -0.503 OA
ATOM     16  H   LIG     1     146.705 146.834 126.745  0.00  0.00     0.292 HD
ENDBRANCH   2  15
TORSDOF 5
ENDMDL
MODEL 10
REMARK VINA RESULT:      -5.5     20.085     22.630
REMARK  5 active torsions:
REMARK  status: ('A' for Active; 'I' for Inactive)
REMARK    1  A    between atoms: C_3  and  O_1 
REMARK    2  A    between atoms: C_4  and  O_14 
REMARK    3  A    between atoms: C_7  and  C_8 
REMARK    4  A    between atoms: C_9  and  C_10 
REMARK    5  A    between atoms: C_10  and  O_12 
ROOT
ATOM      1  C   LIG     1     162.035 153.898 132.529  0.00  0.00     0.162 A 
ATOM      2  C   LIG     1     162.199 154.955 131.633  0.00  0.00     0.158 A 
ATOM      3  C   LIG     1     161.961 156.264 132.049  0.00  0.00     0.050 A 
ATOM      4  C   LIG     1     161.558 156.518 133.361  0.00  0.00     0.012 A 
ATOM      5  C   LIG     1     161.394 155.462 134.256  0.00  0.00    -0.021 A 
ATOM      6  C   LIG     1     161.632 154.152 133.841  0.00  0.00     0.057 A 
ENDROOT
BRANCH   5   7
ATOM      7  C   LIG     1     160.976 155.726 135.623  0.00  0.00     0.015 C 
ATOM      8  C   LIG     1     160.313 156.829 136.039  0.00  0.00     0.092 C 
BRANCH   8   9
ATOM      9  C   LIG     1     159.935 156.974 137.459  0.00  0.00     0.330 C 
ATOM     10  O   LIG     1     159.281 157.882 137.945  0.00  0.00    -0.246 OA
BRANCH   9  11
ATOM     11  O   LIG     1     160.433 155.923 138.150  0.00  0.00    -0.478 OA
ATOM     12  H   LIG     1     160.794 155.231 137.557  0.00  0.00     0.295 HD
ENDBRANCH   9  11
ENDBRANCH   8   9
ENDBRANCH   5   7
BRANCH   1  13
ATOM     13  O   LIG     1     162.263 152.614 132.134  0.00  0.00    -0.491 OA
ATOM     14  C   LIG     1     161.147 151.726 132.142  0.00  0.00     0.277 C 
ENDBRANCH   1  13
BRANCH   2  15
ATOM     15  O   LIG     1     162.590 154.720 130.350  0.00  0.00    -0.503 OA
ATOM     16  H   LIG     1     161.800 154.593 129.796  0.00  0.00     0.292 HD
ENDBRANCH   2  15
TORSDOF 5
ENDMDL
