MODEL 1
REMARK VINA RESULT:     -10.3      0.000      0.000
REMARK  16 active torsions:
REMARK  status: ('A' for Active; 'I' for Inactive)
REMARK    1  A    between atoms: O_2  and  C_22 
REMARK    2  A    between atoms: O_2  and  C_26 
REMARK    3  A    between atoms: O_4  and  C_18 
REMARK    4  A    between atoms: O_5  and  C_19 
REMARK    5  A    between atoms: O_6  and  C_25 
REMARK    6  A    between atoms: O_6  and  C_29 
REMARK    7  A    between atoms: O_7  and  C_20 
REMARK    8  A    between atoms: O_8  and  C_21 
REMARK    9  A    between atoms: O_9  and  C_23 
REMARK   10  A    between atoms: O_10  and  C_24 
REMARK   11  A    between atoms: O_13  and  C_35 
REMARK   12  A    between atoms: O_14  and  C_40 
REMARK   13  A    between atoms: O_15  and  C_41 
REMARK   14  A    between atoms: O_16  and  C_43 
REMARK   15  A    between atoms: C_17  and  C_26 
REMARK   16  A    between atoms: C_30  and  C_33 
ROOT
HETATM    1  O   UNK     0      58.909  18.945  28.363  0.00  0.00    -0.348 OA
HETATM    2  C   UNK     0      59.373  19.582  29.555  0.00  0.00     0.180 C 
HETATM    3  C   UNK     0      58.241  20.396  30.187  0.00  0.00     0.180 C 
HETATM    4  C   UNK     0      57.677  21.406  29.187  0.00  0.00     0.183 C 
HETATM    5  C   UNK     0      57.354  20.739  27.850  0.00  0.00     0.205 C 
HETATM    6  C   UNK     0      58.521  19.882  27.360  0.00  0.00     0.298 C 
ENDROOT
BRANCH   2   7
HETATM    7  C   UNK     0      59.875  18.488  30.494  0.00  0.00     0.205 C 
BRANCH   7   8
HETATM    8  O   UNK     0      61.119  18.888  31.047  0.00  0.00    -0.356 OA
BRANCH   8   9
HETATM    9  C   UNK     0      62.015  17.788  31.164  0.00  0.00     0.291 C 
HETATM   10  O   UNK     0      63.110  18.066  32.042  0.00  0.00    -0.351 OA
HETATM   11  C   UNK     0      63.976  19.111  31.586  0.00  0.00     0.152 C 
HETATM   12  C   UNK     0      64.582  18.768  30.219  0.00  0.00     0.178 C 
HETATM   13  C   UNK     0      65.049  19.300  32.656  0.00  0.00     0.042 C 
HETATM   14  C   UNK     0      63.473  18.443  29.218  0.00  0.00     0.183 C 
HETATM   15  C   UNK     0      62.522  17.385  29.780  0.00  0.00     0.204 C 
BRANCH  12  16
HETATM   16  O   UNK     0      65.324  19.876  29.714  0.00  0.00    -0.390 OA
HETATM   17  H   UNK     0      66.230  19.574  29.536  0.00  0.00     0.210 HD
ENDBRANCH  12  16
BRANCH  14  18
HETATM   18  O   UNK     0      64.057  17.975  28.004  0.00  0.00    -0.390 OA
HETATM   19  H   UNK     0      64.233  17.023  28.107  0.00  0.00     0.210 HD
ENDBRANCH  14  18
BRANCH  15  20
HETATM   20  O   UNK     0      63.204  16.137  29.913  0.00  0.00    -0.388 OA
HETATM   21  H   UNK     0      62.965  15.746  30.771  0.00  0.00     0.210 HD
ENDBRANCH  15  20
ENDBRANCH   8   9
ENDBRANCH   7   8
ENDBRANCH   2   7
BRANCH   6  22
HETATM   22  O   UNK     0      58.094  19.185  26.190  0.00  0.00    -0.311 OA
BRANCH  22  23
HETATM   23  C   UNK     0      59.121  18.458  25.630  0.00  0.00     0.157 A 
HETATM   24  C   UNK     0      59.296  17.143  25.849  0.00  0.00     0.124 A 
HETATM   25  O   UNK     0      60.336  16.389  25.327  0.00  0.00    -0.306 OA
HETATM   26  C   UNK     0      61.248  17.010  24.512  0.00  0.00     0.096 A 
HETATM   27  C   UNK     0      61.179  18.365  24.197  0.00  0.00     0.084 A 
HETATM   28  C   UNK     0      62.278  16.224  23.994  0.00  0.00     0.075 A 
HETATM   29  C   UNK     0      60.085  19.172  24.758  0.00  0.00     0.223 A 
HETATM   30  C   UNK     0      62.139  18.945  23.362  0.00  0.00     0.085 A 
HETATM   31  O   UNK     0      59.977  20.368  24.521  0.00  0.00    -0.284 OA
HETATM   32  C   UNK     0      63.168  18.156  22.845  0.00  0.00     0.074 A 
HETATM   33  C   UNK     0      63.237  16.799  23.160  0.00  0.00     0.071 A 
BRANCH  24  34
HETATM   34  C   UNK     0      58.391  16.355  26.705  0.00  0.00     0.004 A 
HETATM   35  C   UNK     0      58.717  16.128  28.042  0.00  0.00     0.053 A 
HETATM   36  C   UNK     0      57.860  15.384  28.853  0.00  0.00     0.099 A 
HETATM   37  C   UNK     0      56.677  14.866  28.327  0.00  0.00     0.098 A 
HETATM   38  C   UNK     0      56.350  15.093  26.990  0.00  0.00     0.040 A 
HETATM   39  C   UNK     0      57.207  15.838  26.180  0.00  0.00     0.017 A 
BRANCH  36  40
HETATM   40  O   UNK     0      58.191  15.167  30.157  0.00  0.00    -0.358 OA
HETATM   41  H   UNK     0      58.679  14.332  30.236  0.00  0.00     0.217 HD
ENDBRANCH  36  40
BRANCH  37  42
HETATM   42  O   UNK     0      55.832  14.139  29.110  0.00  0.00    -0.358 OA
HETATM   43  H   UNK     0      54.946  14.533  29.089  0.00  0.00     0.217 HD
ENDBRANCH  37  42
ENDBRANCH  24  34
BRANCH  30  44
HETATM   44  O   UNK     0      62.118  20.263  23.023  0.00  0.00    -0.360 OA
HETATM   45  H   UNK     0      62.954  20.500  22.587  0.00  0.00     0.217 HD
ENDBRANCH  30  44
BRANCH  33  46
HETATM   46  O   UNK     0      64.242  16.033  22.654  0.00  0.00    -0.361 OA
HETATM   47  H   UNK     0      64.061  15.854  21.715  0.00  0.00     0.217 HD
ENDBRANCH  33  46
ENDBRANCH  22  23
ENDBRANCH   6  22
BRANCH   3  48
HETATM   48  O   UNK     0      58.740  21.091  31.327  0.00  0.00    -0.390 OA
HETATM   49  H   UNK     0      58.310  21.962  31.360  0.00  0.00     0.210 HD
ENDBRANCH   3  48
BRANCH   5  50
HETATM   50  O   UNK     0      57.094  21.744  26.870  0.00  0.00    -0.388 OA
HETATM   51  H   UNK     0      57.422  22.592  27.214  0.00  0.00     0.210 HD
ENDBRANCH   5  50
BRANCH   4  52
HETATM   52  O   UNK     0      56.482  21.957  29.744  0.00  0.00    -0.390 OA
HETATM   53  H   UNK     0      56.721  22.795  30.175  0.00  0.00     0.210 HD
ENDBRANCH   4  52
TORSDOF 16
ENDMDL
MODEL 2
REMARK VINA RESULT:     -10.1     18.726     22.330
REMARK  16 active torsions:
REMARK  status: ('A' for Active; 'I' for Inactive)
REMARK    1  A    between atoms: O_2  and  C_22 
REMARK    2  A    between atoms: O_2  and  C_26 
REMARK    3  A    between atoms: O_4  and  C_18 
REMARK    4  A    between atoms: O_5  and  C_19 
REMARK    5  A    between atoms: O_6  and  C_25 
REMARK    6  A    between atoms: O_6  and  C_29 
REMARK    7  A    between atoms: O_7  and  C_20 
REMARK    8  A    between atoms: O_8  and  C_21 
REMARK    9  A    between atoms: O_9  and  C_23 
REMARK   10  A    between atoms: O_10  and  C_24 
REMARK   11  A    between atoms: O_13  and  C_35 
REMARK   12  A    between atoms: O_14  and  C_40 
REMARK   13  A    between atoms: O_15  and  C_41 
REMARK   14  A    between atoms: O_16  and  C_43 
REMARK   15  A    between atoms: C_17  and  C_26 
REMARK   16  A    between atoms: C_30  and  C_33 
ROOT
HETATM    1  O   UNK     0      72.194  35.081  30.254  0.00  0.00    -0.348 OA
HETATM    2  C   UNK     0      71.913  34.356  29.055  0.00  0.00     0.180 C 
HETATM    3  C   UNK     0      70.668  34.932  28.376  0.00  0.00     0.180 C 
HETATM    4  C   UNK     0      69.477  34.928  29.334  0.00  0.00     0.183 C 
HETATM    5  C   UNK     0      69.848  35.545  30.682  0.00  0.00     0.205 C 
HETATM    6  C   UNK     0      71.153  34.960  31.222  0.00  0.00     0.298 C 
ENDROOT
BRANCH   2   7
HETATM    7  C   UNK     0      73.144  34.458  28.159  0.00  0.00     0.205 C 
BRANCH   7   8
HETATM    8  O   UNK     0      73.443  33.172  27.637  0.00  0.00    -0.356 OA
BRANCH   8   9
HETATM    9  C   UNK     0      74.848  32.953  27.565  0.00  0.00     0.291 C 
HETATM   10  O   UNK     0      75.177  31.737  26.887  0.00  0.00    -0.351 OA
HETATM   11  C   UNK     0      74.722  30.553  27.550  0.00  0.00     0.152 C 
HETATM   12  C   UNK     0      75.319  30.447  28.960  0.00  0.00     0.178 C 
HETATM   13  C   UNK     0      75.118  29.369  26.671  0.00  0.00     0.042 C 
HETATM   14  C   UNK     0      75.022  31.720  29.754  0.00  0.00     0.183 C 
HETATM   15  C   UNK     0      75.445  32.965  28.972  0.00  0.00     0.204 C 
BRANCH  12  16
HETATM   16  O   UNK     0      74.745  29.344  29.658  0.00  0.00    -0.390 OA
HETATM   17  H   UNK     0      74.475  28.682  28.999  0.00  0.00     0.210 HD
ENDBRANCH  12  16
BRANCH  14  18
HETATM   18  O   UNK     0      75.715  31.669  30.999  0.00  0.00    -0.390 OA
HETATM   19  H   UNK     0      75.060  31.791  31.708  0.00  0.00     0.210 HD
ENDBRANCH  14  18
BRANCH  15  20
HETATM   20  O   UNK     0      76.867  32.997  28.841  0.00  0.00    -0.388 OA
HETATM   21  H   UNK     0      77.244  32.310  29.417  0.00  0.00     0.210 HD
ENDBRANCH  15  20
ENDBRANCH   8   9
ENDBRANCH   7   8
ENDBRANCH   2   7
BRANCH   6  22
HETATM   22  O   UNK     0      71.506  35.683  32.401  0.00  0.00    -0.311 OA
BRANCH  22  23
HETATM   23  C   UNK     0      72.691  35.230  32.938  0.00  0.00     0.157 A 
HETATM   24  C   UNK     0      73.837  35.932  32.885  0.00  0.00     0.124 A 
HETATM   25  O   UNK     0      75.053  35.492  33.386  0.00  0.00    -0.306 OA
HETATM   26  C   UNK     0      75.102  34.266  33.999  0.00  0.00     0.096 A 
HETATM   27  C   UNK     0      73.987  33.442  34.129  0.00  0.00     0.084 A 
HETATM   28  C   UNK     0      76.337  33.855  34.502  0.00  0.00     0.075 A 
HETATM   29  C   UNK     0      72.697  33.897  33.588  0.00  0.00     0.223 A 
HETATM   30  C   UNK     0      74.097  32.201  34.763  0.00  0.00     0.085 A 
HETATM   31  O   UNK     0      71.685  33.214  33.668  0.00  0.00    -0.284 OA
HETATM   32  C   UNK     0      75.333  31.792  35.266  0.00  0.00     0.074 A 
HETATM   33  C   UNK     0      76.451  32.618  35.136  0.00  0.00     0.071 A 
BRANCH  24  34
HETATM   34  C   UNK     0      73.924  37.260  32.253  0.00  0.00     0.004 A 
HETATM   35  C   UNK     0      74.552  37.405  31.016  0.00  0.00     0.053 A 
HETATM   36  C   UNK     0      74.633  38.662  30.417  0.00  0.00     0.099 A 
HETATM   37  C   UNK     0      74.087  39.775  31.055  0.00  0.00     0.098 A 
HETATM   38  C   UNK     0      73.460  39.631  32.293  0.00  0.00     0.040 A 
HETATM   39  C   UNK     0      73.378  38.374  32.891  0.00  0.00     0.017 A 
BRANCH  36  40
HETATM   40  O   UNK     0      75.251  38.790  29.209  0.00  0.00    -0.358 OA
HETATM   41  H   UNK     0      75.905  39.507  29.251  0.00  0.00     0.217 HD
ENDBRANCH  36  40
BRANCH  37  42
HETATM   42  O   UNK     0      74.160  41.007  30.480  0.00  0.00    -0.358 OA
HETATM   43  H   UNK     0      73.500  41.595  30.881  0.00  0.00     0.217 HD
ENDBRANCH  37  42
ENDBRANCH  24  34
BRANCH  30  44
HETATM   44  O   UNK     0      73.039  31.357  34.916  0.00  0.00    -0.360 OA
HETATM   45  H   UNK     0      73.247  30.498  34.510  0.00  0.00     0.217 HD
ENDBRANCH  30  44
BRANCH  33  46
HETATM   46  O   UNK     0      77.654  32.215  35.627  0.00  0.00    -0.361 OA
HETATM   47  H   UNK     0      77.799  32.635  36.493  0.00  0.00     0.217 HD
ENDBRANCH  33  46
ENDBRANCH  22  23
ENDBRANCH   6  22
BRANCH   3  48
HETATM   48  O   UNK     0      70.352  34.148  27.229  0.00  0.00    -0.390 OA
HETATM   49  H   UNK     0      71.117  34.171  26.629  0.00  0.00     0.210 HD
ENDBRANCH   3  48
BRANCH   5  50
HETATM   50  O   UNK     0      68.813  35.278  31.628  0.00  0.00    -0.388 OA
HETATM   51  H   UNK     0      69.177  34.699  32.318  0.00  0.00     0.210 HD
ENDBRANCH   5  50
BRANCH   4  52
HETATM   52  O   UNK     0      68.426  35.689  28.736  0.00  0.00    -0.390 OA
HETATM   53  H   UNK     0      68.424  35.484  27.785  0.00  0.00     0.210 HD
ENDBRANCH   4  52
TORSDOF 16
ENDMDL
MODEL 3
REMARK VINA RESULT:      -9.9      2.027      5.900
REMARK  16 active torsions:
REMARK  status: ('A' for Active; 'I' for Inactive)
REMARK    1  A    between atoms: O_2  and  C_22 
REMARK    2  A    between atoms: O_2  and  C_26 
REMARK    3  A    between atoms: O_4  and  C_18 
REMARK    4  A    between atoms: O_5  and  C_19 
REMARK    5  A    between atoms: O_6  and  C_25 
REMARK    6  A    between atoms: O_6  and  C_29 
REMARK    7  A    between atoms: O_7  and  C_20 
REMARK    8  A    between atoms: O_8  and  C_21 
REMARK    9  A    between atoms: O_9  and  C_23 
REMARK   10  A    between atoms: O_10  and  C_24 
REMARK   11  A    between atoms: O_13  and  C_35 
REMARK   12  A    between atoms: O_14  and  C_40 
REMARK   13  A    between atoms: O_15  and  C_41 
REMARK   14  A    between atoms: O_16  and  C_43 
REMARK   15  A    between atoms: C_17  and  C_26 
REMARK   16  A    between atoms: C_30  and  C_33 
ROOT
HETATM    1  O   UNK     0      62.071  18.145  27.749  0.00  0.00    -0.348 OA
HETATM    2  C   UNK     0      61.931  17.321  28.908  0.00  0.00     0.180 C 
HETATM    3  C   UNK     0      62.893  17.790  30.002  0.00  0.00     0.180 C 
HETATM    4  C   UNK     0      64.332  17.806  29.488  0.00  0.00     0.183 C 
HETATM    5  C   UNK     0      64.435  18.538  28.150  0.00  0.00     0.205 C 
HETATM    6  C   UNK     0      63.370  18.051  27.167  0.00  0.00     0.298 C 
ENDROOT
BRANCH   2   7
HETATM    7  C   UNK     0      60.476  17.409  29.359  0.00  0.00     0.205 C 
BRANCH   7   8
HETATM    8  O   UNK     0      59.802  16.218  28.980  0.00  0.00    -0.356 OA
BRANCH   8   9
HETATM    9  C   UNK     0      58.776  15.882  29.909  0.00  0.00     0.291 C 
HETATM   10  O   UNK     0      57.830  14.957  29.366  0.00  0.00    -0.351 OA
HETATM   11  C   UNK     0      57.078  15.468  28.261  0.00  0.00     0.152 C 
HETATM   12  C   UNK     0      56.289  16.722  28.663  0.00  0.00     0.178 C 
HETATM   13  C   UNK     0      56.160  14.343  27.787  0.00  0.00     0.042 C 
HETATM   14  C   UNK     0      57.231  17.763  29.268  0.00  0.00     0.183 C 
HETATM   15  C   UNK     0      58.076  17.153  30.387  0.00  0.00     0.204 C 
BRANCH  12  16
HETATM   16  O   UNK     0      55.664  17.300  27.519  0.00  0.00    -0.390 OA
HETATM   17  H   UNK     0      55.585  18.256  27.674  0.00  0.00     0.210 HD
ENDBRANCH  12  16
BRANCH  14  18
HETATM   18  O   UNK     0      56.462  18.851  29.777  0.00  0.00    -0.390 OA
HETATM   19  H   UNK     0      56.914  19.676  29.528  0.00  0.00     0.210 HD
ENDBRANCH  14  18
BRANCH  15  20
HETATM   20  O   UNK     0      57.241  16.801  31.491  0.00  0.00    -0.388 OA
HETATM   21  H   UNK     0      57.408  17.429  32.215  0.00  0.00     0.210 HD
ENDBRANCH  15  20
ENDBRANCH   8   9
ENDBRANCH   7   8
ENDBRANCH   2   7
BRANCH   6  22
HETATM   22  O   UNK     0      63.436  18.874  26.003  0.00  0.00    -0.311 OA
BRANCH  22  23
HETATM   23  C   UNK     0      63.375  18.126  24.848  0.00  0.00     0.157 A 
HETATM   24  C   UNK     0      62.217  17.788  24.252  0.00  0.00     0.124 A 
HETATM   25  O   UNK     0      62.118  17.010  23.109  0.00  0.00    -0.306 OA
HETATM   26  C   UNK     0      63.273  16.561  22.522  0.00  0.00     0.096 A 
HETATM   27  C   UNK     0      64.538  16.845  23.031  0.00  0.00     0.084 A 
HETATM   28  C   UNK     0      63.142  15.789  21.367  0.00  0.00     0.075 A 
HETATM   29  C   UNK     0      64.649  17.659  24.251  0.00  0.00     0.223 A 
HETATM   30  C   UNK     0      65.682  16.359  22.390  0.00  0.00     0.085 A 
HETATM   31  O   UNK     0      65.733  17.936  24.746  0.00  0.00    -0.284 OA
HETATM   32  C   UNK     0      65.548  15.587  21.235  0.00  0.00     0.074 A 
HETATM   33  C   UNK     0      64.281  15.303  20.725  0.00  0.00     0.071 A 
BRANCH  24  34
HETATM   34  C   UNK     0      60.905  18.202  24.780  0.00  0.00     0.004 A 
HETATM   35  C   UNK     0      60.472  19.519  24.621  0.00  0.00     0.053 A 
HETATM   36  C   UNK     0      59.230  19.911  25.118  0.00  0.00     0.099 A 
HETATM   37  C   UNK     0      58.419  18.986  25.776  0.00  0.00     0.098 A 
HETATM   38  C   UNK     0      58.851  17.669  25.936  0.00  0.00     0.040 A 
HETATM   39  C   UNK     0      60.093  17.278  25.437  0.00  0.00     0.017 A 
BRANCH  36  40
HETATM   40  O   UNK     0      58.819  21.201  24.959  0.00  0.00    -0.358 OA
HETATM   41  H   UNK     0      58.585  21.356  24.029  0.00  0.00     0.217 HD
ENDBRANCH  36  40
BRANCH  37  42
HETATM   42  O   UNK     0      57.203  19.357  26.266  0.00  0.00    -0.358 OA
HETATM   43  H   UNK     0      56.718  18.572  26.566  0.00  0.00     0.217 HD
ENDBRANCH  37  42
ENDBRANCH  24  34
BRANCH  30  44
HETATM   44  O   UNK     0      66.940  16.607  22.846  0.00  0.00    -0.360 OA
HETATM   45  H   UNK     0      66.942  17.429  23.366  0.00  0.00     0.217 HD
ENDBRANCH  30  44
BRANCH  33  46
HETATM   46  O   UNK     0      64.155  14.549  19.599  0.00  0.00    -0.361 OA
HETATM   47  H   UNK     0      63.756  15.092  18.898  0.00  0.00     0.217 HD
ENDBRANCH  33  46
ENDBRANCH  22  23
ENDBRANCH   6  22
BRANCH   3  48
HETATM   48  O   UNK     0      62.801  16.910  31.119  0.00  0.00    -0.390 OA
HETATM   49  H   UNK     0      63.525  16.265  31.054  0.00  0.00     0.210 HD
ENDBRANCH   3  48
BRANCH   5  50
HETATM   50  O   UNK     0      65.719  18.297  27.574  0.00  0.00    -0.388 OA
HETATM   51  H   UNK     0      66.363  18.869  28.025  0.00  0.00     0.210 HD
ENDBRANCH   5  50
BRANCH   4  52
HETATM   52  O   UNK     0      65.140  18.474  30.459  0.00  0.00    -0.390 OA
HETATM   53  H   UNK     0      64.766  19.362  30.588  0.00  0.00     0.210 HD
ENDBRANCH   4  52
TORSDOF 16
ENDMDL
MODEL 4
REMARK VINA RESULT:      -9.9      1.997      6.739
REMARK  16 active torsions:
REMARK  status: ('A' for Active; 'I' for Inactive)
REMARK    1  A    between atoms: O_2  and  C_22 
REMARK    2  A    between atoms: O_2  and  C_26 
REMARK    3  A    between atoms: O_4  and  C_18 
REMARK    4  A    between atoms: O_5  and  C_19 
REMARK    5  A    between atoms: O_6  and  C_25 
REMARK    6  A    between atoms: O_6  and  C_29 
REMARK    7  A    between atoms: O_7  and  C_20 
REMARK    8  A    between atoms: O_8  and  C_21 
REMARK    9  A    between atoms: O_9  and  C_23 
REMARK   10  A    between atoms: O_10  and  C_24 
REMARK   11  A    between atoms: O_13  and  C_35 
REMARK   12  A    between atoms: O_14  and  C_40 
REMARK   13  A    between atoms: O_15  and  C_41 
REMARK   14  A    between atoms: O_16  and  C_43 
REMARK   15  A    between atoms: C_17  and  C_26 
REMARK   16  A    between atoms: C_30  and  C_33 
ROOT
HETATM    1  O   UNK     0      60.035  18.312  26.323  0.00  0.00    -0.348 OA
HETATM    2  C   UNK     0      60.472  18.467  24.971  0.00  0.00     0.180 C 
HETATM    3  C   UNK     0      61.299  19.747  24.833  0.00  0.00     0.180 C 
HETATM    4  C   UNK     0      60.504  20.961  25.315  0.00  0.00     0.183 C 
HETATM    5  C   UNK     0      59.889  20.709  26.691  0.00  0.00     0.205 C 
HETATM    6  C   UNK     0      59.166  19.363  26.739  0.00  0.00     0.298 C 
ENDROOT
BRANCH   2   7
HETATM    7  C   UNK     0      61.284  17.227  24.607  0.00  0.00     0.205 C 
BRANCH   7   8
HETATM    8  O   UNK     0      62.665  17.550  24.652  0.00  0.00    -0.356 OA
BRANCH   8   9
HETATM    9  C   UNK     0      63.453  16.557  24.003  0.00  0.00     0.291 C 
HETATM   10  O   UNK     0      64.842  16.900  23.969  0.00  0.00    -0.351 OA
HETATM   11  C   UNK     0      65.139  18.070  23.200  0.00  0.00     0.152 C 
HETATM   12  C   UNK     0      64.690  17.900  21.742  0.00  0.00     0.178 C 
HETATM   13  C   UNK     0      66.643  18.307  23.310  0.00  0.00     0.042 C 
HETATM   14  C   UNK     0      63.210  17.519  21.689  0.00  0.00     0.183 C 
HETATM   15  C   UNK     0      62.921  16.318  22.591  0.00  0.00     0.204 C 
BRANCH  12  16
HETATM   16  O   UNK     0      64.859  19.123  21.028  0.00  0.00    -0.390 OA
HETATM   17  H   UNK     0      65.736  19.479  21.249  0.00  0.00     0.210 HD
ENDBRANCH  12  16
BRANCH  14  18
HETATM   18  O   UNK     0      62.852  17.213  20.343  0.00  0.00    -0.390 OA
HETATM   19  H   UNK     0      61.955  16.837  20.353  0.00  0.00     0.210 HD
ENDBRANCH  14  18
BRANCH  15  20
HETATM   20  O   UNK     0      63.567  15.154  22.074  0.00  0.00    -0.388 OA
HETATM   21  H   UNK     0      62.902  14.452  21.975  0.00  0.00     0.210 HD
ENDBRANCH  15  20
ENDBRANCH   8   9
ENDBRANCH   7   8
ENDBRANCH   2   7
BRANCH   6  22
HETATM   22  O   UNK     0      58.746  19.137  28.084  0.00  0.00    -0.311 OA
BRANCH  22  23
HETATM   23  C   UNK     0      58.307  17.845  28.268  0.00  0.00     0.157 A 
HETATM   24  C   UNK     0      58.928  16.964  29.072  0.00  0.00     0.124 A 
HETATM   25  O   UNK     0      58.531  15.648  29.254  0.00  0.00    -0.306 OA
HETATM   26  C   UNK     0      57.417  15.204  28.590  0.00  0.00     0.096 A 
HETATM   27  C   UNK     0      56.676  16.014  27.733  0.00  0.00     0.084 A 
HETATM   28  C   UNK     0      57.037  13.878  28.800  0.00  0.00     0.075 A 
HETATM   29  C   UNK     0      57.100  17.407  27.526  0.00  0.00     0.223 A 
HETATM   30  C   UNK     0      55.549  15.506  27.080  0.00  0.00     0.085 A 
HETATM   31  O   UNK     0      56.491  18.163  26.781  0.00  0.00    -0.284 OA
HETATM   32  C   UNK     0      55.170  14.179  27.293  0.00  0.00     0.074 A 
HETATM   33  C   UNK     0      55.912  13.367  28.151  0.00  0.00     0.071 A 
BRANCH  24  34
HETATM   34  C   UNK     0      60.136  17.310  29.842  0.00  0.00     0.004 A 
HETATM   35  C   UNK     0      60.021  18.005  31.047  0.00  0.00     0.053 A 
HETATM   36  C   UNK     0      61.164  18.331  31.776  0.00  0.00     0.099 A 
HETATM   37  C   UNK     0      62.423  17.964  31.301  0.00  0.00     0.098 A 
HETATM   38  C   UNK     0      62.539  17.271  30.096  0.00  0.00     0.040 A 
HETATM   39  C   UNK     0      61.396  16.944  29.368  0.00  0.00     0.017 A 
BRANCH  36  40
HETATM   40  O   UNK     0      61.039  19.011  32.951  0.00  0.00    -0.358 OA
HETATM   41  H   UNK     0      60.230  18.727  33.408  0.00  0.00     0.217 HD
ENDBRANCH  36  40
BRANCH  37  42
HETATM   42  O   UNK     0      63.547  18.277  32.005  0.00  0.00    -0.358 OA
HETATM   43  H   UNK     0      63.499  19.198  32.306  0.00  0.00     0.217 HD
ENDBRANCH  37  42
ENDBRANCH  24  34
BRANCH  30  44
HETATM   44  O   UNK     0      54.791  16.254  26.233  0.00  0.00    -0.360 OA
HETATM   45  H   UNK     0      54.216  16.847  26.749  0.00  0.00     0.217 HD
ENDBRANCH  30  44
BRANCH  33  46
HETATM   46  O   UNK     0      55.540  12.074  28.356  0.00  0.00    -0.361 OA
HETATM   47  H   UNK     0      55.850  11.534  27.609  0.00  0.00     0.217 HD
ENDBRANCH  33  46
ENDBRANCH  22  23
ENDBRANCH   6  22
BRANCH   3  48
HETATM   48  O   UNK     0      61.657  19.931  23.466  0.00  0.00    -0.390 OA
HETATM   49  H   UNK     0      62.626  19.903  23.402  0.00  0.00     0.210 HD
ENDBRANCH   3  48
BRANCH   5  50
HETATM   50  O   UNK     0      58.943  21.737  26.983  0.00  0.00    -0.388 OA
HETATM   51  H   UNK     0      58.579  21.569  27.868  0.00  0.00     0.210 HD
ENDBRANCH   5  50
BRANCH   4  52
HETATM   52  O   UNK     0      61.399  22.073  25.389  0.00  0.00    -0.390 OA
HETATM   53  H   UNK     0      60.955  22.769  25.902  0.00  0.00     0.210 HD
ENDBRANCH   4  52
TORSDOF 16
ENDMDL
MODEL 5
REMARK VINA RESULT:      -9.8      2.105      6.851
REMARK  16 active torsions:
REMARK  status: ('A' for Active; 'I' for Inactive)
REMARK    1  A    between atoms: O_2  and  C_22 
REMARK    2  A    between atoms: O_2  and  C_26 
REMARK    3  A    between atoms: O_4  and  C_18 
REMARK    4  A    between atoms: O_5  and  C_19 
REMARK    5  A    between atoms: O_6  and  C_25 
REMARK    6  A    between atoms: O_6  and  C_29 
REMARK    7  A    between atoms: O_7  and  C_20 
REMARK    8  A    between atoms: O_8  and  C_21 
REMARK    9  A    between atoms: O_9  and  C_23 
REMARK   10  A    between atoms: O_10  and  C_24 
REMARK   11  A    between atoms: O_13  and  C_35 
REMARK   12  A    between atoms: O_14  and  C_40 
REMARK   13  A    between atoms: O_15  and  C_41 
REMARK   14  A    between atoms: O_16  and  C_43 
REMARK   15  A    between atoms: C_17  and  C_26 
REMARK   16  A    between atoms: C_30  and  C_33 
ROOT
HETATM    1  O   UNK     0      62.259  19.263  27.994  0.00  0.00    -0.348 OA
HETATM    2  C   UNK     0      62.470  20.292  28.963  0.00  0.00     0.180 C 
HETATM    3  C   UNK     0      63.812  20.078  29.667  0.00  0.00     0.180 C 
HETATM    4  C   UNK     0      63.880  18.685  30.294  0.00  0.00     0.183 C 
HETATM    5  C   UNK     0      63.474  17.606  29.291  0.00  0.00     0.205 C 
HETATM    6  C   UNK     0      62.168  17.968  28.584  0.00  0.00     0.298 C 
ENDROOT
BRANCH   2   7
HETATM    7  C   UNK     0      62.423  21.629  28.230  0.00  0.00     0.205 C 
BRANCH   7   8
HETATM    8  O   UNK     0      61.685  22.558  29.010  0.00  0.00    -0.356 OA
BRANCH   8   9
HETATM    9  C   UNK     0      60.396  22.797  28.453  0.00  0.00     0.291 C 
HETATM   10  O   UNK     0      59.937  24.131  28.693  0.00  0.00    -0.351 OA
HETATM   11  C   UNK     0      59.730  24.440  30.075  0.00  0.00     0.152 C 
HETATM   12  C   UNK     0      58.693  23.498  30.702  0.00  0.00     0.178 C 
HETATM   13  C   UNK     0      59.289  25.901  30.144  0.00  0.00     0.042 C 
HETATM   14  C   UNK     0      59.104  22.042  30.479  0.00  0.00     0.183 C 
HETATM   15  C   UNK     0      59.400  21.776  29.001  0.00  0.00     0.204 C 
BRANCH  12  16
HETATM   16  O   UNK     0      58.606  23.723  32.107  0.00  0.00    -0.390 OA
HETATM   17  H   UNK     0      58.666  22.861  32.552  0.00  0.00     0.210 HD
ENDBRANCH  12  16
BRANCH  14  18
HETATM   18  O   UNK     0      58.057  21.184  30.926  0.00  0.00    -0.390 OA
HETATM   19  H   UNK     0      58.463  20.356  31.235  0.00  0.00     0.210 HD
ENDBRANCH  14  18
BRANCH  15  20
HETATM   20  O   UNK     0      58.198  21.888  28.237  0.00  0.00    -0.388 OA
HETATM   21  H   UNK     0      57.447  21.659  28.810  0.00  0.00     0.210 HD
ENDBRANCH  15  20
ENDBRANCH   8   9
ENDBRANCH   7   8
ENDBRANCH   2   7
BRANCH   6  22
HETATM   22  O   UNK     0      61.932  16.992  27.569  0.00  0.00    -0.311 OA
BRANCH  22  23
HETATM   23  C   UNK     0      60.592  16.888  27.268  0.00  0.00     0.157 A 
HETATM   24  C   UNK     0      60.100  17.073  26.030  0.00  0.00     0.124 A 
HETATM   25  O   UNK     0      58.755  17.008  25.699  0.00  0.00    -0.306 OA
HETATM   26  C   UNK     0      57.853  16.714  26.688  0.00  0.00     0.096 A 
HETATM   27  C   UNK     0      58.228  16.491  28.011  0.00  0.00     0.084 A 
HETATM   28  C   UNK     0      56.508  16.645  26.323  0.00  0.00     0.075 A 
HETATM   29  C   UNK     0      59.652  16.572  28.371  0.00  0.00     0.223 A 
HETATM   30  C   UNK     0      57.263  16.197  28.978  0.00  0.00     0.085 A 
HETATM   31  O   UNK     0      60.040  16.391  29.517  0.00  0.00    -0.284 OA
HETATM   32  C   UNK     0      55.918  16.128  28.610  0.00  0.00     0.074 A 
HETATM   33  C   UNK     0      55.542  16.351  27.285  0.00  0.00     0.071 A 
BRANCH  24  34
HETATM   34  C   UNK     0      60.960  17.396  24.877  0.00  0.00     0.004 A 
HETATM   35  C   UNK     0      61.094  18.720  24.455  0.00  0.00     0.053 A 
HETATM   36  C   UNK     0      61.908  19.026  23.365  0.00  0.00     0.099 A 
HETATM   37  C   UNK     0      62.588  18.009  22.695  0.00  0.00     0.098 A 
HETATM   38  C   UNK     0      62.453  16.686  23.116  0.00  0.00     0.040 A 
HETATM   39  C   UNK     0      61.640  16.380  24.206  0.00  0.00     0.017 A 
BRANCH  36  40
HETATM   40  O   UNK     0      62.030  20.322  22.962  0.00  0.00    -0.358 OA
HETATM   41  H   UNK     0      62.732  20.758  23.472  0.00  0.00     0.217 HD
ENDBRANCH  36  40
BRANCH  37  42
HETATM   42  O   UNK     0      63.386  18.296  21.630  0.00  0.00    -0.358 OA
HETATM   43  H   UNK     0      63.197  17.681  20.904  0.00  0.00     0.217 HD
ENDBRANCH  37  42
ENDBRANCH  24  34
BRANCH  30  44
HETATM   44  O   UNK     0      57.576  15.971  30.284  0.00  0.00    -0.360 OA
HETATM   45  H   UNK     0      57.878  16.800  30.694  0.00  0.00     0.217 HD
ENDBRANCH  30  44
BRANCH  33  46
HETATM   46  O   UNK     0      54.229  16.284  26.931  0.00  0.00    -0.361 OA
HETATM   47  H   UNK     0      53.973  17.121  26.507  0.00  0.00     0.217 HD
ENDBRANCH  33  46
ENDBRANCH  22  23
ENDBRANCH   6  22
BRANCH   3  48
HETATM   48  O   UNK     0      63.971  21.061  30.687  0.00  0.00    -0.390 OA
HETATM   49  H   UNK     0      64.765  20.837  31.200  0.00  0.00     0.210 HD
ENDBRANCH   3  48
BRANCH   5  50
HETATM   50  O   UNK     0      63.285  16.369  29.976  0.00  0.00    -0.388 OA
HETATM   51  H   UNK     0      63.430  16.524  30.924  0.00  0.00     0.210 HD
ENDBRANCH   5  50
BRANCH   4  52
HETATM   52  O   UNK     0      65.226  18.458  30.719  0.00  0.00    -0.390 OA
HETATM   53  H   UNK     0      65.619  17.812  30.107  0.00  0.00     0.210 HD
ENDBRANCH   4  52
TORSDOF 16
ENDMDL
MODEL 6
REMARK VINA RESULT:      -9.7     16.931     21.612
REMARK  16 active torsions:
REMARK  status: ('A' for Active; 'I' for Inactive)
REMARK    1  A    between atoms: O_2  and  C_22 
REMARK    2  A    between atoms: O_2  and  C_26 
REMARK    3  A    between atoms: O_4  and  C_18 
REMARK    4  A    between atoms: O_5  and  C_19 
REMARK    5  A    between atoms: O_6  and  C_25 
REMARK    6  A    between atoms: O_6  and  C_29 
REMARK    7  A    between atoms: O_7  and  C_20 
REMARK    8  A    between atoms: O_8  and  C_21 
REMARK    9  A    between atoms: O_9  and  C_23 
REMARK   10  A    between atoms: O_10  and  C_24 
REMARK   11  A    between atoms: O_13  and  C_35 
REMARK   12  A    between atoms: O_14  and  C_40 
REMARK   13  A    between atoms: O_15  and  C_41 
REMARK   14  A    between atoms: O_16  and  C_43 
REMARK   15  A    between atoms: C_17  and  C_26 
REMARK   16  A    between atoms: C_30  and  C_33 
ROOT
HETATM    1  O   UNK     0      73.686  32.189  30.829  0.00  0.00    -0.348 OA
HETATM    2  C   UNK     0      72.928  31.387  29.922  0.00  0.00     0.180 C 
HETATM    3  C   UNK     0      73.825  30.316  29.296  0.00  0.00     0.180 C 
HETATM    4  C   UNK     0      75.036  30.953  28.614  0.00  0.00     0.183 C 
HETATM    5  C   UNK     0      75.732  31.950  29.541  0.00  0.00     0.205 C 
HETATM    6  C   UNK     0      74.729  32.912  30.178  0.00  0.00     0.298 C 
ENDROOT
BRANCH   2   7
HETATM    7  C   UNK     0      71.776  30.769  30.709  0.00  0.00     0.205 C 
BRANCH   7   8
HETATM    8  O   UNK     0      70.601  30.801  29.912  0.00  0.00    -0.356 OA
BRANCH   8   9
HETATM    9  C   UNK     0      69.705  31.818  30.346  0.00  0.00     0.291 C 
HETATM   10  O   UNK     0      68.336  31.478  30.106  0.00  0.00    -0.351 OA
HETATM   11  C   UNK     0      67.997  31.349  28.722  0.00  0.00     0.152 C 
HETATM   12  C   UNK     0      68.265  32.657  27.965  0.00  0.00     0.178 C 
HETATM   13  C   UNK     0      66.527  30.943  28.657  0.00  0.00     0.042 C 
HETATM   14  C   UNK     0      69.713  33.101  28.179  0.00  0.00     0.183 C 
HETATM   15  C   UNK     0      70.058  33.142  29.669  0.00  0.00     0.204 C 
BRANCH  12  16
HETATM   16  O   UNK     0      68.062  32.470  26.566  0.00  0.00    -0.390 OA
HETATM   17  H   UNK     0      67.147  32.725  26.361  0.00  0.00     0.210 HD
ENDBRANCH  12  16
BRANCH  14  18
HETATM   18  O   UNK     0      69.898  34.392  27.602  0.00  0.00    -0.390 OA
HETATM   19  H   UNK     0      70.653  34.812  28.051  0.00  0.00     0.210 HD
ENDBRANCH  14  18
BRANCH  15  20
HETATM   20  O   UNK     0      69.311  34.174  30.314  0.00  0.00    -0.388 OA
HETATM   21  H   UNK     0      68.410  33.844  30.478  0.00  0.00     0.210 HD
ENDBRANCH  15  20
ENDBRANCH   8   9
ENDBRANCH   7   8
ENDBRANCH   2   7
BRANCH   6  22
HETATM   22  O   UNK     0      75.429  33.710  31.131  0.00  0.00    -0.311 OA
BRANCH  22  23
HETATM   23  C   UNK     0      74.797  34.915  31.346  0.00  0.00     0.157 A 
HETATM   24  C   UNK     0      74.389  35.324  32.561  0.00  0.00     0.124 A 
HETATM   25  O   UNK     0      73.721  36.514  32.807  0.00  0.00    -0.306 OA
HETATM   26  C   UNK     0      73.469  37.353  31.752  0.00  0.00     0.096 A 
HETATM   27  C   UNK     0      73.845  37.054  30.444  0.00  0.00     0.084 A 
HETATM   28  C   UNK     0      72.804  38.547  32.032  0.00  0.00     0.075 A 
HETATM   29  C   UNK     0      74.541  35.787  30.174  0.00  0.00     0.223 A 
HETATM   30  C   UNK     0      73.559  37.947  29.406  0.00  0.00     0.085 A 
HETATM   31  O   UNK     0      74.890  35.469  29.045  0.00  0.00    -0.284 OA
HETATM   32  C   UNK     0      72.895  39.141  29.690  0.00  0.00     0.074 A 
HETATM   33  C   UNK     0      72.519  39.441  31.000  0.00  0.00     0.071 A 
BRANCH  24  34
HETATM   34  C   UNK     0      74.595  34.520  33.778  0.00  0.00     0.004 A 
HETATM   35  C   UNK     0      73.560  33.725  34.273  0.00  0.00     0.053 A 
HETATM   36  C   UNK     0      73.755  32.962  35.424  0.00  0.00     0.099 A 
HETATM   37  C   UNK     0      74.984  32.994  36.082  0.00  0.00     0.098 A 
HETATM   38  C   UNK     0      76.019  33.789  35.588  0.00  0.00     0.040 A 
HETATM   39  C   UNK     0      75.824  34.551  34.437  0.00  0.00     0.017 A 
BRANCH  36  40
HETATM   40  O   UNK     0      72.736  32.191  35.898  0.00  0.00    -0.358 OA
HETATM   41  H   UNK     0      72.764  31.317  35.475  0.00  0.00     0.217 HD
ENDBRANCH  36  40
BRANCH  37  42
HETATM   42  O   UNK     0      75.187  32.253  37.207  0.00  0.00    -0.358 OA
HETATM   43  H   UNK     0      74.585  31.492  37.210  0.00  0.00     0.217 HD
ENDBRANCH  37  42
ENDBRANCH  24  34
BRANCH  30  44
HETATM   44  O   UNK     0      73.904  37.704  28.112  0.00  0.00    -0.360 OA
HETATM   45  H   UNK     0      74.869  37.602  28.046  0.00  0.00     0.217 HD
ENDBRANCH  30  44
BRANCH  33  46
HETATM   46  O   UNK     0      71.870  40.606  31.271  0.00  0.00    -0.361 OA
HETATM   47  H   UNK     0      71.663  41.055  30.434  0.00  0.00     0.217 HD
ENDBRANCH  33  46
ENDBRANCH  22  23
ENDBRANCH   6  22
BRANCH   3  48
HETATM   48  O   UNK     0      73.077  29.578  28.334  0.00  0.00    -0.390 OA
HETATM   49  H   UNK     0      73.670  29.357  27.597  0.00  0.00     0.210 HD
ENDBRANCH   3  48
BRANCH   5  50
HETATM   50  O   UNK     0      76.674  32.717  28.791  0.00  0.00    -0.388 OA
HETATM   51  H   UNK     0      77.017  32.156  28.075  0.00  0.00     0.210 HD
ENDBRANCH   5  50
BRANCH   4  52
HETATM   52  O   UNK     0      75.947  29.909  28.267  0.00  0.00    -0.390 OA
HETATM   53  H   UNK     0      75.836  29.197  28.920  0.00  0.00     0.210 HD
ENDBRANCH   4  52
TORSDOF 16
ENDMDL
MODEL 7
REMARK VINA RESULT:      -9.6     16.792     20.438
REMARK  16 active torsions:
REMARK  status: ('A' for Active; 'I' for Inactive)
REMARK    1  A    between atoms: O_2  and  C_22 
REMARK    2  A    between atoms: O_2  and  C_26 
REMARK    3  A    between atoms: O_4  and  C_18 
REMARK    4  A    between atoms: O_5  and  C_19 
REMARK    5  A    between atoms: O_6  and  C_25 
REMARK    6  A    between atoms: O_6  and  C_29 
REMARK    7  A    between atoms: O_7  and  C_20 
REMARK    8  A    between atoms: O_8  and  C_21 
REMARK    9  A    between atoms: O_9  and  C_23 
REMARK   10  A    between atoms: O_10  and  C_24 
REMARK   11  A    between atoms: O_13  and  C_35 
REMARK   12  A    between atoms: O_14  and  C_40 
REMARK   13  A    between atoms: O_15  and  C_41 
REMARK   14  A    between atoms: O_16  and  C_43 
REMARK   15  A    between atoms: C_17  and  C_26 
REMARK   16  A    between atoms: C_30  and  C_33 
ROOT
HETATM    1  O   UNK     0      72.697  34.468  29.725  0.00  0.00    -0.348 OA
HETATM    2  C   UNK     0      73.896  33.903  30.259  0.00  0.00     0.180 C 
HETATM    3  C   UNK     0      74.894  33.634  29.130  0.00  0.00     0.180 C 
HETATM    4  C   UNK     0      74.272  32.738  28.058  0.00  0.00     0.183 C 
HETATM    5  C   UNK     0      72.902  33.260  27.627  0.00  0.00     0.205 C 
HETATM    6  C   UNK     0      72.023  33.579  28.837  0.00  0.00     0.298 C 
ENDROOT
BRANCH   2   7
HETATM    7  C   UNK     0      74.452  34.890  31.282  0.00  0.00     0.205 C 
BRANCH   7   8
HETATM    8  O   UNK     0      73.747  36.117  31.171  0.00  0.00    -0.356 OA
BRANCH   8   9
HETATM    9  C   UNK     0      74.630  37.203  30.913  0.00  0.00     0.291 C 
HETATM   10  O   UNK     0      74.577  38.205  31.934  0.00  0.00    -0.351 OA
HETATM   11  C   UNK     0      73.312  38.865  32.042  0.00  0.00     0.152 C 
HETATM   12  C   UNK     0      72.937  39.557  30.724  0.00  0.00     0.178 C 
HETATM   13  C   UNK     0      73.423  39.857  33.197  0.00  0.00     0.042 C 
HETATM   14  C   UNK     0      72.982  38.554  29.572  0.00  0.00     0.183 C 
HETATM   15  C   UNK     0      74.318  37.809  29.546  0.00  0.00     0.204 C 
BRANCH  12  16
HETATM   16  O   UNK     0      71.614  40.084  30.802  0.00  0.00    -0.390 OA
HETATM   17  H   UNK     0      71.037  39.524  30.256  0.00  0.00     0.210 HD
ENDBRANCH  12  16
BRANCH  14  18
HETATM   18  O   UNK     0      72.786  39.244  28.340  0.00  0.00    -0.390 OA
HETATM   19  H   UNK     0      72.457  40.136  28.548  0.00  0.00     0.210 HD
ENDBRANCH  14  18
BRANCH  15  20
HETATM   20  O   UNK     0      75.374  38.715  29.220  0.00  0.00    -0.388 OA
HETATM   21  H   UNK     0      75.999  38.738  29.964  0.00  0.00     0.210 HD
ENDBRANCH  15  20
ENDBRANCH   8   9
ENDBRANCH   7   8
ENDBRANCH   2   7
BRANCH   6  22
HETATM   22  O   UNK     0      70.825  34.191  28.361  0.00  0.00    -0.311 OA
BRANCH  22  23
HETATM   23  C   UNK     0      69.732  33.371  28.538  0.00  0.00     0.157 A 
HETATM   24  C   UNK     0      69.271  33.011  29.749  0.00  0.00     0.124 A 
HETATM   25  O   UNK     0      68.196  32.162  29.961  0.00  0.00    -0.306 OA
HETATM   26  C   UNK     0      67.532  31.662  28.871  0.00  0.00     0.096 A 
HETATM   27  C   UNK     0      67.899  31.962  27.561  0.00  0.00     0.084 A 
HETATM   28  C   UNK     0      66.448  30.819  29.117  0.00  0.00     0.075 A 
HETATM   29  C   UNK     0      69.048  32.851  27.329  0.00  0.00     0.223 A 
HETATM   30  C   UNK     0      67.186  31.422  26.487  0.00  0.00     0.085 A 
HETATM   31  O   UNK     0      69.420  33.145  26.201  0.00  0.00    -0.284 OA
HETATM   32  C   UNK     0      66.101  30.579  26.736  0.00  0.00     0.074 A 
HETATM   33  C   UNK     0      65.733  30.279  28.047  0.00  0.00     0.071 A 
BRANCH  24  34
HETATM   34  C   UNK     0      69.893  33.474  31.002  0.00  0.00     0.004 A 
HETATM   35  C   UNK     0      70.640  32.588  31.780  0.00  0.00     0.053 A 
HETATM   36  C   UNK     0      71.230  33.027  32.965  0.00  0.00     0.099 A 
HETATM   37  C   UNK     0      71.072  34.350  33.375  0.00  0.00     0.098 A 
HETATM   38  C   UNK     0      70.325  35.236  32.598  0.00  0.00     0.040 A 
HETATM   39  C   UNK     0      69.736  34.798  31.412  0.00  0.00     0.017 A 
BRANCH  36  40
HETATM   40  O   UNK     0      71.956  32.152  33.717  0.00  0.00    -0.358 OA
HETATM   41  H   UNK     0      72.392  32.628  34.442  0.00  0.00     0.217 HD
ENDBRANCH  36  40
BRANCH  37  42
HETATM   42  O   UNK     0      71.644  34.790  34.530  0.00  0.00    -0.358 OA
HETATM   43  H   UNK     0      72.549  34.449  34.598  0.00  0.00     0.217 HD
ENDBRANCH  37  42
ENDBRANCH  24  34
BRANCH  30  44
HETATM   44  O   UNK     0      67.503  31.683  25.189  0.00  0.00    -0.360 OA
HETATM   45  H   UNK     0      68.145  32.413  25.151  0.00  0.00     0.217 HD
ENDBRANCH  30  44
BRANCH  33  46
HETATM   46  O   UNK     0      64.675  29.456  28.285  0.00  0.00    -0.361 OA
HETATM   47  H   UNK     0      64.393  29.054  27.445  0.00  0.00     0.217 HD
ENDBRANCH  33  46
ENDBRANCH  22  23
ENDBRANCH   6  22
BRANCH   3  48
HETATM   48  O   UNK     0      76.050  32.996  29.665  0.00  0.00    -0.390 OA
HETATM   49  H   UNK     0      75.762  32.396  30.374  0.00  0.00     0.210 HD
ENDBRANCH   3  48
BRANCH   5  50
HETATM   50  O   UNK     0      72.241  32.267  26.844  0.00  0.00    -0.388 OA
HETATM   51  H   UNK     0      72.883  31.907  26.209  0.00  0.00     0.210 HD
ENDBRANCH   5  50
BRANCH   4  52
HETATM   52  O   UNK     0      75.151  32.723  26.932  0.00  0.00    -0.390 OA
HETATM   53  H   UNK     0      74.612  32.891  26.140  0.00  0.00     0.210 HD
ENDBRANCH   4  52
TORSDOF 16
ENDMDL
MODEL 8
REMARK VINA RESULT:      -9.5      2.826      7.080
REMARK  16 active torsions:
REMARK  status: ('A' for Active; 'I' for Inactive)
REMARK    1  A    between atoms: O_2  and  C_22 
REMARK    2  A    between atoms: O_2  and  C_26 
REMARK    3  A    between atoms: O_4  and  C_18 
REMARK    4  A    between atoms: O_5  and  C_19 
REMARK    5  A    between atoms: O_6  and  C_25 
REMARK    6  A    between atoms: O_6  and  C_29 
REMARK    7  A    between atoms: O_7  and  C_20 
REMARK    8  A    between atoms: O_8  and  C_21 
REMARK    9  A    between atoms: O_9  and  C_23 
REMARK   10  A    between atoms: O_10  and  C_24 
REMARK   11  A    between atoms: O_13  and  C_35 
REMARK   12  A    between atoms: O_14  and  C_40 
REMARK   13  A    between atoms: O_15  and  C_41 
REMARK   14  A    between atoms: O_16  and  C_43 
REMARK   15  A    between atoms: C_17  and  C_26 
REMARK   16  A    between atoms: C_30  and  C_33 
ROOT
HETATM    1  O   UNK     0      62.512  19.278  27.887  0.00  0.00    -0.348 OA
HETATM    2  C   UNK     0      62.768  20.325  28.825  0.00  0.00     0.180 C 
HETATM    3  C   UNK     0      64.072  20.046  29.576  0.00  0.00     0.180 C 
HETATM    4  C   UNK     0      64.026  18.677  30.253  0.00  0.00     0.183 C 
HETATM    5  C   UNK     0      63.573  17.591  29.277  0.00  0.00     0.205 C 
HETATM    6  C   UNK     0      62.314  18.015  28.520  0.00  0.00     0.298 C 
ENDROOT
BRANCH   2   7
HETATM    7  C   UNK     0      62.834  21.634  28.043  0.00  0.00     0.205 C 
BRANCH   7   8
HETATM    8  O   UNK     0      63.547  21.415  26.835  0.00  0.00    -0.356 OA
BRANCH   8   9
HETATM    9  C   UNK     0      62.890  22.021  25.726  0.00  0.00     0.291 C 
HETATM   10  O   UNK     0      63.512  21.696  24.480  0.00  0.00    -0.351 OA
HETATM   11  C   UNK     0      64.848  22.192  24.344  0.00  0.00     0.152 C 
HETATM   12  C   UNK     0      64.884  23.721  24.471  0.00  0.00     0.178 C 
HETATM   13  C   UNK     0      65.365  21.719  22.988  0.00  0.00     0.042 C 
HETATM   14  C   UNK     0      64.223  24.156  25.780  0.00  0.00     0.183 C 
HETATM   15  C   UNK     0      62.833  23.535  25.924  0.00  0.00     0.204 C 
BRANCH  12  16
HETATM   16  O   UNK     0      66.233  24.184  24.480  0.00  0.00    -0.390 OA
HETATM   17  H   UNK     0      66.252  25.039  24.943  0.00  0.00     0.210 HD
ENDBRANCH  12  16
BRANCH  14  18
HETATM   18  O   UNK     0      64.125  25.578  25.807  0.00  0.00    -0.390 OA
HETATM   19  H   UNK     0      63.341  25.811  26.333  0.00  0.00     0.210 HD
ENDBRANCH  14  18
BRANCH  15  20
HETATM   20  O   UNK     0      61.955  24.070  24.932  0.00  0.00    -0.388 OA
HETATM   21  H   UNK     0      61.040  23.863  25.188  0.00  0.00     0.210 HD
ENDBRANCH  15  20
ENDBRANCH   8   9
ENDBRANCH   7   8
ENDBRANCH   2   7
BRANCH   6  22
HETATM   22  O   UNK     0      62.038  17.021  27.534  0.00  0.00    -0.311 OA
BRANCH  22  23
HETATM   23  C   UNK     0      60.690  16.933  27.265  0.00  0.00     0.157 A 
HETATM   24  C   UNK     0      60.176  17.086  26.032  0.00  0.00     0.124 A 
HETATM   25  O   UNK     0      58.823  17.036  25.732  0.00  0.00    -0.306 OA
HETATM   26  C   UNK     0      57.936  16.796  26.750  0.00  0.00     0.096 A 
HETATM   27  C   UNK     0      58.336  16.611  28.072  0.00  0.00     0.084 A 
HETATM   28  C   UNK     0      56.582  16.742  26.416  0.00  0.00     0.075 A 
HETATM   29  C   UNK     0      59.769  16.676  28.398  0.00  0.00     0.223 A 
HETATM   30  C   UNK     0      57.386  16.371  29.069  0.00  0.00     0.085 A 
HETATM   31  O   UNK     0      60.178  16.527  29.541  0.00  0.00    -0.284 OA
HETATM   32  C   UNK     0      56.033  16.317  28.732  0.00  0.00     0.074 A 
HETATM   33  C   UNK     0      55.632  16.502  27.409  0.00  0.00     0.071 A 
BRANCH  24  34
HETATM   34  C   UNK     0      61.016  17.351  24.850  0.00  0.00     0.004 A 
HETATM   35  C   UNK     0      61.148  18.652  24.365  0.00  0.00     0.053 A 
HETATM   36  C   UNK     0      61.944  18.903  23.248  0.00  0.00     0.099 A 
HETATM   37  C   UNK     0      62.607  17.853  22.614  0.00  0.00     0.098 A 
HETATM   38  C   UNK     0      62.475  16.552  23.098  0.00  0.00     0.040 A 
HETATM   39  C   UNK     0      61.680  16.301  24.216  0.00  0.00     0.017 A 
BRANCH  36  40
HETATM   40  O   UNK     0      62.064  20.179  22.783  0.00  0.00    -0.358 OA
HETATM   41  H   UNK     0      61.687  20.799  23.429  0.00  0.00     0.217 HD
ENDBRANCH  36  40
BRANCH  37  42
HETATM   42  O   UNK     0      63.388  18.086  21.522  0.00  0.00    -0.358 OA
HETATM   43  H   UNK     0      63.226  18.983  21.190  0.00  0.00     0.217 HD
ENDBRANCH  37  42
ENDBRANCH  24  34
BRANCH  30  44
HETATM   44  O   UNK     0      57.724  16.184  30.374  0.00  0.00    -0.360 OA
HETATM   45  H   UNK     0      58.588  15.740  30.427  0.00  0.00     0.217 HD
ENDBRANCH  30  44
BRANCH  33  46
HETATM   46  O   UNK     0      54.311  16.449  27.085  0.00  0.00    -0.361 OA
HETATM   47  H   UNK     0      54.224  16.426  26.116  0.00  0.00     0.217 HD
ENDBRANCH  33  46
ENDBRANCH  22  23
ENDBRANCH   6  22
BRANCH   3  48
HETATM   48  O   UNK     0      64.271  21.054  30.564  0.00  0.00    -0.390 OA
HETATM   49  H   UNK     0      63.564  20.971  31.225  0.00  0.00     0.210 HD
ENDBRANCH   3  48
BRANCH   5  50
HETATM   50  O   UNK     0      63.279  16.396  30.000  0.00  0.00    -0.388 OA
HETATM   51  H   UNK     0      63.151  15.678  29.357  0.00  0.00     0.210 HD
ENDBRANCH   5  50
BRANCH   4  52
HETATM   52  O   UNK     0      65.340  18.373  30.726  0.00  0.00    -0.390 OA
HETATM   53  H   UNK     0      65.517  17.440  30.515  0.00  0.00     0.210 HD
ENDBRANCH   4  52
TORSDOF 16
ENDMDL
MODEL 9
REMARK VINA RESULT:      -9.5      2.516      7.098
REMARK  16 active torsions:
REMARK  status: ('A' for Active; 'I' for Inactive)
REMARK    1  A    between atoms: O_2  and  C_22 
REMARK    2  A    between atoms: O_2  and  C_26 
REMARK    3  A    between atoms: O_4  and  C_18 
REMARK    4  A    between atoms: O_5  and  C_19 
REMARK    5  A    between atoms: O_6  and  C_25 
REMARK    6  A    between atoms: O_6  and  C_29 
REMARK    7  A    between atoms: O_7  and  C_20 
REMARK    8  A    between atoms: O_8  and  C_21 
REMARK    9  A    between atoms: O_9  and  C_23 
REMARK   10  A    between atoms: O_10  and  C_24 
REMARK   11  A    between atoms: O_13  and  C_35 
REMARK   12  A    between atoms: O_14  and  C_40 
REMARK   13  A    between atoms: O_15  and  C_41 
REMARK   14  A    between atoms: O_16  and  C_43 
REMARK   15  A    between atoms: C_17  and  C_26 
REMARK   16  A    between atoms: C_30  and  C_33 
ROOT
HETATM    1  O   UNK     0      63.042  18.941  27.192  0.00  0.00    -0.348 OA
HETATM    2  C   UNK     0      63.465  20.179  27.768  0.00  0.00     0.180 C 
HETATM    3  C   UNK     0      64.608  19.930  28.756  0.00  0.00     0.180 C 
HETATM    4  C   UNK     0      64.191  18.920  29.825  0.00  0.00     0.183 C 
HETATM    5  C   UNK     0      63.570  17.672  29.195  0.00  0.00     0.205 C 
HETATM    6  C   UNK     0      62.507  18.043  28.161  0.00  0.00     0.298 C 
ENDROOT
BRANCH   2   7
HETATM    7  C   UNK     0      63.895  21.094  26.626  0.00  0.00     0.205 C 
BRANCH   7   8
HETATM    8  O   UNK     0      64.390  20.299  25.558  0.00  0.00    -0.356 OA
BRANCH   8   9
HETATM    9  C   UNK     0      65.777  20.534  25.334  0.00  0.00     0.291 C 
HETATM   10  O   UNK     0      66.047  20.968  23.998  0.00  0.00    -0.351 OA
HETATM   11  C   UNK     0      65.740  19.997  22.992  0.00  0.00     0.152 C 
HETATM   12  C   UNK     0      66.543  18.706  23.208  0.00  0.00     0.178 C 
HETATM   13  C   UNK     0      66.046  20.640  21.642  0.00  0.00     0.042 C 
HETATM   14  C   UNK     0      66.318  18.179  24.626  0.00  0.00     0.183 C 
HETATM   15  C   UNK     0      66.574  19.273  25.664  0.00  0.00     0.204 C 
BRANCH  12  16
HETATM   16  O   UNK     0      66.120  17.702  22.289  0.00  0.00    -0.390 OA
HETATM   17  H   UNK     0      65.386  17.213  22.698  0.00  0.00     0.210 HD
ENDBRANCH  12  16
BRANCH  14  18
HETATM   18  O   UNK     0      67.189  17.074  24.859  0.00  0.00    -0.390 OA
HETATM   19  H   UNK     0      66.779  16.512  25.540  0.00  0.00     0.210 HD
ENDBRANCH  14  18
BRANCH  15  20
HETATM   20  O   UNK     0      67.958  19.623  25.672  0.00  0.00    -0.388 OA
HETATM   21  H   UNK     0      68.383  19.215  24.897  0.00  0.00     0.210 HD
ENDBRANCH  15  20
ENDBRANCH   8   9
ENDBRANCH   7   8
ENDBRANCH   2   7
BRANCH   6  22
HETATM   22  O   UNK     0      62.080  16.841  27.520  0.00  0.00    -0.311 OA
BRANCH  22  23
HETATM   23  C   UNK     0      60.724  16.849  27.278  0.00  0.00     0.157 A 
HETATM   24  C   UNK     0      60.195  17.080  26.063  0.00  0.00     0.124 A 
HETATM   25  O   UNK     0      58.836  17.127  25.793  0.00  0.00    -0.306 OA
HETATM   26  C   UNK     0      57.957  16.906  26.821  0.00  0.00     0.096 A 
HETATM   27  C   UNK     0      58.370  16.646  28.126  0.00  0.00     0.084 A 
HETATM   28  C   UNK     0      56.596  16.950  26.516  0.00  0.00     0.075 A 
HETATM   29  C   UNK     0      59.811  16.608  28.422  0.00  0.00     0.223 A 
HETATM   30  C   UNK     0      57.428  16.429  29.135  0.00  0.00     0.085 A 
HETATM   31  O   UNK     0      60.233  16.391  29.549  0.00  0.00    -0.284 OA
HETATM   32  C   UNK     0      56.067  16.474  28.827  0.00  0.00     0.074 A 
HETATM   33  C   UNK     0      55.652  16.733  27.520  0.00  0.00     0.071 A 
BRANCH  24  34
HETATM   34  C   UNK     0      61.026  17.335  24.873  0.00  0.00     0.004 A 
HETATM   35  C   UNK     0      61.206  18.641  24.414  0.00  0.00     0.053 A 
HETATM   36  C   UNK     0      61.993  18.883  23.289  0.00  0.00     0.099 A 
HETATM   37  C   UNK     0      62.601  17.820  22.622  0.00  0.00     0.098 A 
HETATM   38  C   UNK     0      62.421  16.515  23.080  0.00  0.00     0.040 A 
HETATM   39  C   UNK     0      61.635  16.273  24.205  0.00  0.00     0.017 A 
BRANCH  36  40
HETATM   40  O   UNK     0      62.159  20.162  22.850  0.00  0.00    -0.358 OA
HETATM   41  H   UNK     0      62.970  20.222  22.318  0.00  0.00     0.217 HD
ENDBRANCH  36  40
BRANCH  37  42
HETATM   42  O   UNK     0      63.373  18.044  21.522  0.00  0.00    -0.358 OA
HETATM   43  H   UNK     0      63.231  18.949  21.201  0.00  0.00     0.217 HD
ENDBRANCH  37  42
ENDBRANCH  24  34
BRANCH  30  44
HETATM   44  O   UNK     0      57.779  16.173  30.425  0.00  0.00    -0.360 OA
HETATM   45  H   UNK     0      57.716  15.217  30.595  0.00  0.00     0.217 HD
ENDBRANCH  30  44
BRANCH  33  46
HETATM   46  O   UNK     0      54.324  16.775  27.225  0.00  0.00    -0.361 OA
HETATM   47  H   UNK     0      53.967  15.871  27.246  0.00  0.00     0.217 HD
ENDBRANCH  33  46
ENDBRANCH  22  23
ENDBRANCH   6  22
BRANCH   3  48
HETATM   48  O   UNK     0      64.963  21.160  29.384  0.00  0.00    -0.390 OA
HETATM   49  H   UNK     0      64.146  21.658  29.554  0.00  0.00     0.210 HD
ENDBRANCH   3  48
BRANCH   5  50
HETATM   50  O   UNK     0      62.951  16.886  30.213  0.00  0.00    -0.388 OA
HETATM   51  H   UNK     0      62.120  16.531  29.855  0.00  0.00     0.210 HD
ENDBRANCH   5  50
BRANCH   4  52
HETATM   52  O   UNK     0      65.358  18.550  30.562  0.00  0.00    -0.390 OA
HETATM   53  H   UNK     0      65.060  18.117  31.380  0.00  0.00     0.210 HD
ENDBRANCH   4  52
TORSDOF 16
ENDMDL
