MODEL 1
REMARK VINA RESULT:      -8.6      0.000      0.000
REMARK  13 active torsions:
REMARK  status: ('A' for Active; 'I' for Inactive)
REMARK    1  A    between atoms: O_2  and  C_16 
REMARK    2  A    between atoms: O_2  and  C_17 
REMARK    3  A    between atoms: O_4  and  C_12 
REMARK    4  A    between atoms: O_5  and  C_13 
REMARK    5  A    between atoms: O_6  and  C_15 
REMARK    6  A    between atoms: O_6  and  C_22 
REMARK    7  A    between atoms: O_7  and  C_14 
REMARK    8  A    between atoms: O_8  and  C_18 
REMARK    9  A    between atoms: O_9  and  C_19 
REMARK   10  A    between atoms: O_10  and  C_20 
REMARK   11  A    between atoms: C_11  and  C_16 
REMARK   12  A    between atoms: C_22  and  C_23 
REMARK   13  A    between atoms: C_24  and  C_25 
ROOT
HETATM    1  O   UNK     0      74.689  33.698  33.269  0.00  0.00    -0.348 OA
HETATM    2  C   UNK     0      73.662  33.842  32.287  0.00  0.00     0.180 C 
HETATM    3  C   UNK     0      72.369  34.325  32.950  0.00  0.00     0.180 C 
HETATM    4  C   UNK     0      71.951  33.379  34.075  0.00  0.00     0.183 C 
HETATM    5  C   UNK     0      73.119  33.091  35.019  0.00  0.00     0.204 C 
HETATM    6  C   UNK     0      74.378  32.706  34.243  0.00  0.00     0.291 C 
ENDROOT
BRANCH   2   7
HETATM    7  C   UNK     0      74.162  34.832  31.239  0.00  0.00     0.205 C 
BRANCH   7   8
HETATM    8  O   UNK     0      73.616  36.106  31.525  0.00  0.00    -0.356 OA
BRANCH   8   9
HETATM    9  C   UNK     0      74.474  37.157  31.094  0.00  0.00     0.290 C 
HETATM   10  O   UNK     0      74.530  38.227  32.044  0.00  0.00    -0.356 OA
HETATM   11  C   UNK     0      73.300  38.935  32.186  0.00  0.00     0.205 C 
HETATM   12  C   UNK     0      72.887  39.564  30.862  0.00  0.00     0.173 C 
HETATM   13  C   UNK     0      72.758  38.497  29.774  0.00  0.00     0.182 C 
HETATM   14  C   UNK     0      74.037  37.655  29.708  0.00  0.00     0.204 C 
BRANCH  12  15
HETATM   15  O   UNK     0      71.656  40.257  31.006  0.00  0.00    -0.391 OA
HETATM   16  H   UNK     0      70.946  39.659  30.714  0.00  0.00     0.210 HD
ENDBRANCH  12  15
BRANCH  13  17
HETATM   17  O   UNK     0      71.646  37.654  30.071  0.00  0.00    -0.390 OA
HETATM   18  H   UNK     0      70.841  38.194  29.993  0.00  0.00     0.210 HD
ENDBRANCH  13  17
BRANCH  14  19
HETATM   19  O   UNK     0      75.095  38.444  29.168  0.00  0.00    -0.388 OA
HETATM   20  H   UNK     0      75.858  38.384  29.767  0.00  0.00     0.210 HD
ENDBRANCH  14  19
ENDBRANCH   8   9
ENDBRANCH   7   8
ENDBRANCH   2   7
BRANCH   6  21
HETATM   21  O   UNK     0      75.452  32.593  35.176  0.00  0.00    -0.355 OA
BRANCH  21  22
HETATM   22  C   UNK     0      75.727  33.838  35.801  0.00  0.00     0.198 C 
BRANCH  22  23
HETATM   23  C   UNK     0      76.975  33.702  36.613  0.00  0.00     0.000 C 
HETATM   24  C   UNK     0      77.016  33.902  37.939  0.00  0.00     0.009 C 
BRANCH  24  25
HETATM   25  C   UNK     0      78.216  33.766  38.782  0.00  0.00    -0.036 A 
HETATM   26  C   UNK     0      78.944  32.588  38.742  0.00  0.00     0.011 A 
HETATM   27  C   UNK     0      80.081  32.458  39.541  0.00  0.00     0.001 A 
HETATM   28  C   UNK     0      80.475  33.510  40.367  0.00  0.00     0.000 A 
HETATM   29  C   UNK     0      79.733  34.690  40.397  0.00  0.00     0.001 A 
HETATM   30  C   UNK     0      78.595  34.820  39.599  0.00  0.00     0.011 A 
ENDBRANCH  24  25
ENDBRANCH  22  23
ENDBRANCH  21  22
ENDBRANCH   6  21
BRANCH   3  31
HETATM   31  O   UNK     0      71.332  34.384  31.974  0.00  0.00    -0.390 OA
HETATM   32  H   UNK     0      71.215  35.316  31.718  0.00  0.00     0.210 HD
ENDBRANCH   3  31
BRANCH   5  33
HETATM   33  O   UNK     0      72.774  32.007  35.881  0.00  0.00    -0.388 OA
HETATM   34  H   UNK     0      72.752  31.194  35.349  0.00  0.00     0.210 HD
ENDBRANCH   5  33
BRANCH   4  35
HETATM   35  O   UNK     0      70.892  34.001  34.805  0.00  0.00    -0.390 OA
HETATM   36  H   UNK     0      71.295  34.652  35.404  0.00  0.00     0.210 HD
ENDBRANCH   4  35
TORSDOF 13
ENDMDL
MODEL 2
REMARK VINA RESULT:      -8.6     23.338     25.914
REMARK  13 active torsions:
REMARK  status: ('A' for Active; 'I' for Inactive)
REMARK    1  A    between atoms: O_2  and  C_16 
REMARK    2  A    between atoms: O_2  and  C_17 
REMARK    3  A    between atoms: O_4  and  C_12 
REMARK    4  A    between atoms: O_5  and  C_13 
REMARK    5  A    between atoms: O_6  and  C_15 
REMARK    6  A    between atoms: O_6  and  C_22 
REMARK    7  A    between atoms: O_7  and  C_14 
REMARK    8  A    between atoms: O_8  and  C_18 
REMARK    9  A    between atoms: O_9  and  C_19 
REMARK   10  A    between atoms: O_10  and  C_20 
REMARK   11  A    between atoms: C_11  and  C_16 
REMARK   12  A    between atoms: C_22  and  C_23 
REMARK   13  A    between atoms: C_24  and  C_25 
ROOT
HETATM    1  O   UNK     0      60.161  18.325  26.456  0.00  0.00    -0.348 OA
HETATM    2  C   UNK     0      59.689  18.998  27.624  0.00  0.00     0.180 C 
HETATM    3  C   UNK     0      58.425  19.796  27.293  0.00  0.00     0.180 C 
HETATM    4  C   UNK     0      58.683  20.768  26.143  0.00  0.00     0.183 C 
HETATM    5  C   UNK     0      59.357  20.064  24.964  0.00  0.00     0.204 C 
HETATM    6  C   UNK     0      60.551  19.228  25.425  0.00  0.00     0.291 C 
ENDROOT
BRANCH   2   7
HETATM    7  C   UNK     0      59.425  17.939  28.691  0.00  0.00     0.205 C 
BRANCH   7   8
HETATM    8  O   UNK     0      58.040  17.649  28.705  0.00  0.00    -0.356 OA
BRANCH   8   9
HETATM    9  C   UNK     0      57.794  16.248  28.766  0.00  0.00     0.290 C 
HETATM   10  O   UNK     0      58.364  15.555  27.649  0.00  0.00    -0.356 OA
HETATM   11  C   UNK     0      57.752  15.874  26.402  0.00  0.00     0.205 C 
HETATM   12  C   UNK     0      56.274  15.507  26.419  0.00  0.00     0.173 C 
HETATM   13  C   UNK     0      55.553  16.228  27.559  0.00  0.00     0.182 C 
HETATM   14  C   UNK     0      56.285  15.986  28.883  0.00  0.00     0.204 C 
BRANCH  12  15
HETATM   15  O   UNK     0      55.666  15.839  25.179  0.00  0.00    -0.391 OA
HETATM   16  H   UNK     0      55.471  15.006  24.715  0.00  0.00     0.210 HD
ENDBRANCH  12  15
BRANCH  13  17
HETATM   17  O   UNK     0      55.516  17.627  27.283  0.00  0.00    -0.390 OA
HETATM   18  H   UNK     0      56.312  17.845  26.769  0.00  0.00     0.210 HD
ENDBRANCH  13  17
BRANCH  14  19
HETATM   19  O   UNK     0      56.103  14.629  29.283  0.00  0.00    -0.388 OA
HETATM   20  H   UNK     0      56.560  14.494  30.130  0.00  0.00     0.210 HD
ENDBRANCH  14  19
ENDBRANCH   8   9
ENDBRANCH   7   8
ENDBRANCH   2   7
BRANCH   6  21
HETATM   21  O   UNK     0      61.035  18.496  24.300  0.00  0.00    -0.355 OA
BRANCH  21  22
HETATM   22  C   UNK     0      61.306  17.145  24.641  0.00  0.00     0.198 C 
BRANCH  22  23
HETATM   23  C   UNK     0      62.254  16.577  23.634  0.00  0.00     0.000 C 
HETATM   24  C   UNK     0      62.649  17.241  22.537  0.00  0.00     0.009 C 
BRANCH  24  25
HETATM   25  C   UNK     0      63.590  16.729  21.526  0.00  0.00    -0.036 A 
HETATM   26  C   UNK     0      64.622  17.542  21.085  0.00  0.00     0.011 A 
HETATM   27  C   UNK     0      65.514  17.057  20.128  0.00  0.00     0.001 A 
HETATM   28  C   UNK     0      65.362  15.765  19.626  0.00  0.00     0.000 A 
HETATM   29  C   UNK     0      64.320  14.958  20.080  0.00  0.00     0.001 A 
HETATM   30  C   UNK     0      63.428  15.443  21.037  0.00  0.00     0.011 A 
ENDBRANCH  24  25
ENDBRANCH  22  23
ENDBRANCH  21  22
ENDBRANCH   6  21
BRANCH   3  31
HETATM   31  O   UNK     0      58.013  20.527  28.445  0.00  0.00    -0.390 OA
HETATM   32  H   UNK     0      58.010  19.916  29.203  0.00  0.00     0.210 HD
ENDBRANCH   3  31
BRANCH   5  33
HETATM   33  O   UNK     0      59.826  21.041  24.035  0.00  0.00    -0.388 OA
HETATM   34  H   UNK     0      59.242  21.025  23.259  0.00  0.00     0.210 HD
ENDBRANCH   5  33
BRANCH   4  35
HETATM   35  O   UNK     0      57.425  21.299  25.723  0.00  0.00    -0.390 OA
HETATM   36  H   UNK     0      56.785  20.567  25.723  0.00  0.00     0.210 HD
ENDBRANCH   4  35
TORSDOF 13
ENDMDL
MODEL 3
REMARK VINA RESULT:      -8.6     23.133     25.311
REMARK  13 active torsions:
REMARK  status: ('A' for Active; 'I' for Inactive)
REMARK    1  A    between atoms: O_2  and  C_16 
REMARK    2  A    between atoms: O_2  and  C_17 
REMARK    3  A    between atoms: O_4  and  C_12 
REMARK    4  A    between atoms: O_5  and  C_13 
REMARK    5  A    between atoms: O_6  and  C_15 
REMARK    6  A    between atoms: O_6  and  C_22 
REMARK    7  A    between atoms: O_7  and  C_14 
REMARK    8  A    between atoms: O_8  and  C_18 
REMARK    9  A    between atoms: O_9  and  C_19 
REMARK   10  A    between atoms: O_10  and  C_20 
REMARK   11  A    between atoms: C_11  and  C_16 
REMARK   12  A    between atoms: C_22  and  C_23 
REMARK   13  A    between atoms: C_24  and  C_25 
ROOT
HETATM    1  O   UNK     0      61.557  17.549  25.337  0.00  0.00    -0.348 OA
HETATM    2  C   UNK     0      61.004  18.336  26.393  0.00  0.00     0.180 C 
HETATM    3  C   UNK     0      59.985  19.328  25.827  0.00  0.00     0.180 C 
HETATM    4  C   UNK     0      60.620  20.197  24.742  0.00  0.00     0.183 C 
HETATM    5  C   UNK     0      61.365  19.344  23.714  0.00  0.00     0.204 C 
HETATM    6  C   UNK     0      62.284  18.332  24.395  0.00  0.00     0.291 C 
ENDROOT
BRANCH   2   7
HETATM    7  C   UNK     0      60.365  17.380  27.395  0.00  0.00     0.205 C 
BRANCH   7   8
HETATM    8  O   UNK     0      59.005  17.202  27.043  0.00  0.00    -0.356 OA
BRANCH   8   9
HETATM    9  C   UNK     0      58.531  15.909  27.406  0.00  0.00     0.290 C 
HETATM   10  O   UNK     0      57.698  15.339  26.389  0.00  0.00    -0.356 OA
HETATM   11  C   UNK     0      56.464  16.028  26.203  0.00  0.00     0.205 C 
HETATM   12  C   UNK     0      55.641  16.010  27.485  0.00  0.00     0.173 C 
HETATM   13  C   UNK     0      56.426  16.637  28.638  0.00  0.00     0.182 C 
HETATM   14  C   UNK     0      57.804  15.979  28.758  0.00  0.00     0.204 C 
BRANCH  12  15
HETATM   15  O   UNK     0      54.419  16.709  27.297  0.00  0.00    -0.391 OA
HETATM   16  H   UNK     0      53.913  16.645  28.127  0.00  0.00     0.210 HD
ENDBRANCH  12  15
BRANCH  13  17
HETATM   17  O   UNK     0      56.583  18.034  28.397  0.00  0.00    -0.390 OA
HETATM   18  H   UNK     0      55.740  18.367  28.042  0.00  0.00     0.210 HD
ENDBRANCH  13  17
BRANCH  14  19
HETATM   19  O   UNK     0      57.652  14.647  29.245  0.00  0.00    -0.388 OA
HETATM   20  H   UNK     0      56.754  14.343  29.031  0.00  0.00     0.210 HD
ENDBRANCH  14  19
ENDBRANCH   8   9
ENDBRANCH   7   8
ENDBRANCH   2   7
BRANCH   6  21
HETATM   21  O   UNK     0      62.831  17.485  23.384  0.00  0.00    -0.355 OA
BRANCH  21  22
HETATM   22  C   UNK     0      63.727  16.534  23.936  0.00  0.00     0.198 C 
BRANCH  22  23
HETATM   23  C   UNK     0      65.052  16.672  23.257  0.00  0.00     0.000 C 
HETATM   24  C   UNK     0      65.304  16.195  22.029  0.00  0.00     0.009 C 
BRANCH  24  25
HETATM   25  C   UNK     0      66.587  16.320  21.315  0.00  0.00    -0.036 A 
HETATM   26  C   UNK     0      67.697  15.641  21.790  0.00  0.00     0.011 A 
HETATM   27  C   UNK     0      68.912  15.759  21.114  0.00  0.00     0.001 A 
HETATM   28  C   UNK     0      69.000  16.555  19.972  0.00  0.00     0.000 A 
HETATM   29  C   UNK     0      67.873  17.233  19.506  0.00  0.00     0.001 A 
HETATM   30  C   UNK     0      66.658  17.115  20.182  0.00  0.00     0.011 A 
ENDBRANCH  24  25
ENDBRANCH  22  23
ENDBRANCH  21  22
ENDBRANCH   6  21
BRANCH   3  31
HETATM   31  O   UNK     0      59.505  20.162  26.878  0.00  0.00    -0.390 OA
HETATM   32  H   UNK     0      58.544  20.266  26.763  0.00  0.00     0.210 HD
ENDBRANCH   3  31
BRANCH   5  33
HETATM   33  O   UNK     0      62.163  20.190  22.887  0.00  0.00    -0.388 OA
HETATM   34  H   UNK     0      62.464  20.941  23.425  0.00  0.00     0.210 HD
ENDBRANCH   5  33
BRANCH   4  35
HETATM   35  O   UNK     0      59.576  20.923  24.091  0.00  0.00    -0.390 OA
HETATM   36  H   UNK     0      59.490  20.566  23.191  0.00  0.00     0.210 HD
ENDBRANCH   4  35
TORSDOF 13
ENDMDL
MODEL 4
REMARK VINA RESULT:      -8.4     22.624     26.043
REMARK  13 active torsions:
REMARK  status: ('A' for Active; 'I' for Inactive)
REMARK    1  A    between atoms: O_2  and  C_16 
REMARK    2  A    between atoms: O_2  and  C_17 
REMARK    3  A    between atoms: O_4  and  C_12 
REMARK    4  A    between atoms: O_5  and  C_13 
REMARK    5  A    between atoms: O_6  and  C_15 
REMARK    6  A    between atoms: O_6  and  C_22 
REMARK    7  A    between atoms: O_7  and  C_14 
REMARK    8  A    between atoms: O_8  and  C_18 
REMARK    9  A    between atoms: O_9  and  C_19 
REMARK   10  A    between atoms: O_10  and  C_20 
REMARK   11  A    between atoms: C_11  and  C_16 
REMARK   12  A    between atoms: C_22  and  C_23 
REMARK   13  A    between atoms: C_24  and  C_25 
ROOT
HETATM    1  O   UNK     0      60.034  18.031  25.916  0.00  0.00    -0.348 OA
HETATM    2  C   UNK     0      59.155  19.136  26.134  0.00  0.00     0.180 C 
HETATM    3  C   UNK     0      59.295  20.148  24.994  0.00  0.00     0.180 C 
HETATM    4  C   UNK     0      60.748  20.598  24.845  0.00  0.00     0.183 C 
HETATM    5  C   UNK     0      61.697  19.400  24.796  0.00  0.00     0.204 C 
HETATM    6  C   UNK     0      61.406  18.415  25.927  0.00  0.00     0.291 C 
ENDROOT
BRANCH   2   7
HETATM    7  C   UNK     0      57.735  18.583  26.227  0.00  0.00     0.205 C 
BRANCH   7   8
HETATM    8  O   UNK     0      57.660  17.723  27.349  0.00  0.00    -0.356 OA
BRANCH   8   9
HETATM    9  C   UNK     0      56.327  17.282  27.588  0.00  0.00     0.290 C 
HETATM   10  O   UNK     0      56.092  17.013  28.975  0.00  0.00    -0.356 OA
HETATM   11  C   UNK     0      56.829  15.901  29.478  0.00  0.00     0.205 C 
HETATM   12  C   UNK     0      56.458  14.627  28.730  0.00  0.00     0.173 C 
HETATM   13  C   UNK     0      56.709  14.791  27.230  0.00  0.00     0.182 C 
HETATM   14  C   UNK     0      56.017  16.057  26.714  0.00  0.00     0.204 C 
BRANCH  12  15
HETATM   15  O   UNK     0      57.205  13.526  29.226  0.00  0.00    -0.391 OA
HETATM   16  H   UNK     0      56.744  13.190  30.015  0.00  0.00     0.210 HD
ENDBRANCH  12  15
BRANCH  13  17
HETATM   17  O   UNK     0      58.113  14.883  26.994  0.00  0.00    -0.390 OA
HETATM   18  H   UNK     0      58.412  15.741  27.341  0.00  0.00     0.210 HD
ENDBRANCH  13  17
BRANCH  14  19
HETATM   19  O   UNK     0      54.605  15.859  26.717  0.00  0.00    -0.388 OA
HETATM   20  H   UNK     0      54.291  15.873  25.797  0.00  0.00     0.210 HD
ENDBRANCH  14  19
ENDBRANCH   8   9
ENDBRANCH   7   8
ENDBRANCH   2   7
BRANCH   6  21
HETATM   21  O   UNK     0      62.230  17.266  25.732  0.00  0.00    -0.355 OA
BRANCH  21  22
HETATM   22  C   UNK     0      61.653  16.371  24.793  0.00  0.00     0.198 C 
BRANCH  22  23
HETATM   23  C   UNK     0      62.670  16.054  23.743  0.00  0.00     0.000 C 
HETATM   24  C   UNK     0      62.624  16.554  22.499  0.00  0.00     0.009 C 
BRANCH  24  25
HETATM   25  C   UNK     0      63.609  16.283  21.438  0.00  0.00    -0.036 A 
HETATM   26  C   UNK     0      64.534  17.259  21.105  0.00  0.00     0.011 A 
HETATM   27  C   UNK     0      65.468  17.004  20.100  0.00  0.00     0.001 A 
HETATM   28  C   UNK     0      65.463  15.774  19.442  0.00  0.00     0.000 A 
HETATM   29  C   UNK     0      64.527  14.800  19.788  0.00  0.00     0.001 A 
HETATM   30  C   UNK     0      63.593  15.056  20.793  0.00  0.00     0.011 A 
ENDBRANCH  24  25
ENDBRANCH  22  23
ENDBRANCH  21  22
ENDBRANCH   6  21
BRANCH   3  31
HETATM   31  O   UNK     0      58.475  21.281  25.266  0.00  0.00    -0.390 OA
HETATM   32  H   UNK     0      58.948  22.074  24.957  0.00  0.00     0.210 HD
ENDBRANCH   3  31
BRANCH   5  33
HETATM   33  O   UNK     0      63.043  19.857  24.933  0.00  0.00    -0.388 OA
HETATM   34  H   UNK     0      63.549  19.167  25.394  0.00  0.00     0.210 HD
ENDBRANCH   5  33
BRANCH   4  35
HETATM   35  O   UNK     0      60.857  21.342  23.630  0.00  0.00    -0.390 OA
HETATM   36  H   UNK     0      60.172  22.031  23.648  0.00  0.00     0.210 HD
ENDBRANCH   4  35
TORSDOF 13
ENDMDL
MODEL 5
REMARK VINA RESULT:      -8.3      2.112      3.304
REMARK  13 active torsions:
REMARK  status: ('A' for Active; 'I' for Inactive)
REMARK    1  A    between atoms: O_2  and  C_16 
REMARK    2  A    between atoms: O_2  and  C_17 
REMARK    3  A    between atoms: O_4  and  C_12 
REMARK    4  A    between atoms: O_5  and  C_13 
REMARK    5  A    between atoms: O_6  and  C_15 
REMARK    6  A    between atoms: O_6  and  C_22 
REMARK    7  A    between atoms: O_7  and  C_14 
REMARK    8  A    between atoms: O_8  and  C_18 
REMARK    9  A    between atoms: O_9  and  C_19 
REMARK   10  A    between atoms: O_10  and  C_20 
REMARK   11  A    between atoms: C_11  and  C_16 
REMARK   12  A    between atoms: C_22  and  C_23 
REMARK   13  A    between atoms: C_24  and  C_25 
ROOT
HETATM    1  O   UNK     0      73.134  34.647  30.820  0.00  0.00    -0.348 OA
HETATM    2  C   UNK     0      72.271  35.170  29.809  0.00  0.00     0.180 C 
HETATM    3  C   UNK     0      71.140  35.976  30.453  0.00  0.00     0.180 C 
HETATM    4  C   UNK     0      70.377  35.124  31.466  0.00  0.00     0.183 C 
HETATM    5  C   UNK     0      71.333  34.423  32.433  0.00  0.00     0.204 C 
HETATM    6  C   UNK     0      72.469  33.729  31.684  0.00  0.00     0.291 C 
ENDROOT
BRANCH   2   7
HETATM    7  C   UNK     0      73.121  36.032  28.879  0.00  0.00     0.205 C 
BRANCH   7   8
HETATM    8  O   UNK     0      73.046  37.376  29.319  0.00  0.00    -0.356 OA
BRANCH   8   9
HETATM    9  C   UNK     0      74.312  37.861  29.754  0.00  0.00     0.290 C 
HETATM   10  O   UNK     0      74.647  37.387  31.063  0.00  0.00    -0.356 OA
HETATM   11  C   UNK     0      73.803  37.898  32.092  0.00  0.00     0.205 C 
HETATM   12  C   UNK     0      73.894  39.417  32.155  0.00  0.00     0.173 C 
HETATM   13  C   UNK     0      73.516  40.036  30.808  0.00  0.00     0.182 C 
HETATM   14  C   UNK     0      74.337  39.395  29.684  0.00  0.00     0.204 C 
BRANCH  12  15
HETATM   15  O   UNK     0      73.042  39.922  33.173  0.00  0.00    -0.391 OA
HETATM   16  H   UNK     0      73.594  40.428  33.795  0.00  0.00     0.210 HD
ENDBRANCH  12  15
BRANCH  13  17
HETATM   17  O   UNK     0      72.126  39.824  30.565  0.00  0.00    -0.390 OA
HETATM   18  H   UNK     0      71.788  39.255  31.278  0.00  0.00     0.210 HD
ENDBRANCH  13  17
BRANCH  14  19
HETATM   19  O   UNK     0      75.695  39.820  29.789  0.00  0.00    -0.388 OA
HETATM   20  H   UNK     0      75.756  40.734  29.465  0.00  0.00     0.210 HD
ENDBRANCH  14  19
ENDBRANCH   8   9
ENDBRANCH   7   8
ENDBRANCH   2   7
BRANCH   6  21
HETATM   21  O   UNK     0      73.389  33.224  32.651  0.00  0.00    -0.355 OA
BRANCH  21  22
HETATM   22  C   UNK     0      73.958  34.273  33.419  0.00  0.00     0.198 C 
BRANCH  22  23
HETATM   23  C   UNK     0      74.823  33.675  34.482  0.00  0.00     0.000 C 
HETATM   24  C   UNK     0      74.336  32.988  35.528  0.00  0.00     0.009 C 
BRANCH  24  25
HETATM   25  C   UNK     0      75.148  32.370  36.590  0.00  0.00    -0.036 A 
HETATM   26  C   UNK     0      76.135  33.117  37.212  0.00  0.00     0.011 A 
HETATM   27  C   UNK     0      76.905  32.531  38.218  0.00  0.00     0.001 A 
HETATM   28  C   UNK     0      76.676  31.206  38.588  0.00  0.00     0.000 A 
HETATM   29  C   UNK     0      75.679  30.466  37.952  0.00  0.00     0.001 A 
HETATM   30  C   UNK     0      74.910  31.052  36.947  0.00  0.00     0.011 A 
ENDBRANCH  24  25
ENDBRANCH  22  23
ENDBRANCH  21  22
ENDBRANCH   6  21
BRANCH   3  31
HETATM   31  O   UNK     0      70.242  36.422  29.440  0.00  0.00    -0.390 OA
HETATM   32  H   UNK     0      69.979  35.649  28.911  0.00  0.00     0.210 HD
ENDBRANCH   3  31
BRANCH   5  33
HETATM   33  O   UNK     0      70.616  33.437  33.175  0.00  0.00    -0.388 OA
HETATM   34  H   UNK     0      69.690  33.724  33.241  0.00  0.00     0.210 HD
ENDBRANCH   5  33
BRANCH   4  35
HETATM   35  O   UNK     0      69.505  35.986  32.200  0.00  0.00    -0.390 OA
HETATM   36  H   UNK     0      69.274  36.730  31.618  0.00  0.00     0.210 HD
ENDBRANCH   4  35
TORSDOF 13
ENDMDL
MODEL 6
REMARK VINA RESULT:      -8.2     22.195     25.534
REMARK  13 active torsions:
REMARK  status: ('A' for Active; 'I' for Inactive)
REMARK    1  A    between atoms: O_2  and  C_16 
REMARK    2  A    between atoms: O_2  and  C_17 
REMARK    3  A    between atoms: O_4  and  C_12 
REMARK    4  A    between atoms: O_5  and  C_13 
REMARK    5  A    between atoms: O_6  and  C_15 
REMARK    6  A    between atoms: O_6  and  C_22 
REMARK    7  A    between atoms: O_7  and  C_14 
REMARK    8  A    between atoms: O_8  and  C_18 
REMARK    9  A    between atoms: O_9  and  C_19 
REMARK   10  A    between atoms: O_10  and  C_20 
REMARK   11  A    between atoms: C_11  and  C_16 
REMARK   12  A    between atoms: C_22  and  C_23 
REMARK   13  A    between atoms: C_24  and  C_25 
ROOT
HETATM    1  O   UNK     0      60.870  19.095  25.420  0.00  0.00    -0.348 OA
HETATM    2  C   UNK     0      60.116  17.951  25.826  0.00  0.00     0.180 C 
HETATM    3  C   UNK     0      60.627  17.442  27.177  0.00  0.00     0.180 C 
HETATM    4  C   UNK     0      62.124  17.144  27.113  0.00  0.00     0.183 C 
HETATM    5  C   UNK     0      62.897  18.314  26.504  0.00  0.00     0.204 C 
HETATM    6  C   UNK     0      62.246  18.795  25.207  0.00  0.00     0.291 C 
ENDROOT
BRANCH   2   7
HETATM    7  C   UNK     0      58.650  18.367  25.897  0.00  0.00     0.205 C 
BRANCH   7   8
HETATM    8  O   UNK     0      57.880  17.239  26.269  0.00  0.00    -0.356 OA
BRANCH   8   9
HETATM    9  C   UNK     0      56.604  17.615  26.778  0.00  0.00     0.290 C 
HETATM   10  O   UNK     0      56.713  18.522  27.881  0.00  0.00    -0.356 OA
HETATM   11  C   UNK     0      57.300  17.945  29.045  0.00  0.00     0.205 C 
HETATM   12  C   UNK     0      56.464  16.772  29.542  0.00  0.00     0.173 C 
HETATM   13  C   UNK     0      56.315  15.715  28.447  0.00  0.00     0.182 C 
HETATM   14  C   UNK     0      55.801  16.361  27.156  0.00  0.00     0.204 C 
BRANCH  12  15
HETATM   15  O   UNK     0      57.060  16.193  30.694  0.00  0.00    -0.391 OA
HETATM   16  H   UNK     0      56.922  15.231  30.644  0.00  0.00     0.210 HD
ENDBRANCH  12  15
BRANCH  13  17
HETATM   17  O   UNK     0      57.581  15.104  28.205  0.00  0.00    -0.390 OA
HETATM   18  H   UNK     0      58.127  15.746  27.719  0.00  0.00     0.210 HD
ENDBRANCH  13  17
BRANCH  14  19
HETATM   19  O   UNK     0      54.438  16.745  27.329  0.00  0.00    -0.388 OA
HETATM   20  H   UNK     0      53.967  16.588  26.494  0.00  0.00     0.210 HD
ENDBRANCH  14  19
ENDBRANCH   8   9
ENDBRANCH   7   8
ENDBRANCH   2   7
BRANCH   6  21
HETATM   21  O   UNK     0      62.935  19.969  24.779  0.00  0.00    -0.355 OA
BRANCH  21  22
HETATM   22  C   UNK     0      62.774  20.183  23.385  0.00  0.00     0.198 C 
BRANCH  22  23
HETATM   23  C   UNK     0      63.579  19.162  22.646  0.00  0.00     0.000 C 
HETATM   24  C   UNK     0      63.034  18.233  21.846  0.00  0.00     0.009 C 
BRANCH  24  25
HETATM   25  C   UNK     0      63.785  17.218  21.087  0.00  0.00    -0.036 A 
HETATM   26  C   UNK     0      64.994  17.564  20.504  0.00  0.00     0.011 A 
HETATM   27  C   UNK     0      65.706  16.603  19.785  0.00  0.00     0.001 A 
HETATM   28  C   UNK     0      65.200  15.309  19.661  0.00  0.00     0.000 A 
HETATM   29  C   UNK     0      63.983  14.976  20.254  0.00  0.00     0.001 A 
HETATM   30  C   UNK     0      63.271  15.937  20.972  0.00  0.00     0.011 A 
ENDBRANCH  24  25
ENDBRANCH  22  23
ENDBRANCH  21  22
ENDBRANCH   6  21
BRANCH   3  31
HETATM   31  O   UNK     0      59.923  16.255  27.530  0.00  0.00    -0.390 OA
HETATM   32  H   UNK     0      60.578  15.549  27.673  0.00  0.00     0.210 HD
ENDBRANCH   3  31
BRANCH   5  33
HETATM   33  O   UNK     0      64.230  17.898  26.209  0.00  0.00    -0.388 OA
HETATM   34  H   UNK     0      64.841  18.479  26.693  0.00  0.00     0.210 HD
ENDBRANCH   5  33
BRANCH   4  35
HETATM   35  O   UNK     0      62.585  16.910  28.445  0.00  0.00    -0.390 OA
HETATM   36  H   UNK     0      62.679  17.776  28.876  0.00  0.00     0.210 HD
ENDBRANCH   4  35
TORSDOF 13
ENDMDL
MODEL 7
REMARK VINA RESULT:      -8.1      2.860      4.747
REMARK  13 active torsions:
REMARK  status: ('A' for Active; 'I' for Inactive)
REMARK    1  A    between atoms: O_2  and  C_16 
REMARK    2  A    between atoms: O_2  and  C_17 
REMARK    3  A    between atoms: O_4  and  C_12 
REMARK    4  A    between atoms: O_5  and  C_13 
REMARK    5  A    between atoms: O_6  and  C_15 
REMARK    6  A    between atoms: O_6  and  C_22 
REMARK    7  A    between atoms: O_7  and  C_14 
REMARK    8  A    between atoms: O_8  and  C_18 
REMARK    9  A    between atoms: O_9  and  C_19 
REMARK   10  A    between atoms: O_10  and  C_20 
REMARK   11  A    between atoms: C_11  and  C_16 
REMARK   12  A    between atoms: C_22  and  C_23 
REMARK   13  A    between atoms: C_24  and  C_25 
ROOT
HETATM    1  O   UNK     0      70.900  34.590  31.275  0.00  0.00    -0.348 OA
HETATM    2  C   UNK     0      70.522  35.653  30.399  0.00  0.00     0.180 C 
HETATM    3  C   UNK     0      69.226  35.293  29.669  0.00  0.00     0.180 C 
HETATM    4  C   UNK     0      69.373  33.967  28.924  0.00  0.00     0.183 C 
HETATM    5  C   UNK     0      69.952  32.882  29.834  0.00  0.00     0.204 C 
HETATM    6  C   UNK     0      71.190  33.383  30.577  0.00  0.00     0.291 C 
ENDROOT
BRANCH   2   7
HETATM    7  C   UNK     0      70.363  36.913  31.244  0.00  0.00     0.205 C 
BRANCH   7   8
HETATM    8  O   UNK     0      71.367  37.838  30.867  0.00  0.00    -0.356 OA
BRANCH   8   9
HETATM    9  C   UNK     0      72.582  37.617  31.577  0.00  0.00     0.290 C 
HETATM   10  O   UNK     0      72.806  38.616  32.578  0.00  0.00    -0.356 OA
HETATM   11  C   UNK     0      73.045  39.918  32.048  0.00  0.00     0.205 C 
HETATM   12  C   UNK     0      74.285  39.918  31.164  0.00  0.00     0.173 C 
HETATM   13  C   UNK     0      74.137  38.905  30.027  0.00  0.00     0.182 C 
HETATM   14  C   UNK     0      73.756  37.532  30.590  0.00  0.00     0.204 C 
BRANCH  12  15
HETATM   15  O   UNK     0      74.512  41.214  30.628  0.00  0.00    -0.391 OA
HETATM   16  H   UNK     0      74.290  41.184  29.681  0.00  0.00     0.210 HD
ENDBRANCH  12  15
BRANCH  13  17
HETATM   17  O   UNK     0      73.122  39.351  29.128  0.00  0.00    -0.390 OA
HETATM   18  H   UNK     0      73.248  40.307  28.996  0.00  0.00     0.210 HD
ENDBRANCH  13  17
BRANCH  14  19
HETATM   19  O   UNK     0      74.874  36.978  31.281  0.00  0.00    -0.388 OA
HETATM   20  H   UNK     0      74.654  36.068  31.541  0.00  0.00     0.210 HD
ENDBRANCH  14  19
ENDBRANCH   8   9
ENDBRANCH   7   8
ENDBRANCH   2   7
BRANCH   6  21
HETATM   21  O   UNK     0      71.584  32.372  31.504  0.00  0.00    -0.355 OA
BRANCH  21  22
HETATM   22  C   UNK     0      70.993  32.580  32.778  0.00  0.00     0.198 C 
BRANCH  22  23
HETATM   23  C   UNK     0      72.080  32.728  33.794  0.00  0.00     0.000 C 
HETATM   24  C   UNK     0      73.296  33.217  33.506  0.00  0.00     0.009 C 
BRANCH  24  25
HETATM   25  C   UNK     0      74.392  33.394  34.474  0.00  0.00    -0.036 A 
HETATM   26  C   UNK     0      75.510  34.127  34.109  0.00  0.00     0.011 A 
HETATM   27  C   UNK     0      76.548  34.296  35.026  0.00  0.00     0.001 A 
HETATM   28  C   UNK     0      76.453  33.729  36.296  0.00  0.00     0.000 A 
HETATM   29  C   UNK     0      75.322  32.994  36.651  0.00  0.00     0.001 A 
HETATM   30  C   UNK     0      74.284  32.826  35.734  0.00  0.00     0.011 A 
ENDBRANCH  24  25
ENDBRANCH  22  23
ENDBRANCH  21  22
ENDBRANCH   6  21
BRANCH   3  31
HETATM   31  O   UNK     0      68.906  36.324  28.738  0.00  0.00    -0.390 OA
HETATM   32  H   UNK     0      69.241  37.165  29.096  0.00  0.00     0.210 HD
ENDBRANCH   3  31
BRANCH   5  33
HETATM   33  O   UNK     0      70.329  31.754  29.045  0.00  0.00    -0.388 OA
HETATM   34  H   UNK     0      71.059  31.299  29.497  0.00  0.00     0.210 HD
ENDBRANCH   5  33
BRANCH   4  35
HETATM   35  O   UNK     0      68.078  33.567  28.472  0.00  0.00    -0.390 OA
HETATM   36  H   UNK     0      67.975  33.891  27.561  0.00  0.00     0.210 HD
ENDBRANCH   4  35
TORSDOF 13
ENDMDL
MODEL 8
REMARK VINA RESULT:      -8.0      1.609      3.217
REMARK  13 active torsions:
REMARK  status: ('A' for Active; 'I' for Inactive)
REMARK    1  A    between atoms: O_2  and  C_16 
REMARK    2  A    between atoms: O_2  and  C_17 
REMARK    3  A    between atoms: O_4  and  C_12 
REMARK    4  A    between atoms: O_5  and  C_13 
REMARK    5  A    between atoms: O_6  and  C_15 
REMARK    6  A    between atoms: O_6  and  C_22 
REMARK    7  A    between atoms: O_7  and  C_14 
REMARK    8  A    between atoms: O_8  and  C_18 
REMARK    9  A    between atoms: O_9  and  C_19 
REMARK   10  A    between atoms: O_10  and  C_20 
REMARK   11  A    between atoms: C_11  and  C_16 
REMARK   12  A    between atoms: C_22  and  C_23 
REMARK   13  A    between atoms: C_24  and  C_25 
ROOT
HETATM    1  O   UNK     0      73.228  33.886  33.368  0.00  0.00    -0.348 OA
HETATM    2  C   UNK     0      73.835  35.075  32.859  0.00  0.00     0.180 C 
HETATM    3  C   UNK     0      74.487  34.788  31.503  0.00  0.00     0.180 C 
HETATM    4  C   UNK     0      75.490  33.640  31.616  0.00  0.00     0.183 C 
HETATM    5  C   UNK     0      74.875  32.436  32.330  0.00  0.00     0.204 C 
HETATM    6  C   UNK     0      74.177  32.854  33.623  0.00  0.00     0.291 C 
ENDROOT
BRANCH   2   7
HETATM    7  C   UNK     0      72.747  36.138  32.749  0.00  0.00     0.205 C 
BRANCH   7   8
HETATM    8  O   UNK     0      73.245  37.214  31.976  0.00  0.00    -0.356 OA
BRANCH   8   9
HETATM    9  C   UNK     0      72.194  38.013  31.443  0.00  0.00     0.290 C 
HETATM   10  O   UNK     0      71.364  37.274  30.539  0.00  0.00    -0.356 OA
HETATM   11  C   UNK     0      72.029  36.882  29.340  0.00  0.00     0.205 C 
HETATM   12  C   UNK     0      72.512  38.104  28.570  0.00  0.00     0.173 C 
HETATM   13  C   UNK     0      73.445  38.952  29.435  0.00  0.00     0.182 C 
HETATM   14  C   UNK     0      72.777  39.269  30.777  0.00  0.00     0.204 C 
BRANCH  12  15
HETATM   15  O   UNK     0      73.184  37.707  27.383  0.00  0.00    -0.391 OA
HETATM   16  H   UNK     0      74.140  37.780  27.548  0.00  0.00     0.210 HD
ENDBRANCH  12  15
BRANCH  13  17
HETATM   17  O   UNK     0      74.658  38.236  29.663  0.00  0.00    -0.390 OA
HETATM   18  H   UNK     0      75.194  38.305  28.854  0.00  0.00     0.210 HD
ENDBRANCH  13  17
BRANCH  14  19
HETATM   19  O   UNK     0      71.710  40.193  30.568  0.00  0.00    -0.388 OA
HETATM   20  H   UNK     0      71.606  40.330  29.612  0.00  0.00     0.210 HD
ENDBRANCH  14  19
ENDBRANCH   8   9
ENDBRANCH   7   8
ENDBRANCH   2   7
BRANCH   6  21
HETATM   21  O   UNK     0      73.512  31.708  34.153  0.00  0.00    -0.355 OA
BRANCH  21  22
HETATM   22  C   UNK     0      73.328  31.820  35.556  0.00  0.00     0.198 C 
BRANCH  22  23
HETATM   23  C   UNK     0      74.665  31.744  36.223  0.00  0.00     0.000 C 
HETATM   24  C   UNK     0      75.116  32.677  37.076  0.00  0.00     0.009 C 
BRANCH  24  25
HETATM   25  C   UNK     0      76.416  32.637  37.767  0.00  0.00    -0.036 A 
HETATM   26  C   UNK     0      77.229  33.760  37.750  0.00  0.00     0.011 A 
HETATM   27  C   UNK     0      78.461  33.723  38.404  0.00  0.00     0.001 A 
HETATM   28  C   UNK     0      78.862  32.564  39.068  0.00  0.00     0.000 A 
HETATM   29  C   UNK     0      78.033  31.442  39.078  0.00  0.00     0.001 A 
HETATM   30  C   UNK     0      76.802  31.479  38.424  0.00  0.00     0.011 A 
ENDBRANCH  24  25
ENDBRANCH  22  23
ENDBRANCH  21  22
ENDBRANCH   6  21
BRANCH   3  31
HETATM   31  O   UNK     0      75.159  35.959  31.047  0.00  0.00    -0.390 OA
HETATM   32  H   UNK     0      74.908  36.106  30.118  0.00  0.00     0.210 HD
ENDBRANCH   3  31
BRANCH   5  33
HETATM   33  O   UNK     0      75.906  31.504  32.657  0.00  0.00    -0.388 OA
HETATM   34  H   UNK     0      76.635  31.994  33.072  0.00  0.00     0.210 HD
ENDBRANCH   5  33
BRANCH   4  35
HETATM   35  O   UNK     0      75.878  33.263  30.294  0.00  0.00    -0.390 OA
HETATM   36  H   UNK     0      76.501  33.936  29.970  0.00  0.00     0.210 HD
ENDBRANCH   4  35
TORSDOF 13
ENDMDL
MODEL 9
REMARK VINA RESULT:      -8.0      1.946      2.543
REMARK  13 active torsions:
REMARK  status: ('A' for Active; 'I' for Inactive)
REMARK    1  A    between atoms: O_2  and  C_16 
REMARK    2  A    between atoms: O_2  and  C_17 
REMARK    3  A    between atoms: O_4  and  C_12 
REMARK    4  A    between atoms: O_5  and  C_13 
REMARK    5  A    between atoms: O_6  and  C_15 
REMARK    6  A    between atoms: O_6  and  C_22 
REMARK    7  A    between atoms: O_7  and  C_14 
REMARK    8  A    between atoms: O_8  and  C_18 
REMARK    9  A    between atoms: O_9  and  C_19 
REMARK   10  A    between atoms: O_10  and  C_20 
REMARK   11  A    between atoms: C_11  and  C_16 
REMARK   12  A    between atoms: C_22  and  C_23 
REMARK   13  A    between atoms: C_24  and  C_25 
ROOT
HETATM    1  O   UNK     0      75.388  34.542  33.743  0.00  0.00    -0.348 OA
HETATM    2  C   UNK     0      75.383  35.260  32.508  0.00  0.00     0.180 C 
HETATM    3  C   UNK     0      74.623  34.463  31.444  0.00  0.00     0.180 C 
HETATM    4  C   UNK     0      75.217  33.064  31.286  0.00  0.00     0.183 C 
HETATM    5  C   UNK     0      75.384  32.378  32.643  0.00  0.00     0.204 C 
HETATM    6  C   UNK     0      76.074  33.297  33.649  0.00  0.00     0.291 C 
ENDROOT
BRANCH   2   7
HETATM    7  C   UNK     0      74.737  36.618  32.766  0.00  0.00     0.205 C 
BRANCH   7   8
HETATM    8  O   UNK     0      75.072  37.486  31.699  0.00  0.00    -0.356 OA
BRANCH   8   9
HETATM    9  C   UNK     0      74.249  38.648  31.685  0.00  0.00     0.290 C 
HETATM   10  O   UNK     0      72.859  38.319  31.576  0.00  0.00    -0.356 OA
HETATM   11  C   UNK     0      72.504  37.732  30.326  0.00  0.00     0.205 C 
HETATM   12  C   UNK     0      72.806  38.687  29.179  0.00  0.00     0.173 C 
HETATM   13  C   UNK     0      74.285  39.077  29.176  0.00  0.00     0.182 C 
HETATM   14  C   UNK     0      74.697  39.593  30.560  0.00  0.00     0.204 C 
BRANCH  12  15
HETATM   15  O   UNK     0      72.462  38.093  27.936  0.00  0.00    -0.391 OA
HETATM   16  H   UNK     0      72.505  37.127  28.050  0.00  0.00     0.210 HD
ENDBRANCH  12  15
BRANCH  13  17
HETATM   17  O   UNK     0      75.072  37.937  28.838  0.00  0.00    -0.390 OA
HETATM   18  H   UNK     0      74.511  37.339  28.315  0.00  0.00     0.210 HD
ENDBRANCH  13  17
BRANCH  14  19
HETATM   19  O   UNK     0      74.097  40.866  30.788  0.00  0.00    -0.388 OA
HETATM   20  H   UNK     0      73.215  40.868  30.379  0.00  0.00     0.210 HD
ENDBRANCH  14  19
ENDBRANCH   8   9
ENDBRANCH   7   8
ENDBRANCH   2   7
BRANCH   6  21
HETATM   21  O   UNK     0      76.065  32.644  34.918  0.00  0.00    -0.355 OA
BRANCH  21  22
HETATM   22  C   UNK     0      75.419  33.437  35.902  0.00  0.00     0.198 C 
BRANCH  22  23
HETATM   23  C   UNK     0      76.427  33.845  36.929  0.00  0.00     0.000 C 
HETATM   24  C   UNK     0      77.314  32.995  37.468  0.00  0.00     0.009 C 
BRANCH  24  25
HETATM   25  C   UNK     0      78.333  33.353  38.470  0.00  0.00    -0.036 A 
HETATM   26  C   UNK     0      79.375  32.475  38.723  0.00  0.00     0.011 A 
HETATM   27  C   UNK     0      80.340  32.814  39.671  0.00  0.00     0.001 A 
HETATM   28  C   UNK     0      80.251  34.027  40.353  0.00  0.00     0.000 A 
HETATM   29  C   UNK     0      79.198  34.901  40.088  0.00  0.00     0.001 A 
HETATM   30  C   UNK     0      78.232  34.562  39.139  0.00  0.00     0.011 A 
ENDBRANCH  24  25
ENDBRANCH  22  23
ENDBRANCH  21  22
ENDBRANCH   6  21
BRANCH   3  31
HETATM   31  O   UNK     0      74.697  35.151  30.198  0.00  0.00    -0.390 OA
HETATM   32  H   UNK     0      73.789  35.293  29.879  0.00  0.00     0.210 HD
ENDBRANCH   3  31
BRANCH   5  33
HETATM   33  O   UNK     0      76.183  31.205  32.484  0.00  0.00    -0.388 OA
HETATM   34  H   UNK     0      76.981  31.450  31.987  0.00  0.00     0.210 HD
ENDBRANCH   5  33
BRANCH   4  35
HETATM   35  O   UNK     0      74.329  32.297  30.471  0.00  0.00    -0.390 OA
HETATM   36  H   UNK     0      73.932  31.614  31.036  0.00  0.00     0.210 HD
ENDBRANCH   4  35
TORSDOF 13
ENDMDL
