MODEL 1
REMARK VINA RESULT:      -8.5      0.000      0.000
REMARK  12 active torsions:
REMARK  status: ('A' for Active; 'I' for Inactive)
REMARK    1  A    between atoms: O_1  and  C_10 
REMARK    2  A    between atoms: O_2  and  C_17 
REMARK    3  A    between atoms: O_3  and  C_20 
REMARK    4  A    between atoms: O_4  and  C_27 
REMARK    5  A    between atoms: O_6  and  C_29 
REMARK    6  A    between atoms: O_7  and  C_28 
REMARK    7  A    between atoms: O_8  and  C_33 
REMARK    8  A    between atoms: C_11  and  C_20 
REMARK    9  A    between atoms: C_20  and  C_28 
REMARK   10  A    between atoms: C_28  and  C_31 
REMARK   11  A    between atoms: C_31  and  C_32 
REMARK   12  A    between atoms: C_32  and  C_33 
ROOT
HETATM    1  O   UNK     0       7.663  41.247  21.691  0.00  0.00    -0.384 OA
HETATM    2  H   UNK     0       7.518  41.311  20.736  0.00  0.00     0.211 HD
ENDROOT
BRANCH   1   3
HETATM    3  C   UNK     0       7.759  42.558  22.294  0.00  0.00     0.090 C 
HETATM    4  C   UNK     0       8.417  43.543  21.293  0.00  0.00    -0.000 C 
HETATM    5  C   UNK     0       9.831  42.918  21.159  0.00  0.00     0.034 C 
HETATM    6  C   UNK     0       7.604  43.534  19.992  0.00  0.00     0.045 C 
HETATM    7  C   UNK     0       8.506  44.995  21.840  0.00  0.00     0.019 C 
HETATM    8  C   UNK     0      10.173  42.471  22.599  0.00  0.00     0.012 C 
HETATM    9  C   UNK     0       8.840  42.430  23.377  0.00  0.00     0.044 C 
HETATM   10  C   UNK     0       6.132  43.923  20.243  0.00  0.00     0.128 C 
HETATM   11  C   UNK     0       5.421  43.093  21.375  0.00  0.00     0.055 C 
HETATM   12  C   UNK     0       3.948  43.594  21.713  0.00  0.00    -0.021 C 
HETATM   13  C   UNK     0       6.337  42.972  22.611  0.00  0.00    -0.034 C 
HETATM   14  C   UNK     0       3.493  43.040  23.094  0.00  0.00     0.071 C 
HETATM   15  C   UNK     0       2.922  43.156  20.603  0.00  0.00     0.045 C 
HETATM   16  C   UNK     0       3.902  45.146  21.794  0.00  0.00     0.017 C 
HETATM   17  C   UNK     0       3.212  41.527  23.134  0.00  0.00     0.047 C 
HETATM   18  C   UNK     0       4.499  43.376  24.175  0.00  0.00     0.154 C 
HETATM   19  C   UNK     0       2.717  40.958  21.809  0.00  0.00     0.147 C 
HETATM   20  C   UNK     0       1.985  42.004  20.980  0.00  0.00     0.147 C 
HETATM   21  O   UNK     0       4.155  43.736  25.298  0.00  0.00    -0.293 OA
HETATM   22  C   UNK     0       5.929  43.163  23.874  0.00  0.00     0.057 C 
BRANCH   5  23
HETATM   23  C   UNK     0      10.908  43.799  20.541  0.00  0.00     0.084 C 
HETATM   24  C   UNK     0      10.264  45.034  19.892  0.00  0.00     0.049 C 
BRANCH  23  25
HETATM   25  O   UNK     0      11.769  44.264  21.589  0.00  0.00    -0.387 OA
HETATM   26  H   UNK     0      11.325  44.131  22.443  0.00  0.00     0.210 HD
ENDBRANCH  23  25
BRANCH  23  27
HETATM   27  C   UNK     0      11.776  43.028  19.509  0.00  0.00     0.152 C 
BRANCH  27  28
HETATM   28  O   UNK     0      11.770  41.632  19.826  0.00  0.00    -0.393 OA
HETATM   29  H   UNK     0      11.519  41.151  19.019  0.00  0.00     0.210 HD
ENDBRANCH  27  28
BRANCH  27  30
HETATM   30  C   UNK     0      13.240  43.502  19.434  0.00  0.00     0.037 C 
BRANCH  30  31
HETATM   31  C   UNK     0      14.231  42.368  19.754  0.00  0.00     0.040 C 
BRANCH  31  32
HETATM   32  C   UNK     0      14.821  42.417  21.180  0.00  0.00     0.051 C 
HETATM   33  C   UNK     0      15.934  41.372  21.310  0.00  0.00     0.045 C 
HETATM   34  C   UNK     0      15.361  43.802  21.544  0.00  0.00     0.045 C 
BRANCH  32  35
HETATM   35  O   UNK     0      13.788  42.076  22.106  0.00  0.00    -0.391 OA
HETATM   36  H   UNK     0      13.332  42.890  22.376  0.00  0.00     0.210 HD
ENDBRANCH  32  35
ENDBRANCH  31  32
ENDBRANCH  30  31
ENDBRANCH  27  30
ENDBRANCH  23  27
ENDBRANCH   5  23
BRANCH  10  37
HETATM   37  O   UNK     0       5.442  43.777  19.005  0.00  0.00    -0.395 OA
HETATM   38  H   UNK     0       5.973  44.212  18.317  0.00  0.00     0.210 HD
ENDBRANCH  10  37
BRANCH  19  39
HETATM   39  O   UNK     0       1.864  39.849  22.076  0.00  0.00    -0.393 OA
HETATM   40  H   UNK     0       1.511  39.525  21.231  0.00  0.00     0.210 HD
ENDBRANCH  19  39
BRANCH  20  41
HETATM   41  O   UNK     0       0.874  42.527  21.709  0.00  0.00    -0.393 OA
HETATM   42  H   UNK     0       0.064  42.269  21.238  0.00  0.00     0.210 HD
ENDBRANCH  20  41
ENDBRANCH   1   3
TORSDOF 12
ENDMDL
MODEL 2
REMARK VINA RESULT:      -8.3      2.169      8.257
REMARK  12 active torsions:
REMARK  status: ('A' for Active; 'I' for Inactive)
REMARK    1  A    between atoms: O_1  and  C_10 
REMARK    2  A    between atoms: O_2  and  C_17 
REMARK    3  A    between atoms: O_3  and  C_20 
REMARK    4  A    between atoms: O_4  and  C_27 
REMARK    5  A    between atoms: O_6  and  C_29 
REMARK    6  A    between atoms: O_7  and  C_28 
REMARK    7  A    between atoms: O_8  and  C_33 
REMARK    8  A    between atoms: C_11  and  C_20 
REMARK    9  A    between atoms: C_20  and  C_28 
REMARK   10  A    between atoms: C_28  and  C_31 
REMARK   11  A    between atoms: C_31  and  C_32 
REMARK   12  A    between atoms: C_32  and  C_33 
ROOT
HETATM    1  O   UNK     0       7.240  41.850  23.317  0.00  0.00    -0.384 OA
HETATM    2  H   UNK     0       7.338  42.480  24.045  0.00  0.00     0.211 HD
ENDROOT
BRANCH   1   3
HETATM    3  C   UNK     0       7.357  42.509  22.035  0.00  0.00     0.090 C 
HETATM    4  C   UNK     0       6.178  43.499  21.850  0.00  0.00    -0.000 C 
HETATM    5  C   UNK     0       4.977  42.517  21.831  0.00  0.00     0.034 C 
HETATM    6  C   UNK     0       6.168  44.475  23.034  0.00  0.00     0.045 C 
HETATM    7  C   UNK     0       6.258  44.297  20.519  0.00  0.00     0.019 C 
HETATM    8  C   UNK     0       5.499  41.313  21.014  0.00  0.00     0.012 C 
HETATM    9  C   UNK     0       7.039  41.430  20.991  0.00  0.00     0.044 C 
HETATM   10  C   UNK     0       7.503  45.241  23.145  0.00  0.00     0.128 C 
HETATM   11  C   UNK     0       8.782  44.325  23.161  0.00  0.00     0.055 C 
HETATM   12  C   UNK     0      10.154  45.134  23.142  0.00  0.00    -0.021 C 
HETATM   13  C   UNK     0       8.683  43.241  22.068  0.00  0.00    -0.034 C 
HETATM   14  C   UNK     0      11.325  44.200  22.720  0.00  0.00     0.071 C 
HETATM   15  C   UNK     0      10.466  45.772  24.546  0.00  0.00     0.045 C 
HETATM   16  C   UNK     0      10.089  46.297  22.112  0.00  0.00     0.017 C 
HETATM   17  C   UNK     0      11.725  43.138  23.760  0.00  0.00     0.047 C 
HETATM   18  C   UNK     0      11.024  43.506  21.408  0.00  0.00     0.154 C 
HETATM   19  C   UNK     0      11.487  43.570  25.203  0.00  0.00     0.147 C 
HETATM   20  C   UNK     0      11.563  45.082  25.363  0.00  0.00     0.147 C 
HETATM   21  O   UNK     0      11.879  43.356  20.538  0.00  0.00    -0.293 OA
HETATM   22  C   UNK     0       9.682  42.917  21.234  0.00  0.00     0.057 C 
BRANCH   5  23
HETATM   23  C   UNK     0       3.658  43.064  21.301  0.00  0.00     0.084 C 
HETATM   24  C   UNK     0       3.421  44.479  21.854  0.00  0.00     0.049 C 
BRANCH  23  25
HETATM   25  O   UNK     0       3.753  43.172  19.875  0.00  0.00    -0.387 OA
HETATM   26  H   UNK     0       4.135  44.036  19.649  0.00  0.00     0.210 HD
ENDBRANCH  23  25
BRANCH  23  27
HETATM   27  C   UNK     0       2.460  42.136  21.638  0.00  0.00     0.152 C 
BRANCH  27  28
HETATM   28  O   UNK     0       1.300  42.572  20.921  0.00  0.00    -0.393 OA
HETATM   29  H   UNK     0       1.590  43.240  20.277  0.00  0.00     0.210 HD
ENDBRANCH  27  28
BRANCH  27  30
HETATM   30  C   UNK     0       2.108  42.076  23.137  0.00  0.00     0.037 C 
BRANCH  30  31
HETATM   31  C   UNK     0       2.721  40.842  23.825  0.00  0.00     0.040 C 
BRANCH  31  32
HETATM   32  C   UNK     0       3.548  41.158  25.089  0.00  0.00     0.051 C 
HETATM   33  C   UNK     0       3.671  42.677  25.255  0.00  0.00     0.045 C 
HETATM   34  C   UNK     0       2.944  40.543  26.354  0.00  0.00     0.045 C 
BRANCH  32  35
HETATM   35  O   UNK     0       4.863  40.628  24.911  0.00  0.00    -0.391 OA
HETATM   36  H   UNK     0       5.324  40.650  25.766  0.00  0.00     0.210 HD
ENDBRANCH  32  35
ENDBRANCH  31  32
ENDBRANCH  30  31
ENDBRANCH  27  30
ENDBRANCH  23  27
ENDBRANCH   5  23
BRANCH  10  37
HETATM   37  O   UNK     0       7.437  46.031  24.329  0.00  0.00    -0.395 OA
HETATM   38  H   UNK     0       7.617  45.447  25.085  0.00  0.00     0.210 HD
ENDBRANCH  10  37
BRANCH  19  39
HETATM   39  O   UNK     0      12.451  42.933  26.036  0.00  0.00    -0.393 OA
HETATM   40  H   UNK     0      12.919  42.266  25.507  0.00  0.00     0.210 HD
ENDBRANCH  19  39
BRANCH  20  41
HETATM   41  O   UNK     0      12.837  45.565  24.933  0.00  0.00    -0.393 OA
HETATM   42  H   UNK     0      13.035  45.148  24.077  0.00  0.00     0.210 HD
ENDBRANCH  20  41
ENDBRANCH   1   3
TORSDOF 12
ENDMDL
MODEL 3
REMARK VINA RESULT:      -8.3      2.264      4.605
REMARK  12 active torsions:
REMARK  status: ('A' for Active; 'I' for Inactive)
REMARK    1  A    between atoms: O_1  and  C_10 
REMARK    2  A    between atoms: O_2  and  C_17 
REMARK    3  A    between atoms: O_3  and  C_20 
REMARK    4  A    between atoms: O_4  and  C_27 
REMARK    5  A    between atoms: O_6  and  C_29 
REMARK    6  A    between atoms: O_7  and  C_28 
REMARK    7  A    between atoms: O_8  and  C_33 
REMARK    8  A    between atoms: C_11  and  C_20 
REMARK    9  A    between atoms: C_20  and  C_28 
REMARK   10  A    between atoms: C_28  and  C_31 
REMARK   11  A    between atoms: C_31  and  C_32 
REMARK   12  A    between atoms: C_32  and  C_33 
ROOT
HETATM    1  O   UNK     0       5.181  45.588  22.979  0.00  0.00    -0.384 OA
HETATM    2  H   UNK     0       5.298  45.339  23.907  0.00  0.00     0.211 HD
ENDROOT
BRANCH   1   3
HETATM    3  C   UNK     0       5.398  44.459  22.102  0.00  0.00     0.090 C 
HETATM    4  C   UNK     0       6.829  44.528  21.509  0.00  0.00    -0.000 C 
HETATM    5  C   UNK     0       6.733  45.832  20.675  0.00  0.00     0.034 C 
HETATM    6  C   UNK     0       7.835  44.598  22.666  0.00  0.00     0.045 C 
HETATM    7  C   UNK     0       7.168  43.315  20.598  0.00  0.00     0.019 C 
HETATM    8  C   UNK     0       5.320  45.767  20.051  0.00  0.00     0.012 C 
HETATM    9  C   UNK     0       4.524  44.726  20.869  0.00  0.00     0.044 C 
HETATM   10  C   UNK     0       7.700  43.383  23.606  0.00  0.00     0.128 C 
HETATM   11  C   UNK     0       6.238  43.119  24.126  0.00  0.00     0.055 C 
HETATM   12  C   UNK     0       6.091  41.787  24.987  0.00  0.00    -0.021 C 
HETATM   13  C   UNK     0       5.225  43.227  22.967  0.00  0.00    -0.034 C 
HETATM   14  C   UNK     0       4.595  41.370  25.084  0.00  0.00     0.071 C 
HETATM   15  C   UNK     0       6.685  41.968  26.433  0.00  0.00     0.045 C 
HETATM   16  C   UNK     0       6.861  40.614  24.317  0.00  0.00     0.017 C 
HETATM   17  C   UNK     0       3.715  42.280  25.959  0.00  0.00     0.047 C 
HETATM   18  C   UNK     0       3.969  41.263  23.709  0.00  0.00     0.154 C 
HETATM   19  C   UNK     0       4.467  42.943  27.108  0.00  0.00     0.147 C 
HETATM   20  C   UNK     0       5.658  42.111  27.562  0.00  0.00     0.147 C 
HETATM   21  O   UNK     0       3.194  40.356  23.414  0.00  0.00    -0.293 OA
HETATM   22  C   UNK     0       4.237  42.348  22.745  0.00  0.00     0.057 C 
BRANCH   5  23
HETATM   23  C   UNK     0       7.826  46.061  19.641  0.00  0.00     0.084 C 
HETATM   24  C   UNK     0       7.489  45.300  18.348  0.00  0.00     0.049 C 
BRANCH  23  25
HETATM   25  O   UNK     0       7.860  47.458  19.319  0.00  0.00    -0.387 OA
HETATM   26  H   UNK     0       8.675  47.845  19.681  0.00  0.00     0.210 HD
ENDBRANCH  23  25
BRANCH  23  27
HETATM   27  C   UNK     0       9.229  45.651  20.168  0.00  0.00     0.152 C 
BRANCH  27  28
HETATM   28  O   UNK     0       9.869  46.787  20.760  0.00  0.00    -0.393 OA
HETATM   29  H   UNK     0       9.192  47.275  21.258  0.00  0.00     0.210 HD
ENDBRANCH  27  28
BRANCH  27  30
HETATM   30  C   UNK     0      10.166  45.074  19.090  0.00  0.00     0.037 C 
BRANCH  30  31
HETATM   31  C   UNK     0      10.456  43.579  19.319  0.00  0.00     0.040 C 
BRANCH  31  32
HETATM   32  C   UNK     0      11.916  43.262  19.706  0.00  0.00     0.051 C 
HETATM   33  C   UNK     0      12.870  43.976  18.741  0.00  0.00     0.045 C 
HETATM   34  C   UNK     0      12.240  43.661  21.148  0.00  0.00     0.045 C 
BRANCH  32  35
HETATM   35  O   UNK     0      12.124  41.855  19.568  0.00  0.00    -0.391 OA
HETATM   36  H   UNK     0      12.949  41.710  19.076  0.00  0.00     0.210 HD
ENDBRANCH  32  35
ENDBRANCH  31  32
ENDBRANCH  30  31
ENDBRANCH  27  30
ENDBRANCH  23  27
ENDBRANCH   5  23
BRANCH  10  37
HETATM   37  O   UNK     0       8.590  43.596  24.698  0.00  0.00    -0.395 OA
HETATM   38  H   UNK     0       8.054  43.672  25.506  0.00  0.00     0.210 HD
ENDBRANCH  10  37
BRANCH  19  39
HETATM   39  O   UNK     0       3.563  43.148  28.190  0.00  0.00    -0.393 OA
HETATM   40  H   UNK     0       2.767  42.615  28.027  0.00  0.00     0.210 HD
ENDBRANCH  19  39
BRANCH  20  41
HETATM   41  O   UNK     0       5.230  40.811  27.969  0.00  0.00    -0.393 OA
HETATM   42  H   UNK     0       4.392  40.914  28.451  0.00  0.00     0.210 HD
ENDBRANCH  20  41
ENDBRANCH   1   3
TORSDOF 12
ENDMDL
MODEL 4
REMARK VINA RESULT:      -8.2      1.749      2.845
REMARK  12 active torsions:
REMARK  status: ('A' for Active; 'I' for Inactive)
REMARK    1  A    between atoms: O_1  and  C_10 
REMARK    2  A    between atoms: O_2  and  C_17 
REMARK    3  A    between atoms: O_3  and  C_20 
REMARK    4  A    between atoms: O_4  and  C_27 
REMARK    5  A    between atoms: O_6  and  C_29 
REMARK    6  A    between atoms: O_7  and  C_28 
REMARK    7  A    between atoms: O_8  and  C_33 
REMARK    8  A    between atoms: C_11  and  C_20 
REMARK    9  A    between atoms: C_20  and  C_28 
REMARK   10  A    between atoms: C_28  and  C_31 
REMARK   11  A    between atoms: C_31  and  C_32 
REMARK   12  A    between atoms: C_32  and  C_33 
ROOT
HETATM    1  O   UNK     0       7.559  40.519  23.526  0.00  0.00    -0.384 OA
HETATM    2  H   UNK     0       8.290  39.967  23.837  0.00  0.00     0.211 HD
ENDROOT
BRANCH   1   3
HETATM    3  C   UNK     0       7.774  41.909  23.859  0.00  0.00     0.090 C 
HETATM    4  C   UNK     0       8.760  42.541  22.842  0.00  0.00    -0.000 C 
HETATM    5  C   UNK     0      10.044  41.722  23.138  0.00  0.00     0.034 C 
HETATM    6  C   UNK     0       8.200  42.337  21.427  0.00  0.00     0.045 C 
HETATM    7  C   UNK     0       9.002  44.056  23.091  0.00  0.00     0.019 C 
HETATM    8  C   UNK     0      10.043  41.580  24.678  0.00  0.00     0.012 C 
HETATM    9  C   UNK     0       8.606  41.896  25.149  0.00  0.00     0.044 C 
HETATM   10  C   UNK     0       6.798  42.962  21.279  0.00  0.00     0.128 C 
HETATM   11  C   UNK     0       5.764  42.518  22.379  0.00  0.00     0.055 C 
HETATM   12  C   UNK     0       4.365  43.272  22.290  0.00  0.00    -0.021 C 
HETATM   13  C   UNK     0       6.411  42.568  23.779  0.00  0.00    -0.034 C 
HETATM   14  C   UNK     0       3.583  43.118  23.627  0.00  0.00     0.071 C 
HETATM   15  C   UNK     0       3.491  42.727  21.100  0.00  0.00     0.045 C 
HETATM   16  C   UNK     0       4.577  44.793  22.045  0.00  0.00     0.017 C 
HETATM   17  C   UNK     0       3.040  41.706  23.911  0.00  0.00     0.047 C 
HETATM   18  C   UNK     0       4.425  43.561  24.805  0.00  0.00     0.154 C 
HETATM   19  C   UNK     0       2.697  40.915  22.653  0.00  0.00     0.147 C 
HETATM   20  C   UNK     0       2.316  41.826  21.495  0.00  0.00     0.147 C 
HETATM   21  O   UNK     0       3.955  44.214  25.734  0.00  0.00    -0.293 OA
HETATM   22  C   UNK     0       5.826  43.099  24.862  0.00  0.00     0.057 C 
BRANCH   5  23
HETATM   23  C   UNK     0      11.350  42.286  22.597  0.00  0.00     0.084 C 
HETATM   24  C   UNK     0      11.489  43.762  23.004  0.00  0.00     0.049 C 
BRANCH  23  25
HETATM   25  O   UNK     0      12.436  41.571  23.201  0.00  0.00    -0.387 OA
HETATM   26  H   UNK     0      12.090  40.764  23.616  0.00  0.00     0.210 HD
ENDBRANCH  23  25
BRANCH  23  27
HETATM   27  C   UNK     0      11.464  42.130  21.056  0.00  0.00     0.152 C 
BRANCH  27  28
HETATM   28  O   UNK     0      12.600  41.318  20.739  0.00  0.00    -0.393 OA
HETATM   29  H   UNK     0      12.412  40.871  19.896  0.00  0.00     0.210 HD
ENDBRANCH  27  28
BRANCH  27  30
HETATM   30  C   UNK     0      11.592  43.462  20.292  0.00  0.00     0.037 C 
BRANCH  30  31
HETATM   31  C   UNK     0      10.645  43.526  19.081  0.00  0.00     0.040 C 
BRANCH  31  32
HETATM   32  C   UNK     0       9.993  44.906  18.850  0.00  0.00     0.051 C 
HETATM   33  C   UNK     0       8.598  44.719  18.244  0.00  0.00     0.045 C 
HETATM   34  C   UNK     0       9.895  45.730  20.136  0.00  0.00     0.045 C 
BRANCH  32  35
HETATM   35  O   UNK     0      10.788  45.628  17.909  0.00  0.00    -0.391 OA
HETATM   36  H   UNK     0      10.356  46.480  17.727  0.00  0.00     0.210 HD
ENDBRANCH  32  35
ENDBRANCH  31  32
ENDBRANCH  30  31
ENDBRANCH  27  30
ENDBRANCH  23  27
ENDBRANCH   5  23
BRANCH  10  37
HETATM   37  O   UNK     0       6.323  42.625  19.979  0.00  0.00    -0.395 OA
HETATM   38  H   UNK     0       6.704  41.763  19.739  0.00  0.00     0.210 HD
ENDBRANCH  10  37
BRANCH  19  39
HETATM   39  O   UNK     0       1.630  40.019  22.953  0.00  0.00    -0.393 OA
HETATM   40  H   UNK     0       1.624  39.317  22.281  0.00  0.00     0.210 HD
ENDBRANCH  19  39
BRANCH  20  41
HETATM   41  O   UNK     0       1.202  42.646  21.853  0.00  0.00    -0.393 OA
HETATM   42  H   UNK     0       0.553  42.080  22.304  0.00  0.00     0.210 HD
ENDBRANCH  20  41
ENDBRANCH   1   3
TORSDOF 12
ENDMDL
MODEL 5
REMARK VINA RESULT:      -8.2      3.113      9.207
REMARK  12 active torsions:
REMARK  status: ('A' for Active; 'I' for Inactive)
REMARK    1  A    between atoms: O_1  and  C_10 
REMARK    2  A    between atoms: O_2  and  C_17 
REMARK    3  A    between atoms: O_3  and  C_20 
REMARK    4  A    between atoms: O_4  and  C_27 
REMARK    5  A    between atoms: O_6  and  C_29 
REMARK    6  A    between atoms: O_7  and  C_28 
REMARK    7  A    between atoms: O_8  and  C_33 
REMARK    8  A    between atoms: C_11  and  C_20 
REMARK    9  A    between atoms: C_20  and  C_28 
REMARK   10  A    between atoms: C_28  and  C_31 
REMARK   11  A    between atoms: C_31  and  C_32 
REMARK   12  A    between atoms: C_32  and  C_33 
ROOT
HETATM    1  O   UNK     0       4.548  42.001  19.933  0.00  0.00    -0.384 OA
HETATM    2  H   UNK     0       4.374  42.393  19.066  0.00  0.00     0.211 HD
ENDROOT
BRANCH   1   3
HETATM    3  C   UNK     0       3.972  42.799  20.993  0.00  0.00     0.090 C 
HETATM    4  C   UNK     0       3.925  41.969  22.302  0.00  0.00    -0.000 C 
HETATM    5  C   UNK     0       2.940  40.842  21.895  0.00  0.00     0.034 C 
HETATM    6  C   UNK     0       5.343  41.475  22.619  0.00  0.00     0.045 C 
HETATM    7  C   UNK     0       3.373  42.773  23.512  0.00  0.00     0.019 C 
HETATM    8  C   UNK     0       1.868  41.576  21.056  0.00  0.00     0.012 C 
HETATM    9  C   UNK     0       2.483  42.930  20.641  0.00  0.00     0.044 C 
HETATM   10  C   UNK     0       6.332  42.651  22.761  0.00  0.00     0.128 C 
HETATM   11  C   UNK     0       6.327  43.658  21.552  0.00  0.00     0.055 C 
HETATM   12  C   UNK     0       7.254  44.934  21.773  0.00  0.00    -0.021 C 
HETATM   13  C   UNK     0       4.880  44.003  21.142  0.00  0.00    -0.034 C 
HETATM   14  C   UNK     0       6.867  46.061  20.772  0.00  0.00     0.071 C 
HETATM   15  C   UNK     0       8.777  44.576  21.603  0.00  0.00     0.045 C 
HETATM   16  C   UNK     0       7.072  45.501  23.209  0.00  0.00     0.017 C 
HETATM   17  C   UNK     0       7.235  45.789  19.302  0.00  0.00     0.047 C 
HETATM   18  C   UNK     0       5.388  46.378  20.852  0.00  0.00     0.154 C 
HETATM   19  C   UNK     0       8.473  44.916  19.129  0.00  0.00     0.147 C 
HETATM   20  C   UNK     0       9.433  45.053  20.303  0.00  0.00     0.147 C 
HETATM   21  O   UNK     0       4.964  47.530  20.807  0.00  0.00    -0.293 OA
HETATM   22  C   UNK     0       4.443  45.244  20.887  0.00  0.00     0.057 C 
BRANCH   5  23
HETATM   23  C   UNK     0       2.343  40.017  23.027  0.00  0.00     0.084 C 
HETATM   24  C   UNK     0       3.201  40.172  24.293  0.00  0.00     0.049 C 
BRANCH  23  25
HETATM   25  O   UNK     0       1.040  40.536  23.326  0.00  0.00    -0.387 OA
HETATM   26  H   UNK     0       0.856  41.285  22.737  0.00  0.00     0.210 HD
ENDBRANCH  23  25
BRANCH  23  27
HETATM   27  C   UNK     0       2.193  38.519  22.646  0.00  0.00     0.152 C 
BRANCH  27  28
HETATM   28  O   UNK     0       1.088  38.361  21.749  0.00  0.00    -0.393 OA
HETATM   29  H   UNK     0       0.735  37.464  21.878  0.00  0.00     0.210 HD
ENDBRANCH  27  28
BRANCH  27  30
HETATM   30  C   UNK     0       1.979  37.579  23.848  0.00  0.00     0.037 C 
BRANCH  30  31
HETATM   31  C   UNK     0       0.664  36.788  23.735  0.00  0.00     0.040 C 
BRANCH  31  32
HETATM   32  C   UNK     0      -0.508  37.372  24.552  0.00  0.00     0.051 C 
HETATM   33  C   UNK     0      -1.561  36.285  24.791  0.00  0.00     0.045 C 
HETATM   34  C   UNK     0      -0.053  37.960  25.891  0.00  0.00     0.045 C 
BRANCH  32  35
HETATM   35  O   UNK     0      -1.117  38.412  23.785  0.00  0.00    -0.391 OA
HETATM   36  H   UNK     0      -0.758  39.266  24.079  0.00  0.00     0.210 HD
ENDBRANCH  32  35
ENDBRANCH  31  32
ENDBRANCH  30  31
ENDBRANCH  27  30
ENDBRANCH  23  27
ENDBRANCH   5  23
BRANCH  10  37
HETATM   37  O   UNK     0       7.629  42.089  22.941  0.00  0.00    -0.395 OA
HETATM   38  H   UNK     0       7.970  42.401  23.796  0.00  0.00     0.210 HD
ENDBRANCH  10  37
BRANCH  19  39
HETATM   39  O   UNK     0       9.122  45.276  17.913  0.00  0.00    -0.393 OA
HETATM   40  H   UNK     0       8.440  45.529  17.268  0.00  0.00     0.210 HD
ENDBRANCH  19  39
BRANCH  20  41
HETATM   41  O   UNK     0       9.837  46.415  20.459  0.00  0.00    -0.393 OA
HETATM   42  H   UNK     0       9.153  46.973  20.053  0.00  0.00     0.210 HD
ENDBRANCH  20  41
ENDBRANCH   1   3
TORSDOF 12
ENDMDL
MODEL 6
REMARK VINA RESULT:      -8.0      1.986      8.477
REMARK  12 active torsions:
REMARK  status: ('A' for Active; 'I' for Inactive)
REMARK    1  A    between atoms: O_1  and  C_10 
REMARK    2  A    between atoms: O_2  and  C_17 
REMARK    3  A    between atoms: O_3  and  C_20 
REMARK    4  A    between atoms: O_4  and  C_27 
REMARK    5  A    between atoms: O_6  and  C_29 
REMARK    6  A    between atoms: O_7  and  C_28 
REMARK    7  A    between atoms: O_8  and  C_33 
REMARK    8  A    between atoms: C_11  and  C_20 
REMARK    9  A    between atoms: C_20  and  C_28 
REMARK   10  A    between atoms: C_28  and  C_31 
REMARK   11  A    between atoms: C_31  and  C_32 
REMARK   12  A    between atoms: C_32  and  C_33 
ROOT
HETATM    1  O   UNK     0      10.090  46.266  21.767  0.00  0.00    -0.384 OA
HETATM    2  H   UNK     0      10.754  46.364  21.069  0.00  0.00     0.211 HD
ENDROOT
BRANCH   1   3
HETATM    3  C   UNK     0       9.494  44.949  21.740  0.00  0.00     0.090 C 
HETATM    4  C   UNK     0       8.907  44.673  20.332  0.00  0.00    -0.000 C 
HETATM    5  C   UNK     0       7.798  45.755  20.264  0.00  0.00     0.034 C 
HETATM    6  C   UNK     0      10.022  44.854  19.293  0.00  0.00     0.045 C 
HETATM    7  C   UNK     0       8.297  43.250  20.197  0.00  0.00     0.019 C 
HETATM    8  C   UNK     0       7.199  45.759  21.690  0.00  0.00     0.012 C 
HETATM    9  C   UNK     0       8.229  45.057  22.602  0.00  0.00     0.044 C 
HETATM   10  C   UNK     0      11.213  43.915  19.574  0.00  0.00     0.128 C 
HETATM   11  C   UNK     0      11.773  43.992  21.043  0.00  0.00     0.055 C 
HETATM   12  C   UNK     0      12.913  42.924  21.354  0.00  0.00    -0.021 C 
HETATM   13  C   UNK     0      10.616  43.983  22.063  0.00  0.00    -0.034 C 
HETATM   14  C   UNK     0      13.096  42.763  22.891  0.00  0.00     0.071 C 
HETATM   15  C   UNK     0      14.283  43.337  20.699  0.00  0.00     0.045 C 
HETATM   16  C   UNK     0      12.531  41.531  20.780  0.00  0.00     0.017 C 
HETATM   17  C   UNK     0      13.738  43.967  23.606  0.00  0.00     0.047 C 
HETATM   18  C   UNK     0      11.779  42.443  23.566  0.00  0.00     0.154 C 
HETATM   19  C   UNK     0      14.709  44.754  22.733  0.00  0.00     0.147 C 
HETATM   20  C   UNK     0      15.345  43.880  21.660  0.00  0.00     0.147 C 
HETATM   21  O   UNK     0      11.694  41.616  24.472  0.00  0.00    -0.293 OA
HETATM   22  C   UNK     0      10.595  43.232  23.173  0.00  0.00     0.057 C 
BRANCH   5  23
HETATM   23  C   UNK     0       6.743  45.582  19.180  0.00  0.00     0.084 C 
HETATM   24  C   UNK     0       5.615  46.607  19.382  0.00  0.00     0.049 C 
BRANCH  23  25
HETATM   25  O   UNK     0       7.350  45.858  17.910  0.00  0.00    -0.387 OA
HETATM   26  H   UNK     0       7.679  46.772  17.910  0.00  0.00     0.210 HD
ENDBRANCH  23  25
BRANCH  23  27
HETATM   27  C   UNK     0       6.173  44.139  19.141  0.00  0.00     0.152 C 
BRANCH  27  28
HETATM   28  O   UNK     0       6.175  43.658  17.792  0.00  0.00    -0.393 OA
HETATM   29  H   UNK     0       6.490  44.383  17.226  0.00  0.00     0.210 HD
ENDBRANCH  27  28
BRANCH  27  30
HETATM   30  C   UNK     0       4.742  44.008  19.699  0.00  0.00     0.037 C 
BRANCH  30  31
HETATM   31  C   UNK     0       4.686  43.089  20.933  0.00  0.00     0.040 C 
BRANCH  31  32
HETATM   32  C   UNK     0       3.906  43.672  22.130  0.00  0.00     0.051 C 
HETATM   33  C   UNK     0       4.752  43.549  23.402  0.00  0.00     0.045 C 
HETATM   34  C   UNK     0       3.503  45.133  21.912  0.00  0.00     0.045 C 
BRANCH  32  35
HETATM   35  O   UNK     0       2.720  42.898  22.315  0.00  0.00    -0.391 OA
HETATM   36  H   UNK     0       1.961  43.503  22.378  0.00  0.00     0.210 HD
ENDBRANCH  32  35
ENDBRANCH  31  32
ENDBRANCH  30  31
ENDBRANCH  27  30
ENDBRANCH  23  27
ENDBRANCH   5  23
BRANCH  10  37
HETATM   37  O   UNK     0      12.232  44.235  18.631  0.00  0.00    -0.395 OA
HETATM   38  H   UNK     0      12.936  44.710  19.106  0.00  0.00     0.210 HD
ENDBRANCH  10  37
BRANCH  19  39
HETATM   39  O   UNK     0      15.712  45.327  23.566  0.00  0.00    -0.393 OA
HETATM   40  H   UNK     0      15.337  46.112  24.000  0.00  0.00     0.210 HD
ENDBRANCH  19  39
BRANCH  20  41
HETATM   41  O   UNK     0      16.036  42.782  22.259  0.00  0.00    -0.393 OA
HETATM   42  H   UNK     0      15.542  42.522  23.054  0.00  0.00     0.210 HD
ENDBRANCH  20  41
ENDBRANCH   1   3
TORSDOF 12
ENDMDL
MODEL 7
REMARK VINA RESULT:      -8.0      2.720      7.703
REMARK  12 active torsions:
REMARK  status: ('A' for Active; 'I' for Inactive)
REMARK    1  A    between atoms: O_1  and  C_10 
REMARK    2  A    between atoms: O_2  and  C_17 
REMARK    3  A    between atoms: O_3  and  C_20 
REMARK    4  A    between atoms: O_4  and  C_27 
REMARK    5  A    between atoms: O_6  and  C_29 
REMARK    6  A    between atoms: O_7  and  C_28 
REMARK    7  A    between atoms: O_8  and  C_33 
REMARK    8  A    between atoms: C_11  and  C_20 
REMARK    9  A    between atoms: C_20  and  C_28 
REMARK   10  A    between atoms: C_28  and  C_31 
REMARK   11  A    between atoms: C_31  and  C_32 
REMARK   12  A    between atoms: C_32  and  C_33 
ROOT
HETATM    1  O   UNK     0       9.257  42.549  21.368  0.00  0.00    -0.384 OA
HETATM    2  H   UNK     0       9.461  41.875  20.704  0.00  0.00     0.211 HD
ENDROOT
BRANCH   1   3
HETATM    3  C   UNK     0       9.818  43.830  21.002  0.00  0.00     0.090 C 
HETATM    4  C   UNK     0       8.674  44.850  20.767  0.00  0.00    -0.000 C 
HETATM    5  C   UNK     0       7.966  44.214  19.542  0.00  0.00     0.034 C 
HETATM    6  C   UNK     0       7.805  44.909  22.030  0.00  0.00     0.045 C 
HETATM    7  C   UNK     0       9.192  46.276  20.425  0.00  0.00     0.019 C 
HETATM    8  C   UNK     0       9.133  43.699  18.669  0.00  0.00     0.012 C 
HETATM    9  C   UNK     0      10.376  43.640  19.584  0.00  0.00     0.044 C 
HETATM   10  C   UNK     0       8.635  45.305  23.269  0.00  0.00     0.128 C 
HETATM   11  C   UNK     0       9.926  44.435  23.496  0.00  0.00     0.055 C 
HETATM   12  C   UNK     0      10.840  44.939  24.698  0.00  0.00    -0.021 C 
HETATM   13  C   UNK     0      10.690  44.247  22.168  0.00  0.00    -0.034 C 
HETATM   14  C   UNK     0      12.268  44.330  24.583  0.00  0.00     0.071 C 
HETATM   15  C   UNK     0      10.216  44.563  26.093  0.00  0.00     0.045 C 
HETATM   16  C   UNK     0      10.988  46.486  24.662  0.00  0.00     0.017 C 
HETATM   17  C   UNK     0      12.362  42.820  24.869  0.00  0.00     0.047 C 
HETATM   18  C   UNK     0      12.869  44.604  23.220  0.00  0.00     0.154 C 
HETATM   19  C   UNK     0      11.324  42.317  25.866  0.00  0.00     0.147 C 
HETATM   20  C   UNK     0      10.893  43.408  26.836  0.00  0.00     0.147 C 
HETATM   21  O   UNK     0      14.049  44.919  23.079  0.00  0.00    -0.293 OA
HETATM   22  C   UNK     0      12.017  44.387  22.035  0.00  0.00     0.057 C 
BRANCH   5  23
HETATM   23  C   UNK     0       7.002  45.107  18.773  0.00  0.00     0.084 C 
HETATM   24  C   UNK     0       6.324  46.095  19.738  0.00  0.00     0.049 C 
BRANCH  23  25
HETATM   25  O   UNK     0       7.755  45.880  17.829  0.00  0.00    -0.387 OA
HETATM   26  H   UNK     0       8.538  45.371  17.560  0.00  0.00     0.210 HD
ENDBRANCH  23  25
BRANCH  23  27
HETATM   27  C   UNK     0       5.939  44.288  17.991  0.00  0.00     0.152 C 
BRANCH  27  28
HETATM   28  O   UNK     0       4.776  45.094  17.775  0.00  0.00    -0.393 OA
HETATM   29  H   UNK     0       5.059  46.024  17.796  0.00  0.00     0.210 HD
ENDBRANCH  27  28
BRANCH  27  30
HETATM   30  C   UNK     0       5.503  42.986  18.691  0.00  0.00     0.037 C 
BRANCH  30  31
HETATM   31  C   UNK     0       4.076  43.086  19.259  0.00  0.00     0.040 C 
BRANCH  31  32
HETATM   32  C   UNK     0       3.980  42.892  20.787  0.00  0.00     0.051 C 
HETATM   33  C   UNK     0       5.279  42.267  21.308  0.00  0.00     0.045 C 
HETATM   34  C   UNK     0       3.700  44.202  21.528  0.00  0.00     0.045 C 
BRANCH  32  35
HETATM   35  O   UNK     0       2.914  41.981  21.060  0.00  0.00    -0.391 OA
HETATM   36  H   UNK     0       2.913  41.291  20.376  0.00  0.00     0.210 HD
ENDBRANCH  32  35
ENDBRANCH  31  32
ENDBRANCH  30  31
ENDBRANCH  27  30
ENDBRANCH  23  27
ENDBRANCH   5  23
BRANCH  10  37
HETATM   37  O   UNK     0       7.770  45.223  24.398  0.00  0.00    -0.395 OA
HETATM   38  H   UNK     0       7.948  44.378  24.846  0.00  0.00     0.210 HD
ENDBRANCH  10  37
BRANCH  19  39
HETATM   39  O   UNK     0      11.869  41.208  26.574  0.00  0.00    -0.393 OA
HETATM   40  H   UNK     0      11.257  40.974  27.292  0.00  0.00     0.210 HD
ENDBRANCH  19  39
BRANCH  20  41
HETATM   41  O   UNK     0      12.023  43.912  27.550  0.00  0.00    -0.393 OA
HETATM   42  H   UNK     0      12.219  44.798  27.202  0.00  0.00     0.210 HD
ENDBRANCH  20  41
ENDBRANCH   1   3
TORSDOF 12
ENDMDL
MODEL 8
REMARK VINA RESULT:      -7.8      1.811      8.185
REMARK  12 active torsions:
REMARK  status: ('A' for Active; 'I' for Inactive)
REMARK    1  A    between atoms: O_1  and  C_10 
REMARK    2  A    between atoms: O_2  and  C_17 
REMARK    3  A    between atoms: O_3  and  C_20 
REMARK    4  A    between atoms: O_4  and  C_27 
REMARK    5  A    between atoms: O_6  and  C_29 
REMARK    6  A    between atoms: O_7  and  C_28 
REMARK    7  A    between atoms: O_8  and  C_33 
REMARK    8  A    between atoms: C_11  and  C_20 
REMARK    9  A    between atoms: C_20  and  C_28 
REMARK   10  A    between atoms: C_28  and  C_31 
REMARK   11  A    between atoms: C_31  and  C_32 
REMARK   12  A    between atoms: C_32  and  C_33 
ROOT
HETATM    1  O   UNK     0       6.787  42.381  19.372  0.00  0.00    -0.384 OA
HETATM    2  H   UNK     0       7.226  42.705  18.572  0.00  0.00     0.211 HD
ENDROOT
BRANCH   1   3
HETATM    3  C   UNK     0       6.475  43.468  20.273  0.00  0.00     0.090 C 
HETATM    4  C   UNK     0       5.422  42.998  21.309  0.00  0.00    -0.000 C 
HETATM    5  C   UNK     0       4.210  42.716  20.383  0.00  0.00     0.034 C 
HETATM    6  C   UNK     0       5.964  41.753  22.026  0.00  0.00     0.045 C 
HETATM    7  C   UNK     0       5.071  44.090  22.358  0.00  0.00     0.019 C 
HETATM    8  C   UNK     0       4.256  43.871  19.356  0.00  0.00     0.012 C 
HETATM    9  C   UNK     0       5.675  44.476  19.435  0.00  0.00     0.044 C 
HETATM   10  C   UNK     0       7.311  42.043  22.720  0.00  0.00     0.128 C 
HETATM   11  C   UNK     0       8.399  42.692  21.787  0.00  0.00     0.055 C 
HETATM   12  C   UNK     0       9.736  43.106  22.548  0.00  0.00    -0.021 C 
HETATM   13  C   UNK     0       7.781  43.831  20.949  0.00  0.00    -0.034 C 
HETATM   14  C   UNK     0      10.556  44.112  21.689  0.00  0.00     0.071 C 
HETATM   15  C   UNK     0      10.622  41.849  22.880  0.00  0.00     0.045 C 
HETATM   16  C   UNK     0       9.404  43.805  23.896  0.00  0.00     0.017 C 
HETATM   17  C   UNK     0      11.210  43.518  20.428  0.00  0.00     0.047 C 
HETATM   18  C   UNK     0       9.709  45.300  21.283  0.00  0.00     0.154 C 
HETATM   19  C   UNK     0      11.585  42.046  20.565  0.00  0.00     0.147 C 
HETATM   20  C   UNK     0      11.870  41.665  22.011  0.00  0.00     0.147 C 
HETATM   21  O   UNK     0      10.149  46.447  21.289  0.00  0.00    -0.293 OA
HETATM   22  C   UNK     0       8.349  45.033  20.775  0.00  0.00     0.057 C 
BRANCH   5  23
HETATM   23  C   UNK     0       2.853  42.579  21.060  0.00  0.00     0.084 C 
HETATM   24  C   UNK     0       2.455  43.917  21.703  0.00  0.00     0.049 C 
BRANCH  23  25
HETATM   25  O   UNK     0       1.875  42.279  20.056  0.00  0.00    -0.387 OA
HETATM   26  H   UNK     0       2.314  42.237  19.190  0.00  0.00     0.210 HD
ENDBRANCH  23  25
BRANCH  23  27
HETATM   27  C   UNK     0       2.834  41.437  22.112  0.00  0.00     0.152 C 
BRANCH  27  28
HETATM   28  O   UNK     0       1.980  40.381  21.658  0.00  0.00    -0.393 OA
HETATM   29  H   UNK     0       2.304  39.555  22.056  0.00  0.00     0.210 HD
ENDBRANCH  27  28
BRANCH  27  30
HETATM   30  C   UNK     0       2.361  41.875  23.512  0.00  0.00     0.037 C 
BRANCH  30  31
HETATM   31  C   UNK     0       2.839  40.909  24.611  0.00  0.00     0.040 C 
BRANCH  31  32
HETATM   32  C   UNK     0       3.664  41.574  25.733  0.00  0.00     0.051 C 
HETATM   33  C   UNK     0       4.964  40.790  25.948  0.00  0.00     0.045 C 
HETATM   34  C   UNK     0       3.984  43.041  25.435  0.00  0.00     0.045 C 
BRANCH  32  35
HETATM   35  O   UNK     0       2.909  41.512  26.944  0.00  0.00    -0.391 OA
HETATM   36  H   UNK     0       2.139  40.937  26.801  0.00  0.00     0.210 HD
ENDBRANCH  32  35
ENDBRANCH  31  32
ENDBRANCH  30  31
ENDBRANCH  27  30
ENDBRANCH  23  27
ENDBRANCH   5  23
BRANCH  10  37
HETATM   37  O   UNK     0       7.781  40.809  23.255  0.00  0.00    -0.395 OA
HETATM   38  H   UNK     0       7.120  40.126  23.052  0.00  0.00     0.210 HD
ENDBRANCH  10  37
BRANCH  19  39
HETATM   39  O   UNK     0      12.722  41.785  19.749  0.00  0.00    -0.393 OA
HETATM   40  H   UNK     0      13.312  41.181  20.231  0.00  0.00     0.210 HD
ENDBRANCH  19  39
BRANCH  20  41
HETATM   41  O   UNK     0      12.927  42.469  22.538  0.00  0.00    -0.393 OA
HETATM   42  H   UNK     0      13.598  41.869  22.905  0.00  0.00     0.210 HD
ENDBRANCH  20  41
ENDBRANCH   1   3
TORSDOF 12
ENDMDL
MODEL 9
REMARK VINA RESULT:      -7.5      3.188      8.307
REMARK  12 active torsions:
REMARK  status: ('A' for Active; 'I' for Inactive)
REMARK    1  A    between atoms: O_1  and  C_10 
REMARK    2  A    between atoms: O_2  and  C_17 
REMARK    3  A    between atoms: O_3  and  C_20 
REMARK    4  A    between atoms: O_4  and  C_27 
REMARK    5  A    between atoms: O_6  and  C_29 
REMARK    6  A    between atoms: O_7  and  C_28 
REMARK    7  A    between atoms: O_8  and  C_33 
REMARK    8  A    between atoms: C_11  and  C_20 
REMARK    9  A    between atoms: C_20  and  C_28 
REMARK   10  A    between atoms: C_28  and  C_31 
REMARK   11  A    between atoms: C_31  and  C_32 
REMARK   12  A    between atoms: C_32  and  C_33 
ROOT
HETATM    1  O   UNK     0       6.280  44.680  24.816  0.00  0.00    -0.384 OA
HETATM    2  H   UNK     0       5.548  44.662  25.449  0.00  0.00     0.211 HD
ENDROOT
BRANCH   1   3
HETATM    3  C   UNK     0       6.744  43.344  24.515  0.00  0.00     0.090 C 
HETATM    4  C   UNK     0       5.662  42.313  24.926  0.00  0.00    -0.000 C 
HETATM    5  C   UNK     0       5.627  42.526  26.462  0.00  0.00     0.034 C 
HETATM    6  C   UNK     0       4.350  42.672  24.216  0.00  0.00     0.045 C 
HETATM    7  C   UNK     0       6.056  40.849  24.582  0.00  0.00     0.019 C 
HETATM    8  C   UNK     0       7.114  42.722  26.840  0.00  0.00     0.012 C 
HETATM    9  C   UNK     0       7.861  43.062  25.531  0.00  0.00     0.044 C 
HETATM   10  C   UNK     0       4.524  42.688  22.683  0.00  0.00     0.128 C 
HETATM   11  C   UNK     0       5.720  43.575  22.171  0.00  0.00     0.055 C 
HETATM   12  C   UNK     0       5.968  43.477  20.601  0.00  0.00    -0.021 C 
HETATM   13  C   UNK     0       6.983  43.318  23.019  0.00  0.00    -0.034 C 
HETATM   14  C   UNK     0       7.389  44.004  20.246  0.00  0.00     0.071 C 
HETATM   15  C   UNK     0       4.887  44.287  19.795  0.00  0.00     0.045 C 
HETATM   16  C   UNK     0       5.885  41.999  20.125  0.00  0.00     0.017 C 
HETATM   17  C   UNK     0       7.580  45.524  20.392  0.00  0.00     0.047 C 
HETATM   18  C   UNK     0       8.452  43.300  21.063  0.00  0.00     0.154 C 
HETATM   19  C   UNK     0       6.310  46.331  20.144  0.00  0.00     0.147 C 
HETATM   20  C   UNK     0       5.359  45.615  19.195  0.00  0.00     0.147 C 
HETATM   21  O   UNK     0       9.523  42.946  20.575  0.00  0.00    -0.293 OA
HETATM   22  C   UNK     0       8.209  43.131  22.509  0.00  0.00     0.057 C 
BRANCH   5  23
HETATM   23  C   UNK     0       4.946  41.442  27.285  0.00  0.00     0.084 C 
HETATM   24  C   UNK     0       5.596  40.079  26.992  0.00  0.00     0.049 C 
BRANCH  23  25
HETATM   25  O   UNK     0       5.158  41.727  28.674  0.00  0.00    -0.387 OA
HETATM   26  H   UNK     0       5.963  41.271  28.971  0.00  0.00     0.210 HD
ENDBRANCH  23  25
BRANCH  23  27
HETATM   27  C   UNK     0       3.416  41.385  27.030  0.00  0.00     0.152 C 
BRANCH  27  28
HETATM   28  O   UNK     0       2.717  41.742  28.228  0.00  0.00    -0.393 OA
HETATM   29  H   UNK     0       2.216  40.960  28.516  0.00  0.00     0.210 HD
ENDBRANCH  27  28
BRANCH  27  30
HETATM   30  C   UNK     0       2.902  40.010  26.562  0.00  0.00     0.037 C 
BRANCH  30  31
HETATM   31  C   UNK     0       1.994  40.124  25.324  0.00  0.00     0.040 C 
BRANCH  31  32
HETATM   32  C   UNK     0       1.252  38.823  24.952  0.00  0.00     0.051 C 
HETATM   33  C   UNK     0       2.260  37.785  24.446  0.00  0.00     0.045 C 
HETATM   34  C   UNK     0       0.455  38.246  26.125  0.00  0.00     0.045 C 
BRANCH  32  35
HETATM   35  O   UNK     0       0.345  39.110  23.886  0.00  0.00    -0.391 OA
HETATM   36  H   UNK     0       0.071  40.040  23.954  0.00  0.00     0.210 HD
ENDBRANCH  32  35
ENDBRANCH  31  32
ENDBRANCH  30  31
ENDBRANCH  27  30
ENDBRANCH  23  27
ENDBRANCH   5  23
BRANCH  10  37
HETATM   37  O   UNK     0       3.293  43.138  22.125  0.00  0.00    -0.395 OA
HETATM   38  H   UNK     0       2.694  42.373  22.074  0.00  0.00     0.210 HD
ENDBRANCH  10  37
BRANCH  19  39
HETATM   39  O   UNK     0       6.672  47.605  19.618  0.00  0.00    -0.393 OA
HETATM   40  H   UNK     0       6.585  48.263  20.327  0.00  0.00     0.210 HD
ENDBRANCH  19  39
BRANCH  20  41
HETATM   41  O   UNK     0       6.004  45.357  17.946  0.00  0.00    -0.393 OA
HETATM   42  H   UNK     0       5.758  46.073  17.335  0.00  0.00     0.210 HD
ENDBRANCH  20  41
ENDBRANCH   1   3
TORSDOF 12
ENDMDL
