REMARK VINA RESULT:      -7.4     11.294     14.261
REMARK  11 active torsions:
REMARK  status: ('A' for Active; 'I' for Inactive)
REMARK    1  A    between atoms: O_1  and  C_9 
REMARK    2  A    between atoms: O_2  and  C_19 
REMARK    3  A    between atoms: O_3  and  C_26 
REMARK    4  A    between atoms: O_4  and  C_27 
REMARK    5  A    between atoms: O_6  and  C_28 
REMARK    6  A    between atoms: O_7  and  C_32 
REMARK    7  A    between atoms: C_10  and  C_19 
REMARK    8  A    between atoms: C_19  and  C_27 
REMARK    9  A    between atoms: C_27  and  C_30 
REMARK   10  A    between atoms: C_30  and  C_31 
REMARK   11  A    between atoms: C_31  and  C_32 
ROOT
HETATM    1  O   UNK     0     177.871 177.764 168.303  0.00  0.00    -0.384 OA
HETATM    2  H   UNK     0     178.766 178.145 168.338  0.00  0.00     0.211 HD
ENDROOT
BRANCH   1   3
HETATM    3  C   UNK     0     177.262 177.947 169.601  0.00  0.00     0.089 C 
HETATM    4  C   UNK     0     176.359 176.728 169.922  0.00  0.00    -0.002 C 
HETATM    5  C   UNK     0     175.282 176.865 168.816  0.00  0.00     0.034 C 
HETATM    6  C   UNK     0     177.207 175.448 169.812  0.00  0.00     0.014 C 
HETATM    7  C   UNK     0     175.715 176.808 171.333  0.00  0.00     0.019 C 
HETATM    8  C   UNK     0     175.027 178.388 168.738  0.00  0.00     0.012 C 
HETATM    9  C   UNK     0     176.233 179.074 169.417  0.00  0.00     0.044 C 
HETATM   10  C   UNK     0     178.397 175.489 170.785  0.00  0.00     0.011 C 
HETATM   11  C   UNK     0     179.256 176.789 170.727  0.00  0.00     0.027 C 
HETATM   12  C   UNK     0     180.304 176.870 171.905  0.00  0.00    -0.023 C 
HETATM   13  C   UNK     0     178.412 178.065 170.578  0.00  0.00    -0.037 C 
HETATM   14  C   UNK     0     180.989 178.265 171.915  0.00  0.00     0.071 C 
HETATM   15  C   UNK     0     181.406 175.781 171.766  0.00  0.00     0.044 C 
HETATM   16  C   UNK     0     179.628 176.656 173.287  0.00  0.00     0.016 C 
HETATM   17  C   UNK     0     181.940 178.492 170.726  0.00  0.00     0.047 C 
HETATM   18  C   UNK     0     179.961 179.380 171.959  0.00  0.00     0.154 C 
HETATM   19  C   UNK     0     183.000 177.396 170.633  0.00  0.00     0.147 C 
HETATM   20  C   UNK     0     182.353 176.011 170.583  0.00  0.00     0.147 C 
HETATM   21  O   UNK     0     180.171 180.429 172.566  0.00  0.00    -0.293 OA
HETATM   22  C   UNK     0     178.712 179.226 171.181  0.00  0.00     0.057 C 
BRANCH   5  23
HETATM   23  C   UNK     0     174.003 176.061 169.007  0.00  0.00     0.084 C 
HETATM   24  C   UNK     0     173.222 176.602 170.216  0.00  0.00     0.049 C 
BRANCH  23  25
HETATM   25  O   UNK     0     173.177 176.241 167.849  0.00  0.00    -0.387 OA
HETATM   26  H   UNK     0     172.251 176.078 168.094  0.00  0.00     0.210 HD
ENDBRANCH  23  25
BRANCH  23  27
HETATM   27  C   UNK     0     174.283 174.542 169.170  0.00  0.00     0.152 C 
BRANCH  27  28
HETATM   28  O   UNK     0     173.652 173.821 168.106  0.00  0.00    -0.393 OA
HETATM   29  H   UNK     0     174.217 173.911 167.319  0.00  0.00     0.210 HD
ENDBRANCH  27  28
BRANCH  27  30
HETATM   30  C   UNK     0     173.801 173.950 170.508  0.00  0.00     0.037 C 
BRANCH  30  31
HETATM   31  C   UNK     0     174.098 172.442 170.613  0.00  0.00     0.040 C 
BRANCH  31  32
HETATM   32  C   UNK     0     175.391 172.097 171.381  0.00  0.00     0.051 C 
HETATM   33  C   UNK     0     175.608 173.117 172.504  0.00  0.00     0.045 C 
HETATM   34  C   UNK     0     175.369 170.681 171.961  0.00  0.00     0.045 C 
BRANCH  32  35
HETATM   35  O   UNK     0     176.493 172.200 170.477  0.00  0.00    -0.391 OA
HETATM   36  H   UNK     0     177.207 172.680 170.929  0.00  0.00     0.210 HD
ENDBRANCH  32  35
ENDBRANCH  31  32
ENDBRANCH  30  31
ENDBRANCH  27  30
ENDBRANCH  23  27
ENDBRANCH   5  23
BRANCH  19  37
HETATM   37  O   UNK     0     183.856 177.474 171.775  0.00  0.00    -0.393 OA
HETATM   38  H   UNK     0     183.391 177.990 172.455  0.00  0.00     0.210 HD
ENDBRANCH  19  37
BRANCH  20  39
HETATM   39  O   UNK     0     183.377 175.019 170.590  0.00  0.00    -0.393 OA
HETATM   40  H   UNK     0     183.654 174.892 171.514  0.00  0.00     0.210 HD
ENDBRANCH  20  39
ENDBRANCH   1   3
TORSDOF 11
