MODEL 1
REMARK VINA RESULT:      -9.1      0.000      0.000
REMARK  Name = 5280637
REMARK                            x       y       z     vdW  Elec       q    Type
REMARK                         _______ _______ _______ _____ _____    ______ ____
ROOT
ATOM     13  C   LIG    1       27.090   9.109  -2.758  0.00  0.00    +0.131 A 
ATOM     14  C   LIG    1       27.660  10.116  -1.979  0.00  0.00    +0.092 A 
ATOM     15  C   LIG    1       29.003  10.457  -2.145  0.00  0.00    +0.135 A 
ATOM     16  C   LIG    1       29.772   9.783  -3.097  0.00  0.00    +0.105 A 
ATOM     17  C   LIG    1       31.190  10.118  -3.294  0.00  0.00    +0.197 A 
ATOM     18  C   LIG    1       31.906   9.344  -4.328  0.00  0.00    +0.098 A 
ATOM     19  C   LIG    1       31.246   8.401  -5.019  0.00  0.00    +0.139 A 
ATOM     30  O   LIG    1       29.911   8.081  -4.825  0.00  0.00    -0.454 OA
ATOM     31  O   LIG    1       31.753  10.987  -2.643  0.00  0.00    -0.287 OA
ATOM     32  C   LIG    1       29.203   8.776  -3.877  0.00  0.00    +0.146 A 
ATOM     35  C   LIG    1       27.861   8.437  -3.708  0.00  0.00    +0.093 A 
ENDROOT
BRANCH  19  20
ATOM     20  C   LIG    1       31.912   7.590  -6.058  0.00  0.00    +0.021 A 
ATOM     21  C   LIG    1       33.209   7.904  -6.468  0.00  0.00    +0.015 A 
ATOM     22  C   LIG    1       33.838   7.139  -7.451  0.00  0.00    +0.050 A 
ATOM     23  C   LIG    1       33.171   6.056  -8.024  0.00  0.00    +0.158 A 
ATOM     24  C   LIG    1       31.875   5.740  -7.617  0.00  0.00    +0.159 A 
ATOM     29  C   LIG    1       31.246   6.506  -6.635  0.00  0.00    +0.060 A 
BRANCH  24  25
ATOM     25  O   LIG    1       31.215   4.684  -8.170  0.00  0.00    -0.503 OA
ATOM     26  H   LIG    1       30.982   4.913  -9.085  0.00  0.00    +0.292 HD
ENDBRANCH  24  25
BRANCH  23  27
ATOM     27  O   LIG    1       33.795   5.317  -8.983  0.00  0.00    -0.503 OA
ATOM     28  H   LIG    1       34.626   5.757  -9.232  0.00  0.00    +0.292 HD
ENDBRANCH  23  27
ENDBRANCH  19  20
BRANCH  15  33
ATOM     33  O   LIG    1       29.512  11.446  -1.359  0.00  0.00    -0.506 OA
ATOM     34  H   LIG    1       30.220  11.103  -0.795  0.00  0.00    +0.292 HD
ENDBRANCH  15  33
BRANCH  13  12
ATOM     12  O   LIG    1       25.777   8.779  -2.591  0.00  0.00    -0.461 OA
BRANCH  12   2
ATOM      1  O   LIG    1       24.741   9.031  -0.516  0.00  0.00    -0.331 OA
ATOM      2  C   LIG    1       24.999   9.652  -1.773  0.00  0.00    +0.339 C 
ATOM      3  C   LIG    1       23.690   9.941  -2.507  0.00  0.00    +0.214 C 
ATOM      4  C   LIG    1       22.729  10.750  -1.634  0.00  0.00    +0.180 C 
ATOM      5  C   LIG    1       22.604  10.140  -0.237  0.00  0.00    +0.177 C 
ATOM     36  C   LIG    1       23.985   9.867   0.363  0.00  0.00    +0.179 C 
BRANCH   5   6
ATOM      6  O   LIG    1       21.892  11.039   0.608  0.00  0.00    -0.386 OA
ATOM      7  H   LIG    1       22.543  11.549   1.120  0.00  0.00    +0.210 HD
ENDBRANCH   5   6
BRANCH   4   8
ATOM      8  O   LIG    1       21.433  10.756  -2.233  0.00  0.00    -0.386 OA
ATOM      9  H   LIG    1       21.482  10.212  -3.037  0.00  0.00    +0.210 HD
ENDBRANCH   4   8
BRANCH   3  10
ATOM     10  O   LIG    1       23.992  10.681  -3.689  0.00  0.00    -0.383 OA
ATOM     11  H   LIG    1       23.176  10.761  -4.212  0.00  0.00    +0.210 HD
ENDBRANCH   3  10
BRANCH  36  37
ATOM     37  C   LIG    1       23.885   9.150   1.706  0.00  0.00    +0.190 C 
BRANCH  37  38
ATOM     38  O   LIG    1       23.713  10.121   2.722  0.00  0.00    -0.392 OA
ATOM     39  H   LIG    1       23.558  10.978   2.289  0.00  0.00    +0.210 HD
ENDBRANCH  37  38
ENDBRANCH  36  37
ENDBRANCH  12   2
ENDBRANCH  13  12
TORSDOF 11
ENDMDL
MODEL 2
REMARK VINA RESULT:      -9.0      5.616     11.987
REMARK  Name = 5280637
REMARK                            x       y       z     vdW  Elec       q    Type
REMARK                         _______ _______ _______ _____ _____    ______ ____
ROOT
ATOM     13  C   LIG    1       36.608   7.235  -4.072  0.00  0.00    +0.131 A 
ATOM     14  C   LIG    1       36.963   6.405  -5.136  0.00  0.00    +0.092 A 
ATOM     15  C   LIG    1       35.982   5.912  -5.998  0.00  0.00    +0.135 A 
ATOM     16  C   LIG    1       34.645   6.256  -5.789  0.00  0.00    +0.105 A 
ATOM     17  C   LIG    1       33.589   5.752  -6.679  0.00  0.00    +0.197 A 
ATOM     18  C   LIG    1       32.210   6.180  -6.365  0.00  0.00    +0.098 A 
ATOM     19  C   LIG    1       31.996   6.988  -5.315  0.00  0.00    +0.139 A 
ATOM     30  O   LIG    1       32.992   7.456  -4.473  0.00  0.00    -0.454 OA
ATOM     31  O   LIG    1       33.829   5.018  -7.628  0.00  0.00    -0.287 OA
ATOM     32  C   LIG    1       34.289   7.086  -4.726  0.00  0.00    +0.146 A 
ATOM     35  C   LIG    1       35.271   7.576  -3.865  0.00  0.00    +0.093 A 
ENDROOT
BRANCH  19  20
ATOM     20  C   LIG    1       30.638   7.442  -4.949  0.00  0.00    +0.021 A 
ATOM     21  C   LIG    1       29.605   7.392  -5.887  0.00  0.00    +0.015 A 
ATOM     22  C   LIG    1       28.324   7.822  -5.541  0.00  0.00    +0.050 A 
ATOM     23  C   LIG    1       28.073   8.302  -4.256  0.00  0.00    +0.158 A 
ATOM     24  C   LIG    1       29.103   8.353  -3.317  0.00  0.00    +0.159 A 
ATOM     29  C   LIG    1       30.384   7.924  -3.663  0.00  0.00    +0.060 A 
BRANCH  24  25
ATOM     25  O   LIG    1       28.868   8.818  -2.058  0.00  0.00    -0.503 OA
ATOM     26  H   LIG    1       29.578   8.499  -1.476  0.00  0.00    +0.292 HD
ENDBRANCH  24  25
BRANCH  23  27
ATOM     27  O   LIG    1       26.818   8.719  -3.931  0.00  0.00    -0.503 OA
ATOM     28  H   LIG    1       26.169   8.116  -4.332  0.00  0.00    +0.292 HD
ENDBRANCH  23  27
ENDBRANCH  19  20
BRANCH  15  33
ATOM     33  O   LIG    1       36.380   5.105  -7.021  0.00  0.00    -0.506 OA
ATOM     34  H   LIG    1       36.926   4.378  -6.688  0.00  0.00    +0.292 HD
ENDBRANCH  15  33
BRANCH  13  12
ATOM     12  O   LIG    1       37.570   7.713  -3.232  0.00  0.00    -0.461 OA
BRANCH  12   2
ATOM      1  O   LIG    1       39.119   5.992  -2.943  0.00  0.00    -0.331 OA
ATOM      2  C   LIG    1       38.909   7.291  -3.489  0.00  0.00    +0.339 C 
ATOM      3  C   LIG    1       39.853   8.304  -2.840  0.00  0.00    +0.214 C 
ATOM      4  C   LIG    1       41.310   7.849  -2.939  0.00  0.00    +0.180 C 
ATOM      5  C   LIG    1       41.466   6.395  -2.494  0.00  0.00    +0.177 C 
ATOM     36  C   LIG    1       40.438   5.500  -3.189  0.00  0.00    +0.179 C 
BRANCH   5   6
ATOM      6  O   LIG    1       42.779   5.942  -2.816  0.00  0.00    -0.386 OA
ATOM      7  H   LIG    1       42.991   5.196  -2.230  0.00  0.00    +0.210 HD
ENDBRANCH   5   6
BRANCH   4   8
ATOM      8  O   LIG    1       42.120   8.662  -2.088  0.00  0.00    -0.386 OA
ATOM      9  H   LIG    1       41.545   9.346  -1.706  0.00  0.00    +0.210 HD
ENDBRANCH   4   8
BRANCH   3  10
ATOM     10  O   LIG    1       39.701   9.554  -3.513  0.00  0.00    -0.383 OA
ATOM     11  H   LIG    1       38.803   9.589  -3.884  0.00  0.00    +0.210 HD
ENDBRANCH   3  10
BRANCH  36  37
ATOM     37  C   LIG    1       40.498   4.066  -2.674  0.00  0.00    +0.190 C 
BRANCH  37  38
ATOM     38  O   LIG    1       39.554   3.923  -1.628  0.00  0.00    -0.392 OA
ATOM     39  H   LIG    1       40.026   4.046  -0.786  0.00  0.00    +0.210 HD
ENDBRANCH  37  38
ENDBRANCH  36  37
ENDBRANCH  12   2
ENDBRANCH  13  12
TORSDOF 11
ENDMDL
MODEL 3
REMARK VINA RESULT:      -9.0      5.925      9.598
REMARK  Name = 5280637
REMARK                            x       y       z     vdW  Elec       q    Type
REMARK                         _______ _______ _______ _____ _____    ______ ____
ROOT
ATOM     13  C   LIG    1       33.430   7.633  -3.215  0.00  0.00    +0.131 A 
ATOM     14  C   LIG    1       32.867   7.432  -1.955  0.00  0.00    +0.092 A 
ATOM     15  C   LIG    1       33.669   7.043  -0.882  0.00  0.00    +0.135 A 
ATOM     16  C   LIG    1       35.039   6.856  -1.078  0.00  0.00    +0.105 A 
ATOM     17  C   LIG    1       35.911   6.445   0.033  0.00  0.00    +0.197 A 
ATOM     18  C   LIG    1       37.343   6.279  -0.288  0.00  0.00    +0.098 A 
ATOM     19  C   LIG    1       37.767   6.509  -1.541  0.00  0.00    +0.139 A 
ATOM     30  O   LIG    1       36.943   6.889  -2.588  0.00  0.00    -0.454 OA
ATOM     31  O   LIG    1       35.482   6.248   1.161  0.00  0.00    -0.287 OA
ATOM     32  C   LIG    1       35.604   7.058  -2.337  0.00  0.00    +0.146 A 
ATOM     35  C   LIG    1       34.800   7.446  -3.408  0.00  0.00    +0.093 A 
ENDROOT
BRANCH  19  20
ATOM     20  C   LIG    1       39.186   6.351  -1.921  0.00  0.00    +0.021 A 
ATOM     21  C   LIG    1       39.620   5.174  -2.535  0.00  0.00    +0.015 A 
ATOM     22  C   LIG    1       40.960   5.024  -2.893  0.00  0.00    +0.050 A 
ATOM     23  C   LIG    1       41.869   6.052  -2.640  0.00  0.00    +0.158 A 
ATOM     24  C   LIG    1       41.438   7.228  -2.026  0.00  0.00    +0.159 A 
ATOM     29  C   LIG    1       40.098   7.378  -1.668  0.00  0.00    +0.060 A 
BRANCH  24  25
ATOM     25  O   LIG    1       42.317   8.238  -1.775  0.00  0.00    -0.503 OA
ATOM     26  H   LIG    1       43.167   8.016  -2.193  0.00  0.00    +0.292 HD
ENDBRANCH  24  25
BRANCH  23  27
ATOM     27  O   LIG    1       43.175   5.893  -2.993  0.00  0.00    -0.503 OA
ATOM     28  H   LIG    1       43.546   5.138  -2.505  0.00  0.00    +0.292 HD
ENDBRANCH  23  27
ENDBRANCH  19  20
BRANCH  15  33
ATOM     33  O   LIG    1       33.071   6.859   0.328  0.00  0.00    -0.506 OA
ATOM     34  H   LIG    1       32.346   6.220   0.256  0.00  0.00    +0.292 HD
ENDBRANCH  15  33
BRANCH  13  12
ATOM     12  O   LIG    1       32.641   8.013  -4.261  0.00  0.00    -0.461 OA
BRANCH  12   2
ATOM      1  O   LIG    1       33.233   6.714  -6.107  0.00  0.00    -0.331 OA
ATOM      2  C   LIG    1       32.213   6.979  -5.146  0.00  0.00    +0.339 C 
ATOM      3  C   LIG    1       30.935   7.452  -5.838  0.00  0.00    +0.214 C 
ATOM      4  C   LIG    1       30.488   6.465  -6.917  0.00  0.00    +0.180 C 
ATOM      5  C   LIG    1       31.652   6.081  -7.832  0.00  0.00    +0.177 C 
ATOM     36  C   LIG    1       32.875   5.667  -7.011  0.00  0.00    +0.179 C 
BRANCH   5   6
ATOM      6  O   LIG    1       31.256   4.998  -8.669  0.00  0.00    -0.386 OA
ATOM      7  H   LIG    1       31.677   5.120  -9.537  0.00  0.00    +0.210 HD
ENDBRANCH   5   6
BRANCH   4   8
ATOM      8  O   LIG    1       29.472   7.066  -7.721  0.00  0.00    -0.386 OA
ATOM      9  H   LIG    1       28.691   6.488  -7.683  0.00  0.00    +0.210 HD
ENDBRANCH   4   8
BRANCH   3  10
ATOM     10  O   LIG    1       29.909   7.571  -4.852  0.00  0.00    -0.383 OA
ATOM     11  H   LIG    1       30.280   7.292  -3.997  0.00  0.00    +0.210 HD
ENDBRANCH   3  10
BRANCH  36  37
ATOM     37  C   LIG    1       34.084   5.393  -7.899  0.00  0.00    +0.190 C 
BRANCH  37  38
ATOM     38  O   LIG    1       33.776   5.802  -9.219  0.00  0.00    -0.392 OA
ATOM     39  H   LIG    1       32.978   5.319  -9.499  0.00  0.00    +0.210 HD
ENDBRANCH  37  38
ENDBRANCH  36  37
ENDBRANCH  12   2
ENDBRANCH  13  12
TORSDOF 11
ENDMDL
MODEL 4
REMARK VINA RESULT:      -8.9      4.399     11.020
REMARK  Name = 5280637
REMARK                            x       y       z     vdW  Elec       q    Type
REMARK                         _______ _______ _______ _____ _____    ______ ____
ROOT
ATOM     13  C   LIG    1       36.021   6.119  -5.650  0.00  0.00    +0.131 A 
ATOM     14  C   LIG    1       35.897   5.454  -6.870  0.00  0.00    +0.092 A 
ATOM     15  C   LIG    1       34.654   5.367  -7.498  0.00  0.00    +0.135 A 
ATOM     16  C   LIG    1       33.537   5.951  -6.897  0.00  0.00    +0.105 A 
ATOM     17  C   LIG    1       32.213   5.875  -7.534  0.00  0.00    +0.197 A 
ATOM     18  C   LIG    1       31.103   6.529  -6.812  0.00  0.00    +0.098 A 
ATOM     19  C   LIG    1       31.349   7.145  -5.645  0.00  0.00    +0.139 A 
ATOM     30  O   LIG    1       32.596   7.208  -5.043  0.00  0.00    -0.454 OA
ATOM     31  O   LIG    1       32.033   5.305  -8.601  0.00  0.00    -0.287 OA
ATOM     32  C   LIG    1       33.660   6.617  -5.678  0.00  0.00    +0.146 A 
ATOM     35  C   LIG    1       34.903   6.701  -5.052  0.00  0.00    +0.093 A 
ENDROOT
BRANCH  19  20
ATOM     20  C   LIG    1       30.277   7.807  -4.875  0.00  0.00    +0.021 A 
ATOM     21  C   LIG    1       28.951   7.725  -5.305  0.00  0.00    +0.015 A 
ATOM     22  C   LIG    1       27.939   8.352  -4.578  0.00  0.00    +0.050 A 
ATOM     23  C   LIG    1       28.250   9.062  -3.418  0.00  0.00    +0.158 A 
ATOM     24  C   LIG    1       29.574   9.146  -2.987  0.00  0.00    +0.159 A 
ATOM     29  C   LIG    1       30.586   8.519  -3.713  0.00  0.00    +0.060 A 
BRANCH  24  25
ATOM     25  O   LIG    1       29.888   9.835  -1.854  0.00  0.00    -0.503 OA
ATOM     26  H   LIG    1       29.131  10.397  -1.617  0.00  0.00    +0.292 HD
ENDBRANCH  24  25
BRANCH  23  27
ATOM     27  O   LIG    1       27.253   9.670  -2.718  0.00  0.00    -0.503 OA
ATOM     28  H   LIG    1       26.397   9.436  -3.116  0.00  0.00    +0.292 HD
ENDBRANCH  23  27
ENDBRANCH  19  20
BRANCH  15  33
ATOM     33  O   LIG    1       34.586   4.707  -8.687  0.00  0.00    -0.506 OA
ATOM     34  H   LIG    1       34.283   3.796  -8.554  0.00  0.00    +0.292 HD
ENDBRANCH  15  33
BRANCH  13  12
ATOM     12  O   LIG    1       37.239   6.200  -5.039  0.00  0.00    -0.461 OA
BRANCH  12   2
ATOM      1  O   LIG    1       37.643   8.425  -4.464  0.00  0.00    -0.331 OA
ATOM      2  C   LIG    1       37.350   7.125  -3.958  0.00  0.00    +0.339 C 
ATOM      3  C   LIG    1       38.472   6.641  -3.040  0.00  0.00    +0.214 C 
ATOM      4  C   LIG    1       38.761   7.655  -1.933  0.00  0.00    +0.180 C 
ATOM      5  C   LIG    1       38.911   9.067  -2.500  0.00  0.00    +0.177 C 
ATOM     36  C   LIG    1       37.743   9.405  -3.429  0.00  0.00    +0.179 C 
BRANCH   5   6
ATOM      6  O   LIG    1       38.947  10.005  -1.428  0.00  0.00    -0.386 OA
ATOM      7  H   LIG    1       39.261   9.540  -0.633  0.00  0.00    +0.210 HD
ENDBRANCH   5   6
BRANCH   4   8
ATOM      8  O   LIG    1       39.983   7.310  -1.278  0.00  0.00    -0.386 OA
ATOM      9  H   LIG    1       39.752   6.950  -0.404  0.00  0.00    +0.210 HD
ENDBRANCH   4   8
BRANCH   3  10
ATOM     10  O   LIG    1       38.070   5.403  -2.455  0.00  0.00    -0.383 OA
ATOM     11  H   LIG    1       38.544   5.301  -1.611  0.00  0.00    +0.210 HD
ENDBRANCH   3  10
BRANCH  36  37
ATOM     37  C   LIG    1       37.930  10.763  -4.099  0.00  0.00    +0.190 C 
BRANCH  37  38
ATOM     38  O   LIG    1       39.297  11.122  -4.016  0.00  0.00    -0.392 OA
ATOM     39  H   LIG    1       39.345  12.091  -3.949  0.00  0.00    +0.210 HD
ENDBRANCH  37  38
ENDBRANCH  36  37
ENDBRANCH  12   2
ENDBRANCH  13  12
TORSDOF 11
ENDMDL
MODEL 5
REMARK VINA RESULT:      -8.5      4.593     10.805
REMARK  Name = 5280637
REMARK                            x       y       z     vdW  Elec       q    Type
REMARK                         _______ _______ _______ _____ _____    ______ ____
ROOT
ATOM     13  C   LIG    1       36.115   6.304  -5.619  0.00  0.00    +0.131 A 
ATOM     14  C   LIG    1       36.008   5.595  -6.815  0.00  0.00    +0.092 A 
ATOM     15  C   LIG    1       34.766   5.446  -7.434  0.00  0.00    +0.135 A 
ATOM     16  C   LIG    1       33.632   6.012  -6.848  0.00  0.00    +0.105 A 
ATOM     17  C   LIG    1       32.309   5.871  -7.475  0.00  0.00    +0.197 A 
ATOM     18  C   LIG    1       31.181   6.511  -6.769  0.00  0.00    +0.098 A 
ATOM     19  C   LIG    1       31.411   7.173  -5.625  0.00  0.00    +0.139 A 
ATOM     30  O   LIG    1       32.658   7.298  -5.031  0.00  0.00    -0.454 OA
ATOM     31  O   LIG    1       32.144   5.260  -8.522  0.00  0.00    -0.287 OA
ATOM     32  C   LIG    1       33.737   6.722  -5.652  0.00  0.00    +0.146 A 
ATOM     35  C   LIG    1       34.979   6.868  -5.035  0.00  0.00    +0.093 A 
ENDROOT
BRANCH  19  20
ATOM     20  C   LIG    1       30.320   7.825  -4.871  0.00  0.00    +0.021 A 
ATOM     21  C   LIG    1       29.001   7.720  -5.316  0.00  0.00    +0.015 A 
ATOM     22  C   LIG    1       27.971   8.337  -4.606  0.00  0.00    +0.050 A 
ATOM     23  C   LIG    1       28.258   9.059  -3.447  0.00  0.00    +0.158 A 
ATOM     24  C   LIG    1       29.576   9.166  -3.001  0.00  0.00    +0.159 A 
ATOM     29  C   LIG    1       30.605   8.549  -3.712  0.00  0.00    +0.060 A 
BRANCH  24  25
ATOM     25  O   LIG    1       29.867   9.868  -1.869  0.00  0.00    -0.503 OA
ATOM     26  H   LIG    1       30.834   9.931  -1.789  0.00  0.00    +0.292 HD
ENDBRANCH  24  25
BRANCH  23  27
ATOM     27  O   LIG    1       27.244   9.657  -2.762  0.00  0.00    -0.503 OA
ATOM     28  H   LIG    1       26.412   9.194  -2.960  0.00  0.00    +0.292 HD
ENDBRANCH  23  27
ENDBRANCH  19  20
BRANCH  15  33
ATOM     33  O   LIG    1       34.715   4.744  -8.601  0.00  0.00    -0.506 OA
ATOM     34  H   LIG    1       33.814   4.431  -8.771  0.00  0.00    +0.292 HD
ENDBRANCH  15  33
BRANCH  13  12
ATOM     12  O   LIG    1       37.331   6.445  -5.018  0.00  0.00    -0.461 OA
BRANCH  12   2
ATOM      1  O   LIG    1       36.713   6.787  -2.794  0.00  0.00    -0.331 OA
ATOM      2  C   LIG    1       37.445   5.950  -3.685  0.00  0.00    +0.339 C 
ATOM      3  C   LIG    1       38.928   5.940  -3.313  0.00  0.00    +0.214 C 
ATOM      4  C   LIG    1       39.131   5.563  -1.845  0.00  0.00    +0.180 C 
ATOM      5  C   LIG    1       38.209   6.373  -0.933  0.00  0.00    +0.177 C 
ATOM     36  C   LIG    1       36.766   6.329  -1.442  0.00  0.00    +0.179 C 
BRANCH   5   6
ATOM      6  O   LIG    1       38.260   5.837   0.386  0.00  0.00    -0.386 OA
ATOM      7  H   LIG    1       37.415   5.389   0.561  0.00  0.00    +0.210 HD
ENDBRANCH   5   6
BRANCH   4   8
ATOM      8  O   LIG    1       40.481   5.837  -1.465  0.00  0.00    -0.386 OA
ATOM      9  H   LIG    1       40.534   5.752  -0.498  0.00  0.00    +0.210 HD
ENDBRANCH   4   8
BRANCH   3  10
ATOM     10  O   LIG    1       39.592   4.986  -4.142  0.00  0.00    -0.383 OA
ATOM     11  H   LIG    1       38.990   4.234  -4.277  0.00  0.00    +0.210 HD
ENDBRANCH   3  10
BRANCH  36  37
ATOM     37  C   LIG    1       35.849   7.226  -0.615  0.00  0.00    +0.190 C 
BRANCH  37  38
ATOM     38  O   LIG    1       35.368   6.482   0.489  0.00  0.00    -0.392 OA
ATOM     39  H   LIG    1       35.314   5.549   0.216  0.00  0.00    +0.210 HD
ENDBRANCH  37  38
ENDBRANCH  36  37
ENDBRANCH  12   2
ENDBRANCH  13  12
TORSDOF 11
ENDMDL
MODEL 6
REMARK VINA RESULT:      -8.4      6.023     10.212
REMARK  Name = 5280637
REMARK                            x       y       z     vdW  Elec       q    Type
REMARK                         _______ _______ _______ _____ _____    ______ ____
ROOT
ATOM     13  C   LIG    1       34.177   7.662  -3.120  0.00  0.00    +0.131 A 
ATOM     14  C   LIG    1       35.571   7.719  -3.084  0.00  0.00    +0.092 A 
ATOM     15  C   LIG    1       36.257   7.365  -1.922  0.00  0.00    +0.135 A 
ATOM     16  C   LIG    1       35.540   6.952  -0.796  0.00  0.00    +0.105 A 
ATOM     17  C   LIG    1       36.236   6.573   0.443  0.00  0.00    +0.197 A 
ATOM     18  C   LIG    1       35.378   6.151   1.570  0.00  0.00    +0.098 A 
ATOM     19  C   LIG    1       34.046   6.132   1.410  0.00  0.00    +0.139 A 
ATOM     30  O   LIG    1       33.393   6.497   0.244  0.00  0.00    -0.454 OA
ATOM     31  O   LIG    1       37.454   6.604   0.544  0.00  0.00    -0.287 OA
ATOM     32  C   LIG    1       34.147   6.894  -0.831  0.00  0.00    +0.146 A 
ATOM     35  C   LIG    1       33.464   7.249  -1.993  0.00  0.00    +0.093 A 
ENDROOT
BRANCH  19  20
ATOM     20  C   LIG    1       33.139   5.727   2.504  0.00  0.00    +0.021 A 
ATOM     21  C   LIG    1       33.441   6.062   3.826  0.00  0.00    +0.015 A 
ATOM     22  C   LIG    1       32.586   5.679   4.858  0.00  0.00    +0.050 A 
ATOM     23  C   LIG    1       31.424   4.960   4.572  0.00  0.00    +0.158 A 
ATOM     24  C   LIG    1       31.120   4.624   3.253  0.00  0.00    +0.159 A 
ATOM     29  C   LIG    1       31.976   5.007   2.220  0.00  0.00    +0.060 A 
BRANCH  24  25
ATOM     25  O   LIG    1       29.988   3.924   2.962  0.00  0.00    -0.503 OA
ATOM     26  H   LIG    1       30.126   3.455   2.122  0.00  0.00    +0.292 HD
ENDBRANCH  24  25
BRANCH  23  27
ATOM     27  O   LIG    1       30.597   4.591   5.589  0.00  0.00    -0.503 OA
ATOM     28  H   LIG    1       30.369   3.651   5.487  0.00  0.00    +0.292 HD
ENDBRANCH  23  27
ENDBRANCH  19  20
BRANCH  15  33
ATOM     33  O   LIG    1       37.618   7.438  -1.937  0.00  0.00    -0.506 OA
ATOM     34  H   LIG    1       38.007   6.555  -1.856  0.00  0.00    +0.292 HD
ENDBRANCH  15  33
BRANCH  13  12
ATOM     12  O   LIG    1       33.511   8.010  -4.258  0.00  0.00    -0.461 OA
BRANCH  12   2
ATOM      1  O   LIG    1       33.811   6.644  -6.125  0.00  0.00    -0.331 OA
ATOM      2  C   LIG    1       32.956   6.943  -5.024  0.00  0.00    +0.339 C 
ATOM      3  C   LIG    1       31.579   7.386  -5.520  0.00  0.00    +0.214 C 
ATOM      4  C   LIG    1       30.974   6.358  -6.477  0.00  0.00    +0.180 C 
ATOM      5  C   LIG    1       31.980   5.943  -7.551  0.00  0.00    +0.177 C 
ATOM     36  C   LIG    1       33.322   5.563  -6.921  0.00  0.00    +0.179 C 
BRANCH   5   6
ATOM      6  O   LIG    1       31.465   4.828  -8.273  0.00  0.00    -0.386 OA
ATOM      7  H   LIG    1       32.200   4.215  -8.442  0.00  0.00    +0.210 HD
ENDBRANCH   5   6
BRANCH   4   8
ATOM      8  O   LIG    1       29.838   6.927  -7.130  0.00  0.00    -0.386 OA
ATOM      9  H   LIG    1       29.601   6.337  -7.866  0.00  0.00    +0.210 HD
ENDBRANCH   4   8
BRANCH   3  10
ATOM     10  O   LIG    1       30.723   7.540  -4.388  0.00  0.00    -0.383 OA
ATOM     11  H   LIG    1       30.579   8.491  -4.246  0.00  0.00    +0.210 HD
ENDBRANCH   3  10
BRANCH  36  37
ATOM     37  C   LIG    1       34.376   5.258  -7.980  0.00  0.00    +0.190 C 
BRANCH  37  38
ATOM     38  O   LIG    1       33.915   5.744  -9.227  0.00  0.00    -0.392 OA
ATOM     39  H   LIG    1       32.980   5.989  -9.122  0.00  0.00    +0.210 HD
ENDBRANCH  37  38
ENDBRANCH  36  37
ENDBRANCH  12   2
ENDBRANCH  13  12
TORSDOF 11
ENDMDL
MODEL 7
REMARK VINA RESULT:      -8.3     19.502     20.900
REMARK  Name = 5280637
REMARK                            x       y       z     vdW  Elec       q    Type
REMARK                         _______ _______ _______ _____ _____    ______ ____
ROOT
ATOM     13  C   LIG    1       36.933   0.190  11.863  0.00  0.00    +0.131 A 
ATOM     14  C   LIG    1       38.141  -0.413  12.213  0.00  0.00    +0.092 A 
ATOM     15  C   LIG    1       38.340  -1.773  11.973  0.00  0.00    +0.135 A 
ATOM     16  C   LIG    1       37.324  -2.525  11.378  0.00  0.00    +0.105 A 
ATOM     17  C   LIG    1       37.504  -3.960  11.113  0.00  0.00    +0.197 A 
ATOM     18  C   LIG    1       36.365  -4.655  10.480  0.00  0.00    +0.098 A 
ATOM     19  C   LIG    1       35.254  -3.962  10.184  0.00  0.00    +0.139 A 
ATOM     30  O   LIG    1       35.084  -2.611  10.442  0.00  0.00    -0.454 OA
ATOM     31  O   LIG    1       38.536  -4.552  11.399  0.00  0.00    -0.287 OA
ATOM     32  C   LIG    1       36.117  -1.922  11.027  0.00  0.00    +0.146 A 
ATOM     35  C   LIG    1       35.919  -0.563  11.269  0.00  0.00    +0.093 A 
ENDROOT
BRANCH  19  20
ATOM     20  C   LIG    1       34.081  -4.606   9.558  0.00  0.00    +0.021 A 
ATOM     21  C   LIG    1       32.995  -3.832   9.144  0.00  0.00    +0.015 A 
ATOM     22  C   LIG    1       31.886  -4.440   8.555  0.00  0.00    +0.050 A 
ATOM     23  C   LIG    1       31.862  -5.824   8.377  0.00  0.00    +0.158 A 
ATOM     24  C   LIG    1       32.945  -6.599   8.790  0.00  0.00    +0.159 A 
ATOM     29  C   LIG    1       34.054  -5.991   9.380  0.00  0.00    +0.060 A 
BRANCH  24  25
ATOM     25  O   LIG    1       32.933  -7.951   8.620  0.00  0.00    -0.503 OA
ATOM     26  H   LIG    1       33.483  -8.167   7.848  0.00  0.00    +0.292 HD
ENDBRANCH  24  25
BRANCH  23  27
ATOM     27  O   LIG    1       30.773  -6.406   7.801  0.00  0.00    -0.503 OA
ATOM     28  H   LIG    1       31.054  -7.211   7.334  0.00  0.00    +0.292 HD
ENDBRANCH  23  27
ENDBRANCH  19  20
BRANCH  15  33
ATOM     33  O   LIG    1       39.537  -2.316  12.334  0.00  0.00    -0.506 OA
ATOM     34  H   LIG    1       39.847  -1.931  13.167  0.00  0.00    +0.292 HD
ENDBRANCH  15  33
BRANCH  13  12
ATOM     12  O   LIG    1       36.742   1.520  12.101  0.00  0.00    -0.461 OA
BRANCH  12   2
ATOM      1  O   LIG    1       36.117   1.326  14.340  0.00  0.00    -0.331 OA
ATOM      2  C   LIG    1       37.000   1.974  13.428  0.00  0.00    +0.339 C 
ATOM      3  C   LIG    1       36.785   3.488  13.458  0.00  0.00    +0.214 C 
ATOM      4  C   LIG    1       36.895   4.038  14.880  0.00  0.00    +0.180 C 
ATOM      5  C   LIG    1       36.056   3.215  15.858  0.00  0.00    +0.177 C 
ATOM     36  C   LIG    1       36.341   1.720  15.695  0.00  0.00    +0.179 C 
BRANCH   5   6
ATOM      6  O   LIG    1       36.363   3.611  17.192  0.00  0.00    -0.386 OA
ATOM      7  H   LIG    1       35.949   4.476  17.351  0.00  0.00    +0.210 HD
ENDBRANCH   5   6
BRANCH   4   8
ATOM      8  O   LIG    1       36.415   5.383  14.908  0.00  0.00    -0.386 OA
ATOM      9  H   LIG    1       35.464   5.357  14.704  0.00  0.00    +0.210 HD
ENDBRANCH   4   8
BRANCH   3  10
ATOM     10  O   LIG    1       37.781   4.098  12.636  0.00  0.00    -0.383 OA
ATOM     11  H   LIG    1       37.916   3.532  11.857  0.00  0.00    +0.210 HD
ENDBRANCH   3  10
BRANCH  36  37
ATOM     37  C   LIG    1       35.431   0.872  16.578  0.00  0.00    +0.190 C 
BRANCH  37  38
ATOM     38  O   LIG    1       36.045   0.721  17.844  0.00  0.00    -0.392 OA
ATOM     39  H   LIG    1       36.983   0.958  17.748  0.00  0.00    +0.210 HD
ENDBRANCH  37  38
ENDBRANCH  36  37
ENDBRANCH  12   2
ENDBRANCH  13  12
TORSDOF 11
ENDMDL
MODEL 8
REMARK VINA RESULT:      -8.3      7.100     11.560
REMARK  Name = 5280637
REMARK                            x       y       z     vdW  Elec       q    Type
REMARK                         _______ _______ _______ _____ _____    ______ ____
ROOT
ATOM     13  C   LIG    1       37.122   6.972  -0.887  0.00  0.00    +0.131 A 
ATOM     14  C   LIG    1       36.969   8.297  -0.479  0.00  0.00    +0.092 A 
ATOM     15  C   LIG    1       36.089   9.142  -1.157  0.00  0.00    +0.135 A 
ATOM     16  C   LIG    1       35.364   8.652  -2.245  0.00  0.00    +0.105 A 
ATOM     17  C   LIG    1       34.431   9.519  -2.981  0.00  0.00    +0.197 A 
ATOM     18  C   LIG    1       33.716   8.896  -4.113  0.00  0.00    +0.098 A 
ATOM     19  C   LIG    1       33.944   7.606  -4.405  0.00  0.00    +0.139 A 
ATOM     30  O   LIG    1       34.830   6.793  -3.715  0.00  0.00    -0.454 OA
ATOM     31  O   LIG    1       34.252  10.691  -2.679  0.00  0.00    -0.287 OA
ATOM     32  C   LIG    1       35.516   7.327  -2.653  0.00  0.00    +0.146 A 
ATOM     35  C   LIG    1       36.395   6.485  -1.975  0.00  0.00    +0.093 A 
ENDROOT
BRANCH  19  20
ATOM     20  C   LIG    1       33.264   6.932  -5.531  0.00  0.00    +0.021 A 
ATOM     21  C   LIG    1       31.902   7.142  -5.754  0.00  0.00    +0.015 A 
ATOM     22  C   LIG    1       31.260   6.505  -6.816  0.00  0.00    +0.050 A 
ATOM     23  C   LIG    1       31.980   5.657  -7.659  0.00  0.00    +0.158 A 
ATOM     24  C   LIG    1       33.341   5.445  -7.437  0.00  0.00    +0.159 A 
ATOM     29  C   LIG    1       33.982   6.082  -6.375  0.00  0.00    +0.060 A 
BRANCH  24  25
ATOM     25  O   LIG    1       34.053   4.620  -8.255  0.00  0.00    -0.503 OA
ATOM     26  H   LIG    1       34.614   4.051  -7.701  0.00  0.00    +0.292 HD
ENDBRANCH  24  25
BRANCH  23  27
ATOM     27  O   LIG    1       31.341   5.040  -8.692  0.00  0.00    -0.503 OA
ATOM     28  H   LIG    1       30.425   4.847  -8.428  0.00  0.00    +0.292 HD
ENDBRANCH  23  27
ENDBRANCH  19  20
BRANCH  15  33
ATOM     33  O   LIG    1       35.977  10.428  -0.720  0.00  0.00    -0.506 OA
ATOM     34  H   LIG    1       36.751  10.678  -0.195  0.00  0.00    +0.292 HD
ENDBRANCH  15  33
BRANCH  13  12
ATOM     12  O   LIG    1       37.983   6.150  -0.221  0.00  0.00    -0.461 OA
BRANCH  12   2
ATOM      1  O   LIG    1       39.741   7.484  -0.977  0.00  0.00    -0.331 OA
ATOM      2  C   LIG    1       39.339   6.153  -0.664  0.00  0.00    +0.339 C 
ATOM      3  C   LIG    1       39.430   5.260  -1.902  0.00  0.00    +0.214 C 
ATOM      4  C   LIG    1       40.822   5.326  -2.533  0.00  0.00    +0.180 C 
ATOM      5  C   LIG    1       41.285   6.772  -2.705  0.00  0.00    +0.177 C 
ATOM     36  C   LIG    1       41.102   7.559  -1.405  0.00  0.00    +0.179 C 
BRANCH   5   6
ATOM      6  O   LIG    1       42.661   6.787  -3.075  0.00  0.00    -0.386 OA
ATOM      7  H   LIG    1       43.190   6.843  -2.261  0.00  0.00    +0.210 HD
ENDBRANCH   5   6
BRANCH   4   8
ATOM      8  O   LIG    1       40.788   4.715  -3.824  0.00  0.00    -0.386 OA
ATOM      9  H   LIG    1       41.044   5.393  -4.473  0.00  0.00    +0.210 HD
ENDBRANCH   4   8
BRANCH   3  10
ATOM     10  O   LIG    1       39.152   3.917  -1.508  0.00  0.00    -0.383 OA
ATOM     11  H   LIG    1       38.192   3.776  -1.576  0.00  0.00    +0.210 HD
ENDBRANCH   3  10
BRANCH  36  37
ATOM     37  C   LIG    1       41.447   9.034  -1.585  0.00  0.00    +0.190 C 
BRANCH  37  38
ATOM     38  O   LIG    1       41.465   9.327  -2.970  0.00  0.00    -0.392 OA
ATOM     39  H   LIG    1       42.391   9.300  -3.266  0.00  0.00    +0.210 HD
ENDBRANCH  37  38
ENDBRANCH  36  37
ENDBRANCH  12   2
ENDBRANCH  13  12
TORSDOF 11
ENDMDL
MODEL 9
REMARK VINA RESULT:      -8.2     14.384     16.217
REMARK  Name = 5280637
REMARK                            x       y       z     vdW  Elec       q    Type
REMARK                         _______ _______ _______ _____ _____    ______ ____
ROOT
ATOM     13  C   LIG    1       24.182  -5.001  -6.041  0.00  0.00    +0.131 A 
ATOM     14  C   LIG    1       23.985  -5.970  -7.025  0.00  0.00    +0.092 A 
ATOM     15  C   LIG    1       24.787  -7.112  -7.054  0.00  0.00    +0.135 A 
ATOM     16  C   LIG    1       25.786  -7.278  -6.092  0.00  0.00    +0.105 A 
ATOM     17  C   LIG    1       26.648  -8.469  -6.099  0.00  0.00    +0.197 A 
ATOM     18  C   LIG    1       27.670  -8.541  -5.034  0.00  0.00    +0.098 A 
ATOM     19  C   LIG    1       27.757  -7.546  -4.138  0.00  0.00    +0.139 A 
ATOM     30  O   LIG    1       26.949  -6.420  -4.140  0.00  0.00    -0.454 OA
ATOM     31  O   LIG    1       26.532  -9.355  -6.934  0.00  0.00    -0.287 OA
ATOM     32  C   LIG    1       25.983  -6.310  -5.108  0.00  0.00    +0.146 A 
ATOM     35  C   LIG    1       25.181  -5.169  -5.081  0.00  0.00    +0.093 A 
ENDROOT
BRANCH  19  20
ATOM     20  C   LIG    1       28.765  -7.560  -3.058  0.00  0.00    +0.021 A 
ATOM     21  C   LIG    1       28.674  -8.496  -2.026  0.00  0.00    +0.015 A 
ATOM     22  C   LIG    1       29.624  -8.508  -1.005  0.00  0.00    +0.050 A 
ATOM     23  C   LIG    1       30.670  -7.584  -1.015  0.00  0.00    +0.158 A 
ATOM     24  C   LIG    1       30.763  -6.647  -2.044  0.00  0.00    +0.159 A 
ATOM     29  C   LIG    1       29.812  -6.635  -3.064  0.00  0.00    +0.060 A 
BRANCH  24  25
ATOM     25  O   LIG    1       31.781  -5.741  -2.063  0.00  0.00    -0.503 OA
ATOM     26  H   LIG    1       31.398  -4.850  -1.993  0.00  0.00    +0.292 HD
ENDBRANCH  24  25
BRANCH  23  27
ATOM     27  O   LIG    1       31.591  -7.605  -0.012  0.00  0.00    -0.503 OA
ATOM     28  H   LIG    1       31.501  -8.438   0.484  0.00  0.00    +0.292 HD
ENDBRANCH  23  27
ENDBRANCH  19  20
BRANCH  15  33
ATOM     33  O   LIG    1       24.556  -8.028  -8.035  0.00  0.00    -0.506 OA
ATOM     34  H   LIG    1       25.387  -8.295  -8.455  0.00  0.00    +0.292 HD
ENDBRANCH  15  33
BRANCH  13  12
ATOM     12  O   LIG    1       23.396  -3.886  -6.016  0.00  0.00    -0.461 OA
BRANCH  12   2
ATOM      1  O   LIG    1       22.964  -2.766  -8.017  0.00  0.00    -0.331 OA
ATOM      2  C   LIG    1       22.472  -3.734  -7.093  0.00  0.00    +0.339 C 
ATOM      3  C   LIG    1       21.135  -3.281  -6.504  0.00  0.00    +0.214 C 
ATOM      4  C   LIG    1       20.127  -2.948  -7.605  0.00  0.00    +0.180 C 
ATOM      5  C   LIG    1       20.745  -2.035  -8.663  0.00  0.00    +0.177 C 
ATOM     36  C   LIG    1       22.093  -2.584  -9.135  0.00  0.00    +0.179 C 
BRANCH   5   6
ATOM      6  O   LIG    1       19.860  -1.936  -9.776  0.00  0.00    -0.386 OA
ATOM      7  H   LIG    1       20.178  -1.217 -10.349  0.00  0.00    +0.210 HD
ENDBRANCH   5   6
BRANCH   4   8
ATOM      8  O   LIG    1       19.007  -2.269  -7.034  0.00  0.00    -0.386 OA
ATOM      9  H   LIG    1       19.295  -1.900  -6.181  0.00  0.00    +0.210 HD
ENDBRANCH   4   8
BRANCH   3  10
ATOM     10  O   LIG    1       20.621  -4.339  -5.695  0.00  0.00    -0.383 OA
ATOM     11  H   LIG    1       21.359  -4.928  -5.464  0.00  0.00    +0.210 HD
ENDBRANCH   3  10
BRANCH  36  37
ATOM     37  C   LIG    1       22.784  -1.630 -10.105  0.00  0.00    +0.190 C 
BRANCH  37  38
ATOM     38  O   LIG    1       23.157  -2.356 -11.262  0.00  0.00    -0.392 OA
ATOM     39  H   LIG    1       24.093  -2.605 -11.165  0.00  0.00    +0.210 HD
ENDBRANCH  37  38
ENDBRANCH  36  37
ENDBRANCH  12   2
ENDBRANCH  13  12
TORSDOF 11
ENDMDL
