MODEL 1
REMARK VINA RESULT:    -7.462      0.000      0.000
REMARK INTER + INTRA:         -11.923
REMARK INTER:                 -10.628
REMARK INTRA:                  -1.295
REMARK UNBOUND:                -0.971
REMARK  Name = 5281643
REMARK  12 active torsions:
REMARK  status: ('A' for Active; 'I' for Inactive)
REMARK    1  A    between atoms: O_2  and  C_17
REMARK    2  A    between atoms: O_2  and  C_19
REMARK    3  A    between atoms: O_3  and  C_13
REMARK    4  A    between atoms: O_4  and  C_14
REMARK    5  A    between atoms: O_5  and  C_15
REMARK    6  A    between atoms: O_6  and  C_18
REMARK    7  A    between atoms: O_9  and  C_25
REMARK    8  A    between atoms: O_10  and  C_30
REMARK    9  A    between atoms: O_11  and  C_31
REMARK   10  A    between atoms: O_12  and  C_33
REMARK   11  A    between atoms: C_16  and  C_18
REMARK   12  A    between atoms: C_20  and  C_24
REMARK                            x       y       z     vdW  Elec       q    Type
REMARK                         _______ _______ _______ _____ _____    ______ ____
ROOT
ATOM      1  O   UNL     1     -24.084  -2.094  54.219  0.00  0.00    +0.000 OA
ATOM      2  O   UNL     1     -25.537   0.244  57.223  0.00  0.00    +0.000 OA
ATOM      3  C   UNL     1     -25.581  -1.841  56.101  0.00  0.00    +0.000 A 
ATOM      4  C   UNL     1     -25.062  -2.556  55.085  0.00  0.00    +0.000 A 
ATOM      5  C   UNL     1     -25.102  -0.454  56.317  0.00  0.00    +0.000 A 
ATOM      6  C   UNL     1     -24.075   0.034  55.384  0.00  0.00    +0.000 A 
ATOM      7  C   UNL     1     -23.617  -0.815  54.380  0.00  0.00    +0.000 A 
ATOM      8  C   UNL     1     -23.561   1.328  55.501  0.00  0.00    +0.000 A 
ATOM      9  C   UNL     1     -22.642  -0.377  53.485  0.00  0.00    +0.000 A 
ATOM     10  C   UNL     1     -22.585   1.765  54.604  0.00  0.00    +0.000 A 
ATOM     11  C   UNL     1     -22.126   0.915  53.598  0.00  0.00    +0.000 A 
ENDROOT
BRANCH   4  12
ATOM     12  C   UNL     1     -25.473  -3.943  54.804  0.00  0.00    +0.000 A 
ATOM     13  C   UNL     1     -26.798  -4.223  54.467  0.00  0.00    +0.000 A 
ATOM     14  C   UNL     1     -24.538  -4.976  54.873  0.00  0.00    +0.000 A 
ATOM     15  C   UNL     1     -27.187  -5.535  54.199  0.00  0.00    +0.000 A 
ATOM     16  C   UNL     1     -24.927  -6.288  54.606  0.00  0.00    +0.000 A 
ATOM     17  C   UNL     1     -26.252  -6.568  54.269  0.00  0.00    +0.000 A 
BRANCH  15  18
ATOM     18  O   UNL     1     -28.483  -5.797  53.873  0.00  0.00    +0.000 OA
ATOM     19  H   UNL     1     -28.934  -4.951  53.706  0.00  0.00    +0.000 HD
ENDBRANCH  15  18
BRANCH  17  20
ATOM     20  O   UNL     1     -26.619  -7.854  54.009  0.00  0.00    +0.000 OA
ATOM     21  H   UNL     1     -27.426  -7.848  53.465  0.00  0.00    +0.000 HD
ENDBRANCH  17  20
ENDBRANCH   4  12
BRANCH   8  22
ATOM     22  O   UNL     1     -23.973   2.198  56.465  0.00  0.00    +0.000 OA
ATOM     23  H   UNL     1     -24.563   2.869  56.090  0.00  0.00    +0.000 HD
ENDBRANCH   8  22
BRANCH  11  24
ATOM     24  O   UNL     1     -21.172   1.344  52.728  0.00  0.00    +0.000 OA
ATOM     25  H   UNL     1     -21.332   2.281  52.521  0.00  0.00    +0.000 HD
ENDBRANCH  11  24
BRANCH   3  26
ATOM     26  O   UNL     1     -26.530  -2.341  56.966  0.00  0.00    +0.000 OA
BRANCH  26  32
ATOM     27  O   UNL     1     -26.533  -4.553  57.715  0.00  0.00    +0.000 OA
ATOM     28  C   UNL     1     -25.785  -3.742  60.361  0.00  0.00    +0.000 C 
ATOM     29  C   UNL     1     -26.349  -5.131  60.065  0.00  0.00    +0.000 C 
ATOM     30  C   UNL     1     -26.233  -2.730  59.307  0.00  0.00    +0.000 C 
ATOM     31  C   UNL     1     -26.016  -5.531  58.624  0.00  0.00    +0.000 C 
ATOM     32  C   UNL     1     -25.958  -3.259  57.897  0.00  0.00    +0.000 C 
BRANCH  28  33
ATOM     33  O   UNL     1     -26.213  -3.301  61.647  0.00  0.00    +0.000 OA
ATOM     34  H   UNL     1     -25.903  -2.387  61.760  0.00  0.00    +0.000 HD
ENDBRANCH  28  33
BRANCH  29  35
ATOM     35  O   UNL     1     -27.770  -5.115  60.227  0.00  0.00    +0.000 OA
ATOM     36  H   UNL     1     -27.960  -5.398  61.138  0.00  0.00    +0.000 HD
ENDBRANCH  29  35
BRANCH  30  37
ATOM     37  O   UNL     1     -25.508  -1.514  59.485  0.00  0.00    +0.000 OA
ATOM     38  H   UNL     1     -24.990  -1.370  58.674  0.00  0.00    +0.000 HD
ENDBRANCH  30  37
BRANCH  31  39
ATOM     39  C   UNL     1     -26.623  -6.876  58.239  0.00  0.00    +0.000 C 
BRANCH  39  40
ATOM     40  O   UNL     1     -27.873  -6.645  57.616  0.00  0.00    +0.000 OA
ATOM     41  H   UNL     1     -28.188  -7.495  57.265  0.00  0.00    +0.000 HD
ENDBRANCH  39  40
ENDBRANCH  31  39
ENDBRANCH  26  32
ENDBRANCH   3  26
TORSDOF 12
ENDMDL
MODEL 2
REMARK VINA RESULT:    -7.366      1.804      6.014
REMARK INTER + INTRA:         -11.782
REMARK INTER:                 -10.560
REMARK INTRA:                  -1.223
REMARK UNBOUND:                -0.971
REMARK  Name = 5281643
REMARK  12 active torsions:
REMARK  status: ('A' for Active; 'I' for Inactive)
REMARK    1  A    between atoms: O_2  and  C_17
REMARK    2  A    between atoms: O_2  and  C_19
REMARK    3  A    between atoms: O_3  and  C_13
REMARK    4  A    between atoms: O_4  and  C_14
REMARK    5  A    between atoms: O_5  and  C_15
REMARK    6  A    between atoms: O_6  and  C_18
REMARK    7  A    between atoms: O_9  and  C_25
REMARK    8  A    between atoms: O_10  and  C_30
REMARK    9  A    between atoms: O_11  and  C_31
REMARK   10  A    between atoms: O_12  and  C_33
REMARK   11  A    between atoms: C_16  and  C_18
REMARK   12  A    between atoms: C_20  and  C_24
REMARK                            x       y       z     vdW  Elec       q    Type
REMARK                         _______ _______ _______ _____ _____    ______ ____
ROOT
ATOM      1  O   UNL     1     -25.952  -5.160  53.456  0.00  0.00    +0.000 OA
ATOM      2  O   UNL     1     -28.258  -6.052  56.695  0.00  0.00    +0.000 OA
ATOM      3  C   UNL     1     -26.784  -4.530  55.637  0.00  0.00    +0.000 A 
ATOM      4  C   UNL     1     -26.039  -4.302  54.540  0.00  0.00    +0.000 A 
ATOM      5  C   UNL     1     -27.563  -5.789  55.723  0.00  0.00    +0.000 A 
ATOM      6  C   UNL     1     -27.455  -6.703  54.575  0.00  0.00    +0.000 A 
ATOM      7  C   UNL     1     -26.652  -6.339  53.497  0.00  0.00    +0.000 A 
ATOM      8  C   UNL     1     -28.146  -7.917  54.560  0.00  0.00    +0.000 A 
ATOM      9  C   UNL     1     -26.535  -7.187  52.395  0.00  0.00    +0.000 A 
ATOM     10  C   UNL     1     -28.028  -8.763  53.458  0.00  0.00    +0.000 A 
ATOM     11  C   UNL     1     -27.224  -8.400  52.377  0.00  0.00    +0.000 A 
ENDROOT
BRANCH   4  12
ATOM     12  C   UNL     1     -25.241  -3.074  54.367  0.00  0.00    +0.000 A 
ATOM     13  C   UNL     1     -25.870  -1.878  54.020  0.00  0.00    +0.000 A 
ATOM     14  C   UNL     1     -23.859  -3.107  54.551  0.00  0.00    +0.000 A 
ATOM     15  C   UNL     1     -25.117  -0.715  53.856  0.00  0.00    +0.000 A 
ATOM     16  C   UNL     1     -23.105  -1.945  54.388  0.00  0.00    +0.000 A 
ATOM     17  C   UNL     1     -23.734  -0.749  54.040  0.00  0.00    +0.000 A 
BRANCH  15  18
ATOM     18  O   UNL     1     -25.741   0.446  53.516  0.00  0.00    +0.000 OA
ATOM     19  H   UNL     1     -26.017   0.384  52.585  0.00  0.00    +0.000 HD
ENDBRANCH  15  18
BRANCH  17  20
ATOM     20  O   UNL     1     -22.987   0.379  53.884  0.00  0.00    +0.000 OA
ATOM     21  H   UNL     1     -23.577   1.121  53.664  0.00  0.00    +0.000 HD
ENDBRANCH  17  20
ENDBRANCH   4  12
BRANCH   8  22
ATOM     22  O   UNL     1     -28.945  -8.319  55.588  0.00  0.00    +0.000 OA
ATOM     23  H   UNL     1     -29.095  -7.590  56.210  0.00  0.00    +0.000 HD
ENDBRANCH   8  22
BRANCH  11  24
ATOM     24  O   UNL     1     -27.114  -9.227  51.303  0.00  0.00    +0.000 OA
ATOM     25  H   UNL     1     -27.810  -9.905  51.354  0.00  0.00    +0.000 HD
ENDBRANCH  11  24
BRANCH   3  26
ATOM     26  O   UNL     1     -26.875  -3.640  56.684  0.00  0.00    +0.000 OA
BRANCH  26  32
ATOM     27  O   UNL     1     -26.310  -4.854  58.597  0.00  0.00    +0.000 OA
ATOM     28  C   UNL     1     -24.599  -2.748  59.526  0.00  0.00    +0.000 C 
ATOM     29  C   UNL     1     -25.076  -3.874  60.444  0.00  0.00    +0.000 C 
ATOM     30  C   UNL     1     -25.565  -2.544  58.360  0.00  0.00    +0.000 C 
ATOM     31  C   UNL     1     -25.347  -5.137  59.620  0.00  0.00    +0.000 C 
ATOM     32  C   UNL     1     -25.861  -3.874  57.662  0.00  0.00    +0.000 C 
BRANCH  28  33
ATOM     33  O   UNL     1     -24.485  -1.532  60.259  0.00  0.00    +0.000 OA
ATOM     34  H   UNL     1     -24.580  -1.750  61.202  0.00  0.00    +0.000 HD
ENDBRANCH  28  33
BRANCH  29  35
ATOM     35  O   UNL     1     -26.283  -3.478  61.100  0.00  0.00    +0.000 OA
ATOM     36  H   UNL     1     -26.372  -4.026  61.897  0.00  0.00    +0.000 HD
ENDBRANCH  29  35
BRANCH  30  37
ATOM     37  O   UNL     1     -24.976  -1.655  57.411  0.00  0.00    +0.000 OA
ATOM     38  H   UNL     1     -25.695  -1.322  56.848  0.00  0.00    +0.000 HD
ENDBRANCH  30  37
BRANCH  31  39
ATOM     39  C   UNL     1     -25.905  -6.275  60.467  0.00  0.00    +0.000 C 
BRANCH  39  40
ATOM     40  O   UNL     1     -27.310  -6.126  60.555  0.00  0.00    +0.000 OA
ATOM     41  H   UNL     1     -27.509  -5.175  60.500  0.00  0.00    +0.000 HD
ENDBRANCH  39  40
ENDBRANCH  31  39
ENDBRANCH  26  32
ENDBRANCH   3  26
TORSDOF 12
ENDMDL
MODEL 3
REMARK VINA RESULT:    -6.878      1.844      5.931
REMARK INTER + INTRA:         -11.066
REMARK INTER:                 -10.070
REMARK INTRA:                  -0.996
REMARK UNBOUND:                -0.971
REMARK  Name = 5281643
REMARK  12 active torsions:
REMARK  status: ('A' for Active; 'I' for Inactive)
REMARK    1  A    between atoms: O_2  and  C_17
REMARK    2  A    between atoms: O_2  and  C_19
REMARK    3  A    between atoms: O_3  and  C_13
REMARK    4  A    between atoms: O_4  and  C_14
REMARK    5  A    between atoms: O_5  and  C_15
REMARK    6  A    between atoms: O_6  and  C_18
REMARK    7  A    between atoms: O_9  and  C_25
REMARK    8  A    between atoms: O_10  and  C_30
REMARK    9  A    between atoms: O_11  and  C_31
REMARK   10  A    between atoms: O_12  and  C_33
REMARK   11  A    between atoms: C_16  and  C_18
REMARK   12  A    between atoms: C_20  and  C_24
REMARK                            x       y       z     vdW  Elec       q    Type
REMARK                         _______ _______ _______ _____ _____    ______ ____
ROOT
ATOM      1  O   UNL     1     -26.107  -5.554  57.464  0.00  0.00    +0.000 OA
ATOM      2  O   UNL     1     -26.457  -1.495  57.498  0.00  0.00    +0.000 OA
ATOM      3  C   UNL     1     -26.426  -3.497  56.234  0.00  0.00    +0.000 A 
ATOM      4  C   UNL     1     -26.296  -4.835  56.295  0.00  0.00    +0.000 A 
ATOM      5  C   UNL     1     -26.347  -2.713  57.491  0.00  0.00    +0.000 A 
ATOM      6  C   UNL     1     -26.130  -3.481  58.726  0.00  0.00    +0.000 A 
ATOM      7  C   UNL     1     -26.022  -4.868  58.648  0.00  0.00    +0.000 A 
ATOM      8  C   UNL     1     -26.038  -2.836  59.962  0.00  0.00    +0.000 A 
ATOM      9  C   UNL     1     -25.820  -5.619  59.806  0.00  0.00    +0.000 A 
ATOM     10  C   UNL     1     -25.835  -3.589  61.119  0.00  0.00    +0.000 A 
ATOM     11  C   UNL     1     -25.726  -4.978  61.041  0.00  0.00    +0.000 A 
ENDROOT
BRANCH   4  12
ATOM     12  C   UNL     1     -26.371  -5.692  55.098  0.00  0.00    +0.000 A 
ATOM     13  C   UNL     1     -25.208  -6.259  54.572  0.00  0.00    +0.000 A 
ATOM     14  C   UNL     1     -27.602  -5.938  54.491  0.00  0.00    +0.000 A 
ATOM     15  C   UNL     1     -25.279  -7.071  53.441  0.00  0.00    +0.000 A 
ATOM     16  C   UNL     1     -27.672  -6.750  53.359  0.00  0.00    +0.000 A 
ATOM     17  C   UNL     1     -26.511  -7.316  52.833  0.00  0.00    +0.000 A 
BRANCH  15  18
ATOM     18  O   UNL     1     -24.138  -7.617  52.936  0.00  0.00    +0.000 OA
ATOM     19  H   UNL     1     -23.384  -7.292  53.459  0.00  0.00    +0.000 HD
ENDBRANCH  15  18
BRANCH  17  20
ATOM     20  O   UNL     1     -26.592  -8.107  51.728  0.00  0.00    +0.000 OA
ATOM     21  H   UNL     1     -26.501  -7.552  50.934  0.00  0.00    +0.000 HD
ENDBRANCH  17  20
ENDBRANCH   4  12
BRANCH   8  22
ATOM     22  O   UNL     1     -26.138  -1.484  60.093  0.00  0.00    +0.000 OA
ATOM     23  H   UNL     1     -25.398  -1.041  59.651  0.00  0.00    +0.000 HD
ENDBRANCH   8  22
BRANCH  11  24
ATOM     24  O   UNL     1     -25.532  -5.708  62.173  0.00  0.00    +0.000 OA
ATOM     25  H   UNL     1     -25.597  -5.119  62.944  0.00  0.00    +0.000 HD
ENDBRANCH  11  24
BRANCH   3  26
ATOM     26  O   UNL     1     -26.646  -2.814  55.058  0.00  0.00    +0.000 OA
BRANCH  26  32
ATOM     27  O   UNL     1     -24.320  -2.830  55.252  0.00  0.00    +0.000 OA
ATOM     28  C   UNL     1     -24.103  -0.359  53.814  0.00  0.00    +0.000 C 
ATOM     29  C   UNL     1     -22.950  -0.919  54.647  0.00  0.00    +0.000 C 
ATOM     30  C   UNL     1     -25.448  -0.882  54.316  0.00  0.00    +0.000 C 
ATOM     31  C   UNL     1     -23.050  -2.447  54.710  0.00  0.00    +0.000 C 
ATOM     32  C   UNL     1     -25.421  -2.406  54.450  0.00  0.00    +0.000 C 
BRANCH  28  33
ATOM     33  O   UNL     1     -24.103   1.065  53.870  0.00  0.00    +0.000 OA
ATOM     34  H   UNL     1     -24.772   1.381  53.240  0.00  0.00    +0.000 HD
ENDBRANCH  28  33
BRANCH  29  35
ATOM     35  O   UNL     1     -23.018  -0.392  55.975  0.00  0.00    +0.000 OA
ATOM     36  H   UNL     1     -23.794   0.191  56.014  0.00  0.00    +0.000 HD
ENDBRANCH  29  35
BRANCH  30  37
ATOM     37  O   UNL     1     -26.468  -0.526  53.383  0.00  0.00    +0.000 OA
ATOM     38  H   UNL     1     -26.853   0.313  53.688  0.00  0.00    +0.000 HD
ENDBRANCH  30  37
BRANCH  31  39
ATOM     39  C   UNL     1     -21.973  -3.063  55.597  0.00  0.00    +0.000 C 
BRANCH  39  40
ATOM     40  O   UNL     1     -22.491  -3.203  56.907  0.00  0.00    +0.000 OA
ATOM     41  H   UNL     1     -21.945  -2.658  57.499  0.00  0.00    +0.000 HD
ENDBRANCH  39  40
ENDBRANCH  31  39
ENDBRANCH  26  32
ENDBRANCH   3  26
TORSDOF 12
ENDMDL
MODEL 4
REMARK VINA RESULT:    -6.815     20.947     22.906
REMARK INTER + INTRA:         -10.974
REMARK INTER:                  -9.763
REMARK INTRA:                  -1.211
REMARK UNBOUND:                -0.971
REMARK  Name = 5281643
REMARK  12 active torsions:
REMARK  status: ('A' for Active; 'I' for Inactive)
REMARK    1  A    between atoms: O_2  and  C_17
REMARK    2  A    between atoms: O_2  and  C_19
REMARK    3  A    between atoms: O_3  and  C_13
REMARK    4  A    between atoms: O_4  and  C_14
REMARK    5  A    between atoms: O_5  and  C_15
REMARK    6  A    between atoms: O_6  and  C_18
REMARK    7  A    between atoms: O_9  and  C_25
REMARK    8  A    between atoms: O_10  and  C_30
REMARK    9  A    between atoms: O_11  and  C_31
REMARK   10  A    between atoms: O_12  and  C_33
REMARK   11  A    between atoms: C_16  and  C_18
REMARK   12  A    between atoms: C_20  and  C_24
REMARK                            x       y       z     vdW  Elec       q    Type
REMARK                         _______ _______ _______ _____ _____    ______ ____
ROOT
ATOM      1  O   UNL     1     -38.809  14.615  53.387  0.00  0.00    +0.000 OA
ATOM      2  O   UNL     1     -38.632  12.604  56.926  0.00  0.00    +0.000 OA
ATOM      3  C   UNL     1     -37.652  14.190  55.467  0.00  0.00    +0.000 A 
ATOM      4  C   UNL     1     -37.769  14.814  54.281  0.00  0.00    +0.000 A 
ATOM      5  C   UNL     1     -38.686  13.203  55.861  0.00  0.00    +0.000 A 
ATOM      6  C   UNL     1     -39.779  12.985  54.901  0.00  0.00    +0.000 A 
ATOM      7  C   UNL     1     -39.784  13.706  53.709  0.00  0.00    +0.000 A 
ATOM      8  C   UNL     1     -40.800  12.072  55.177  0.00  0.00    +0.000 A 
ATOM      9  C   UNL     1     -40.811  13.520  52.784  0.00  0.00    +0.000 A 
ATOM     10  C   UNL     1     -41.826  11.887  54.250  0.00  0.00    +0.000 A 
ATOM     11  C   UNL     1     -41.832  12.609  53.056  0.00  0.00    +0.000 A 
ENDROOT
BRANCH   4  12
ATOM     12  C   UNL     1     -36.794  15.816  53.814  0.00  0.00    +0.000 A 
ATOM     13  C   UNL     1     -37.239  17.019  53.264  0.00  0.00    +0.000 A 
ATOM     14  C   UNL     1     -35.426  15.563  53.922  0.00  0.00    +0.000 A 
ATOM     15  C   UNL     1     -36.317  17.968  52.823  0.00  0.00    +0.000 A 
ATOM     16  C   UNL     1     -34.504  16.512  53.482  0.00  0.00    +0.000 A 
ATOM     17  C   UNL     1     -34.949  17.714  52.931  0.00  0.00    +0.000 A 
BRANCH  15  18
ATOM     18  O   UNL     1     -36.762  19.138  52.287  0.00  0.00    +0.000 OA
ATOM     19  H   UNL     1     -37.584  19.390  52.743  0.00  0.00    +0.000 HD
ENDBRANCH  15  18
BRANCH  17  20
ATOM     20  O   UNL     1     -34.038  18.633  52.505  0.00  0.00    +0.000 OA
ATOM     21  H   UNL     1     -34.077  18.690  51.534  0.00  0.00    +0.000 HD
ENDBRANCH  17  20
ENDBRANCH   4  12
BRANCH   8  22
ATOM     22  O   UNL     1     -40.843  11.343  56.326  0.00  0.00    +0.000 OA
ATOM     23  H   UNL     1     -41.444  11.752  56.968  0.00  0.00    +0.000 HD
ENDBRANCH   8  22
BRANCH  11  24
ATOM     24  O   UNL     1     -42.837  12.427  52.157  0.00  0.00    +0.000 OA
ATOM     25  H   UNL     1     -42.585  11.720  51.539  0.00  0.00    +0.000 HD
ENDBRANCH  11  24
BRANCH   3  26
ATOM     26  O   UNL     1     -36.621  14.436  56.348  0.00  0.00    +0.000 OA
BRANCH  26  32
ATOM     27  O   UNL     1     -36.429  16.668  57.007  0.00  0.00    +0.000 OA
ATOM     28  C   UNL     1     -36.706  15.959  59.772  0.00  0.00    +0.000 C 
ATOM     29  C   UNL     1     -36.171  17.322  59.331  0.00  0.00    +0.000 C 
ATOM     30  C   UNL     1     -36.480  14.904  58.690  0.00  0.00    +0.000 C 
ATOM     31  C   UNL     1     -36.750  17.688  57.960  0.00  0.00    +0.000 C 
ATOM     32  C   UNL     1     -36.993  15.398  57.335  0.00  0.00    +0.000 C 
BRANCH  28  33
ATOM     33  O   UNL     1     -36.063  15.544  60.974  0.00  0.00    +0.000 OA
ATOM     34  H   UNL     1     -36.441  16.066  61.701  0.00  0.00    +0.000 HD
ENDBRANCH  28  33
BRANCH  29  35
ATOM     35  O   UNL     1     -34.745  17.268  59.235  0.00  0.00    +0.000 OA
ATOM     36  H   UNL     1     -34.513  17.403  58.301  0.00  0.00    +0.000 HD
ENDBRANCH  29  35
BRANCH  30  37
ATOM     37  O   UNL     1     -37.190  13.715  59.037  0.00  0.00    +0.000 OA
ATOM     38  H   UNL     1     -37.974  13.989  59.544  0.00  0.00    +0.000 HD
ENDBRANCH  30  37
BRANCH  31  39
ATOM     39  C   UNL     1     -36.190  19.002  57.426  0.00  0.00    +0.000 C 
BRANCH  39  40
ATOM     40  O   UNL     1     -35.829  19.819  58.524  0.00  0.00    +0.000 OA
ATOM     41  H   UNL     1     -35.098  19.379  58.990  0.00  0.00    +0.000 HD
ENDBRANCH  39  40
ENDBRANCH  31  39
ENDBRANCH  26  32
ENDBRANCH   3  26
TORSDOF 12
ENDMDL
MODEL 5
REMARK VINA RESULT:    -6.791     19.744     21.722
REMARK INTER + INTRA:         -10.938
REMARK INTER:                  -9.728
REMARK INTRA:                  -1.210
REMARK UNBOUND:                -0.971
REMARK  Name = 5281643
REMARK  12 active torsions:
REMARK  status: ('A' for Active; 'I' for Inactive)
REMARK    1  A    between atoms: O_2  and  C_17
REMARK    2  A    between atoms: O_2  and  C_19
REMARK    3  A    between atoms: O_3  and  C_13
REMARK    4  A    between atoms: O_4  and  C_14
REMARK    5  A    between atoms: O_5  and  C_15
REMARK    6  A    between atoms: O_6  and  C_18
REMARK    7  A    between atoms: O_9  and  C_25
REMARK    8  A    between atoms: O_10  and  C_30
REMARK    9  A    between atoms: O_11  and  C_31
REMARK   10  A    between atoms: O_12  and  C_33
REMARK   11  A    between atoms: C_16  and  C_18
REMARK   12  A    between atoms: C_20  and  C_24
REMARK                            x       y       z     vdW  Elec       q    Type
REMARK                         _______ _______ _______ _____ _____    ______ ____
ROOT
ATOM      1  O   UNL     1     -37.436  13.082  54.663  0.00  0.00    +0.000 OA
ATOM      2  O   UNL     1     -40.326  15.436  53.018  0.00  0.00    +0.000 OA
ATOM      3  C   UNL     1     -39.737  13.352  53.973  0.00  0.00    +0.000 A 
ATOM      4  C   UNL     1     -38.734  12.627  54.502  0.00  0.00    +0.000 A 
ATOM      5  C   UNL     1     -39.454  14.731  53.507  0.00  0.00    +0.000 A 
ATOM      6  C   UNL     1     -38.070  15.202  53.668  0.00  0.00    +0.000 A 
ATOM      7  C   UNL     1     -37.129  14.350  54.240  0.00  0.00    +0.000 A 
ATOM      8  C   UNL     1     -37.701  16.486  53.257  0.00  0.00    +0.000 A 
ATOM      9  C   UNL     1     -35.811  14.775  54.406  0.00  0.00    +0.000 A 
ATOM     10  C   UNL     1     -36.382  16.909  53.423  0.00  0.00    +0.000 A 
ATOM     11  C   UNL     1     -35.439  16.056  53.997  0.00  0.00    +0.000 A 
ENDROOT
BRANCH   4  12
ATOM     12  C   UNL     1     -38.928  11.252  54.998  0.00  0.00    +0.000 A 
ATOM     13  C   UNL     1     -39.532  11.037  56.238  0.00  0.00    +0.000 A 
ATOM     14  C   UNL     1     -38.508  10.166  54.230  0.00  0.00    +0.000 A 
ATOM     15  C   UNL     1     -39.716   9.737  56.707  0.00  0.00    +0.000 A 
ATOM     16  C   UNL     1     -38.692   8.866  54.700  0.00  0.00    +0.000 A 
ATOM     17  C   UNL     1     -39.296   8.651  55.938  0.00  0.00    +0.000 A 
BRANCH  15  18
ATOM     18  O   UNL     1     -40.307   9.539  57.919  0.00  0.00    +0.000 OA
ATOM     19  H   UNL     1     -41.144   9.064  57.777  0.00  0.00    +0.000 HD
ENDBRANCH  15  18
BRANCH  17  20
ATOM     20  O   UNL     1     -39.471   7.377  56.386  0.00  0.00    +0.000 OA
ATOM     21  H   UNL     1     -38.934   7.247  57.188  0.00  0.00    +0.000 HD
ENDBRANCH  17  20
ENDBRANCH   4  12
BRANCH   8  22
ATOM     22  O   UNL     1     -38.582  17.358  52.693  0.00  0.00    +0.000 OA
ATOM     23  H   UNL     1     -38.964  16.983  51.884  0.00  0.00    +0.000 HD
ENDBRANCH   8  22
BRANCH  11  24
ATOM     24  O   UNL     1     -34.154  16.474  54.160  0.00  0.00    +0.000 OA
ATOM     25  H   UNL     1     -33.560  15.708  54.087  0.00  0.00    +0.000 HD
ENDBRANCH  11  24
BRANCH   3  26
ATOM     26  O   UNL     1     -41.027  12.880  53.857  0.00  0.00    +0.000 OA
BRANCH  26  32
ATOM     27  O   UNL     1     -41.173  12.690  51.534  0.00  0.00    +0.000 OA
ATOM     28  C   UNL     1     -42.739  10.298  51.748  0.00  0.00    +0.000 C 
ATOM     29  C   UNL     1     -42.650  11.098  50.448  0.00  0.00    +0.000 C 
ATOM     30  C   UNL     1     -42.456  11.184  52.960  0.00  0.00    +0.000 C 
ATOM     31  C   UNL     1     -41.312  11.842  50.388  0.00  0.00    +0.000 C 
ATOM     32  C   UNL     1     -41.156  11.969  52.765  0.00  0.00    +0.000 C 
BRANCH  28  33
ATOM     33  O   UNL     1     -44.035   9.721  51.882  0.00  0.00    +0.000 OA
ATOM     34  H   UNL     1     -44.684  10.438  51.787  0.00  0.00    +0.000 HD
ENDBRANCH  28  33
BRANCH  29  35
ATOM     35  O   UNL     1     -43.715  12.050  50.399  0.00  0.00    +0.000 OA
ATOM     36  H   UNL     1     -43.471  12.724  49.743  0.00  0.00    +0.000 HD
ENDBRANCH  29  35
BRANCH  30  37
ATOM     37  O   UNL     1     -42.321  10.365  54.121  0.00  0.00    +0.000 OA
ATOM     38  H   UNL     1     -43.166  10.408  54.600  0.00  0.00    +0.000 HD
ENDBRANCH  30  37
BRANCH  31  39
ATOM     39  C   UNL     1     -41.195  12.726  49.151  0.00  0.00    +0.000 C 
BRANCH  39  40
ATOM     40  O   UNL     1     -42.145  12.293  48.194  0.00  0.00    +0.000 OA
ATOM     41  H   UNL     1     -43.007  12.663  48.448  0.00  0.00    +0.000 HD
ENDBRANCH  39  40
ENDBRANCH  31  39
ENDBRANCH  26  32
ENDBRANCH   3  26
TORSDOF 12
ENDMDL
MODEL 6
REMARK VINA RESULT:    -6.789     19.833     22.745
REMARK INTER + INTRA:         -10.934
REMARK INTER:                  -9.672
REMARK INTRA:                  -1.263
REMARK UNBOUND:                -0.971
REMARK  Name = 5281643
REMARK  12 active torsions:
REMARK  status: ('A' for Active; 'I' for Inactive)
REMARK    1  A    between atoms: O_2  and  C_17
REMARK    2  A    between atoms: O_2  and  C_19
REMARK    3  A    between atoms: O_3  and  C_13
REMARK    4  A    between atoms: O_4  and  C_14
REMARK    5  A    between atoms: O_5  and  C_15
REMARK    6  A    between atoms: O_6  and  C_18
REMARK    7  A    between atoms: O_9  and  C_25
REMARK    8  A    between atoms: O_10  and  C_30
REMARK    9  A    between atoms: O_11  and  C_31
REMARK   10  A    between atoms: O_12  and  C_33
REMARK   11  A    between atoms: C_16  and  C_18
REMARK   12  A    between atoms: C_20  and  C_24
REMARK                            x       y       z     vdW  Elec       q    Type
REMARK                         _______ _______ _______ _____ _____    ______ ____
ROOT
ATOM      1  O   UNL     1     -40.733  14.082  53.411  0.00  0.00    +0.000 OA
ATOM      2  O   UNL     1     -38.228  11.298  55.015  0.00  0.00    +0.000 OA
ATOM      3  C   UNL     1     -38.950  13.552  54.955  0.00  0.00    +0.000 A 
ATOM      4  C   UNL     1     -39.801  14.420  54.379  0.00  0.00    +0.000 A 
ATOM      5  C   UNL     1     -38.979  12.132  54.528  0.00  0.00    +0.000 A 
ATOM      6  C   UNL     1     -39.959  11.783  53.489  0.00  0.00    +0.000 A 
ATOM      7  C   UNL     1     -40.789  12.781  52.983  0.00  0.00    +0.000 A 
ATOM      8  C   UNL     1     -40.063  10.473  53.016  0.00  0.00    +0.000 A 
ATOM      9  C   UNL     1     -41.730  12.474  51.999  0.00  0.00    +0.000 A 
ATOM     10  C   UNL     1     -41.004  10.169  52.032  0.00  0.00    +0.000 A 
ATOM     11  C   UNL     1     -41.836  11.167  51.524  0.00  0.00    +0.000 A 
ENDROOT
BRANCH   4  12
ATOM     12  C   UNL     1     -39.848  15.847  54.749  0.00  0.00    +0.000 A 
ATOM     13  C   UNL     1     -39.190  16.793  53.961  0.00  0.00    +0.000 A 
ATOM     14  C   UNL     1     -40.548  16.251  55.885  0.00  0.00    +0.000 A 
ATOM     15  C   UNL     1     -39.234  18.142  54.310  0.00  0.00    +0.000 A 
ATOM     16  C   UNL     1     -40.593  17.601  56.233  0.00  0.00    +0.000 A 
ATOM     17  C   UNL     1     -39.935  18.547  55.447  0.00  0.00    +0.000 A 
BRANCH  15  18
ATOM     18  O   UNL     1     -38.588  19.057  53.534  0.00  0.00    +0.000 OA
ATOM     19  H   UNL     1     -37.985  19.568  54.102  0.00  0.00    +0.000 HD
ENDBRANCH  15  18
BRANCH  17  20
ATOM     20  O   UNL     1     -39.986  19.862  55.797  0.00  0.00    +0.000 OA
ATOM     21  H   UNL     1     -40.786  20.017  56.329  0.00  0.00    +0.000 HD
ENDBRANCH  17  20
ENDBRANCH   4  12
BRANCH   8  22
ATOM     22  O   UNL     1     -39.277   9.461  53.478  0.00  0.00    +0.000 OA
ATOM     23  H   UNL     1     -39.773   8.895  54.090  0.00  0.00    +0.000 HD
ENDBRANCH   8  22
BRANCH  11  24
ATOM     24  O   UNL     1     -42.754  10.865  50.567  0.00  0.00    +0.000 OA
ATOM     25  H   UNL     1     -43.223  10.052  50.823  0.00  0.00    +0.000 HD
ENDBRANCH  11  24
BRANCH   3  26
ATOM     26  O   UNL     1     -38.057  13.915  55.940  0.00  0.00    +0.000 OA
BRANCH  26  32
ATOM     27  O   UNL     1     -36.002  13.719  54.850  0.00  0.00    +0.000 OA
ATOM     28  C   UNL     1     -35.033  16.124  56.074  0.00  0.00    +0.000 C 
ATOM     29  C   UNL     1     -34.097  15.120  55.401  0.00  0.00    +0.000 C 
ATOM     30  C   UNL     1     -36.322  15.448  56.539  0.00  0.00    +0.000 C 
ATOM     31  C   UNL     1     -34.849  14.367  54.299  0.00  0.00    +0.000 C 
ATOM     32  C   UNL     1     -36.947  14.633  55.404  0.00  0.00    +0.000 C 
BRANCH  28  33
ATOM     33  O   UNL     1     -34.387  16.724  57.194  0.00  0.00    +0.000 OA
ATOM     34  H   UNL     1     -34.914  17.499  57.453  0.00  0.00    +0.000 HD
ENDBRANCH  28  33
BRANCH  29  35
ATOM     35  O   UNL     1     -33.628  14.179  56.371  0.00  0.00    +0.000 OA
ATOM     36  H   UNL     1     -34.344  14.046  57.014  0.00  0.00    +0.000 HD
ENDBRANCH  29  35
BRANCH  30  37
ATOM     37  O   UNL     1     -37.256  16.447  56.948  0.00  0.00    +0.000 OA
ATOM     38  H   UNL     1     -37.285  16.430  57.919  0.00  0.00    +0.000 HD
ENDBRANCH  30  37
BRANCH  31  39
ATOM     39  C   UNL     1     -33.992  13.290  53.642  0.00  0.00    +0.000 C 
BRANCH  39  40
ATOM     40  O   UNL     1     -32.640  13.709  53.671  0.00  0.00    +0.000 OA
ATOM     41  H   UNL     1     -32.088  12.914  53.776  0.00  0.00    +0.000 HD
ENDBRANCH  39  40
ENDBRANCH  31  39
ENDBRANCH  26  32
ENDBRANCH   3  26
TORSDOF 12
ENDMDL
MODEL 7
REMARK VINA RESULT:    -6.692     20.138     22.926
REMARK INTER + INTRA:         -10.792
REMARK INTER:                  -9.197
REMARK INTRA:                  -1.595
REMARK UNBOUND:                -0.971
REMARK  Name = 5281643
REMARK  12 active torsions:
REMARK  status: ('A' for Active; 'I' for Inactive)
REMARK    1  A    between atoms: O_2  and  C_17
REMARK    2  A    between atoms: O_2  and  C_19
REMARK    3  A    between atoms: O_3  and  C_13
REMARK    4  A    between atoms: O_4  and  C_14
REMARK    5  A    between atoms: O_5  and  C_15
REMARK    6  A    between atoms: O_6  and  C_18
REMARK    7  A    between atoms: O_9  and  C_25
REMARK    8  A    between atoms: O_10  and  C_30
REMARK    9  A    between atoms: O_11  and  C_31
REMARK   10  A    between atoms: O_12  and  C_33
REMARK   11  A    between atoms: C_16  and  C_18
REMARK   12  A    between atoms: C_20  and  C_24
REMARK                            x       y       z     vdW  Elec       q    Type
REMARK                         _______ _______ _______ _____ _____    ______ ____
ROOT
ATOM      1  O   UNL     1     -35.745  14.405  56.398  0.00  0.00    +0.000 OA
ATOM      2  O   UNL     1     -36.833  18.090  55.042  0.00  0.00    +0.000 OA
ATOM      3  C   UNL     1     -37.124  16.375  56.648  0.00  0.00    +0.000 A 
ATOM      4  C   UNL     1     -36.722  15.152  57.038  0.00  0.00    +0.000 A 
ATOM      5  C   UNL     1     -36.507  16.982  55.444  0.00  0.00    +0.000 A 
ATOM      6  C   UNL     1     -35.482  16.178  54.761  0.00  0.00    +0.000 A 
ATOM      7  C   UNL     1     -35.153  14.926  55.276  0.00  0.00    +0.000 A 
ATOM      8  C   UNL     1     -34.844  16.658  53.615  0.00  0.00    +0.000 A 
ATOM      9  C   UNL     1     -34.182  14.146  54.649  0.00  0.00    +0.000 A 
ATOM     10  C   UNL     1     -33.873  15.876  52.989  0.00  0.00    +0.000 A 
ATOM     11  C   UNL     1     -33.543  14.622  53.504  0.00  0.00    +0.000 A 
ENDROOT
BRANCH   4  12
ATOM     12  C   UNL     1     -37.274  14.478  58.227  0.00  0.00    +0.000 A 
ATOM     13  C   UNL     1     -36.536  14.439  59.411  0.00  0.00    +0.000 A 
ATOM     14  C   UNL     1     -38.533  13.881  58.170  0.00  0.00    +0.000 A 
ATOM     15  C   UNL     1     -37.058  13.803  60.537  0.00  0.00    +0.000 A 
ATOM     16  C   UNL     1     -39.055  13.245  59.296  0.00  0.00    +0.000 A 
ATOM     17  C   UNL     1     -38.318  13.205  60.480  0.00  0.00    +0.000 A 
BRANCH  15  18
ATOM     18  O   UNL     1     -36.329  13.770  61.687  0.00  0.00    +0.000 OA
ATOM     19  H   UNL     1     -35.989  12.866  61.808  0.00  0.00    +0.000 HD
ENDBRANCH  15  18
BRANCH  17  20
ATOM     20  O   UNL     1     -38.838  12.582  61.573  0.00  0.00    +0.000 OA
ATOM     21  H   UNL     1     -38.162  12.550  62.272  0.00  0.00    +0.000 HD
ENDBRANCH  17  20
ENDBRANCH   4  12
BRANCH   8  22
ATOM     22  O   UNL     1     -35.128  17.874  53.071  0.00  0.00    +0.000 OA
ATOM     23  H   UNL     1     -35.731  17.780  52.319  0.00  0.00    +0.000 HD
ENDBRANCH   8  22
BRANCH  11  24
ATOM     24  O   UNL     1     -32.593  13.864  52.891  0.00  0.00    +0.000 OA
ATOM     25  H   UNL     1     -31.916  13.618  53.543  0.00  0.00    +0.000 HD
ENDBRANCH  11  24
BRANCH   3  26
ATOM     26  O   UNL     1     -38.075  17.106  57.327  0.00  0.00    +0.000 OA
BRANCH  26  32
ATOM     27  O   UNL     1     -37.639  17.473  59.591  0.00  0.00    +0.000 OA
ATOM     28  C   UNL     1     -37.683  20.317  59.221  0.00  0.00    +0.000 C 
ATOM     29  C   UNL     1     -37.784  19.675  60.605  0.00  0.00    +0.000 C 
ATOM     30  C   UNL     1     -38.163  19.356  58.133  0.00  0.00    +0.000 C 
ATOM     31  C   UNL     1     -37.073  18.318  60.601  0.00  0.00    +0.000 C 
ATOM     32  C   UNL     1     -37.479  17.994  58.272  0.00  0.00    +0.000 C 
BRANCH  28  33
ATOM     33  O   UNL     1     -38.464  21.508  59.173  0.00  0.00    +0.000 OA
ATOM     34  H   UNL     1     -38.902  21.603  60.036  0.00  0.00    +0.000 HD
ENDBRANCH  28  33
BRANCH  29  35
ATOM     35  O   UNL     1     -39.160  19.479  60.942  0.00  0.00    +0.000 OA
ATOM     36  H   UNL     1     -39.206  18.705  61.529  0.00  0.00    +0.000 HD
ENDBRANCH  29  35
BRANCH  30  37
ATOM     37  O   UNL     1     -37.841  19.897  56.852  0.00  0.00    +0.000 OA
ATOM     38  H   UNL     1     -36.987  19.515  56.589  0.00  0.00    +0.000 HD
ENDBRANCH  30  37
BRANCH  31  39
ATOM     39  C   UNL     1     -37.208  17.588  61.933  0.00  0.00    +0.000 C 
BRANCH  39  40
ATOM     40  O   UNL     1     -36.054  16.792  62.131  0.00  0.00    +0.000 OA
ATOM     41  H   UNL     1     -35.411  17.326  62.630  0.00  0.00    +0.000 HD
ENDBRANCH  39  40
ENDBRANCH  31  39
ENDBRANCH  26  32
ENDBRANCH   3  26
TORSDOF 12
ENDMDL
MODEL 8
REMARK VINA RESULT:    -6.690      4.370      7.144
REMARK INTER + INTRA:         -10.790
REMARK INTER:                  -9.449
REMARK INTRA:                  -1.341
REMARK UNBOUND:                -0.971
REMARK  Name = 5281643
REMARK  12 active torsions:
REMARK  status: ('A' for Active; 'I' for Inactive)
REMARK    1  A    between atoms: O_2  and  C_17
REMARK    2  A    between atoms: O_2  and  C_19
REMARK    3  A    between atoms: O_3  and  C_13
REMARK    4  A    between atoms: O_4  and  C_14
REMARK    5  A    between atoms: O_5  and  C_15
REMARK    6  A    between atoms: O_6  and  C_18
REMARK    7  A    between atoms: O_9  and  C_25
REMARK    8  A    between atoms: O_10  and  C_30
REMARK    9  A    between atoms: O_11  and  C_31
REMARK   10  A    between atoms: O_12  and  C_33
REMARK   11  A    between atoms: C_16  and  C_18
REMARK   12  A    between atoms: C_20  and  C_24
REMARK                            x       y       z     vdW  Elec       q    Type
REMARK                         _______ _______ _______ _____ _____    ______ ____
ROOT
ATOM      1  O   UNL     1     -22.640  -1.803  62.116  0.00  0.00    +0.000 OA
ATOM      2  O   UNL     1     -19.650  -2.152  59.371  0.00  0.00    +0.000 OA
ATOM      3  C   UNL     1     -21.875  -2.670  59.993  0.00  0.00    +0.000 A 
ATOM      4  C   UNL     1     -22.815  -2.520  60.944  0.00  0.00    +0.000 A 
ATOM      5  C   UNL     1     -20.544  -2.049  60.200  0.00  0.00    +0.000 A 
ATOM      6  C   UNL     1     -20.360  -1.302  61.453  0.00  0.00    +0.000 A 
ATOM      7  C   UNL     1     -21.422  -1.217  62.350  0.00  0.00    +0.000 A 
ATOM      8  C   UNL     1     -19.141  -0.683  61.743  0.00  0.00    +0.000 A 
ATOM      9  C   UNL     1     -21.274  -0.512  63.544  0.00  0.00    +0.000 A 
ATOM     10  C   UNL     1     -18.995   0.022  62.938  0.00  0.00    +0.000 A 
ATOM     11  C   UNL     1     -20.059   0.107  63.837  0.00  0.00    +0.000 A 
ENDROOT
BRANCH   4  12
ATOM     12  C   UNL     1     -24.167  -3.095  60.818  0.00  0.00    +0.000 A 
ATOM     13  C   UNL     1     -25.150  -2.413  60.099  0.00  0.00    +0.000 A 
ATOM     14  C   UNL     1     -24.463  -4.320  61.415  0.00  0.00    +0.000 A 
ATOM     15  C   UNL     1     -26.429  -2.957  59.979  0.00  0.00    +0.000 A 
ATOM     16  C   UNL     1     -25.742  -4.864  61.294  0.00  0.00    +0.000 A 
ATOM     17  C   UNL     1     -26.725  -4.182  60.577  0.00  0.00    +0.000 A 
BRANCH  15  18
ATOM     18  O   UNL     1     -27.381  -2.282  59.277  0.00  0.00    +0.000 OA
ATOM     19  H   UNL     1     -28.117  -2.075  59.879  0.00  0.00    +0.000 HD
ENDBRANCH  15  18
BRANCH  17  20
ATOM     20  O   UNL     1     -27.970  -4.724  60.465  0.00  0.00    +0.000 OA
ATOM     21  H   UNL     1     -28.480  -4.511  61.266  0.00  0.00    +0.000 HD
ENDBRANCH  17  20
ENDBRANCH   4  12
BRANCH   8  22
ATOM     22  O   UNL     1     -18.073  -0.735  60.901  0.00  0.00    +0.000 OA
ATOM     23  H   UNL     1     -17.255  -0.900  61.395  0.00  0.00    +0.000 HD
ENDBRANCH   8  22
BRANCH  11  24
ATOM     24  O   UNL     1     -19.912   0.799  65.000  0.00  0.00    +0.000 OA
ATOM     25  H   UNL     1     -20.606   0.522  65.622  0.00  0.00    +0.000 HD
ENDBRANCH  11  24
BRANCH   3  26
ATOM     26  O   UNL     1     -22.092  -3.363  58.822  0.00  0.00    +0.000 OA
BRANCH  26  32
ATOM     27  O   UNL     1     -23.806  -2.530  57.472  0.00  0.00    +0.000 OA
ATOM     28  C   UNL     1     -21.996  -2.129  55.284  0.00  0.00    +0.000 C 
ATOM     29  C   UNL     1     -23.513  -2.130  55.096  0.00  0.00    +0.000 C 
ATOM     30  C   UNL     1     -21.596  -2.930  56.523  0.00  0.00    +0.000 C 
ATOM     31  C   UNL     1     -24.198  -1.678  56.389  0.00  0.00    +0.000 C 
ATOM     32  C   UNL     1     -22.405  -2.483  57.743  0.00  0.00    +0.000 C 
BRANCH  28  33
ATOM     33  O   UNL     1     -21.358  -2.686  54.139  0.00  0.00    +0.000 OA
ATOM     34  H   UNL     1     -20.961  -3.531  54.409  0.00  0.00    +0.000 HD
ENDBRANCH  28  33
BRANCH  29  35
ATOM     35  O   UNL     1     -23.954  -3.451  54.773  0.00  0.00    +0.000 OA
ATOM     36  H   UNL     1     -23.681  -3.631  53.857  0.00  0.00    +0.000 HD
ENDBRANCH  29  35
BRANCH  30  37
ATOM     37  O   UNL     1     -20.211  -2.716  56.794  0.00  0.00    +0.000 OA
ATOM     38  H   UNL     1     -19.853  -2.196  56.054  0.00  0.00    +0.000 HD
ENDBRANCH  30  37
BRANCH  31  39
ATOM     39  C   UNL     1     -25.718  -1.736  56.293  0.00  0.00    +0.000 C 
BRANCH  39  40
ATOM     40  O   UNL     1     -26.256  -0.599  56.943  0.00  0.00    +0.000 OA
ATOM     41  H   UNL     1     -26.632  -0.895  57.790  0.00  0.00    +0.000 HD
ENDBRANCH  39  40
ENDBRANCH  31  39
ENDBRANCH  26  32
ENDBRANCH   3  26
TORSDOF 12
ENDMDL
MODEL 9
REMARK VINA RESULT:    -6.655      2.276      6.415
REMARK INTER + INTRA:         -10.739
REMARK INTER:                  -9.343
REMARK INTRA:                  -1.395
REMARK UNBOUND:                -0.971
REMARK  Name = 5281643
REMARK  12 active torsions:
REMARK  status: ('A' for Active; 'I' for Inactive)
REMARK    1  A    between atoms: O_2  and  C_17
REMARK    2  A    between atoms: O_2  and  C_19
REMARK    3  A    between atoms: O_3  and  C_13
REMARK    4  A    between atoms: O_4  and  C_14
REMARK    5  A    between atoms: O_5  and  C_15
REMARK    6  A    between atoms: O_6  and  C_18
REMARK    7  A    between atoms: O_9  and  C_25
REMARK    8  A    between atoms: O_10  and  C_30
REMARK    9  A    between atoms: O_11  and  C_31
REMARK   10  A    between atoms: O_12  and  C_33
REMARK   11  A    between atoms: C_16  and  C_18
REMARK   12  A    between atoms: C_20  and  C_24
REMARK                            x       y       z     vdW  Elec       q    Type
REMARK                         _______ _______ _______ _____ _____    ______ ____
ROOT
ATOM      1  O   UNL     1     -25.006  -4.446  58.554  0.00  0.00    +0.000 OA
ATOM      2  O   UNL     1     -21.752  -1.998  58.687  0.00  0.00    +0.000 OA
ATOM      3  C   UNL     1     -23.338  -3.160  57.367  0.00  0.00    +0.000 A 
ATOM      4  C   UNL     1     -24.408  -3.975  57.396  0.00  0.00    +0.000 A 
ATOM      5  C   UNL     1     -22.726  -2.737  58.650  0.00  0.00    +0.000 A 
ATOM      6  C   UNL     1     -23.356  -3.254  59.875  0.00  0.00    +0.000 A 
ATOM      7  C   UNL     1     -24.468  -4.085  59.762  0.00  0.00    +0.000 A 
ATOM      8  C   UNL     1     -22.853  -2.917  61.134  0.00  0.00    +0.000 A 
ATOM      9  C   UNL     1     -25.086  -4.585  60.908  0.00  0.00    +0.000 A 
ATOM     10  C   UNL     1     -23.471  -3.419  62.279  0.00  0.00    +0.000 A 
ATOM     11  C   UNL     1     -24.585  -4.251  62.167  0.00  0.00    +0.000 A 
ENDROOT
BRANCH   4  12
ATOM     12  C   UNL     1     -25.085  -4.436  56.170  0.00  0.00    +0.000 A 
ATOM     13  C   UNL     1     -26.423  -4.110  55.947  0.00  0.00    +0.000 A 
ATOM     14  C   UNL     1     -24.387  -5.198  55.232  0.00  0.00    +0.000 A 
ATOM     15  C   UNL     1     -27.063  -4.546  54.787  0.00  0.00    +0.000 A 
ATOM     16  C   UNL     1     -25.027  -5.634  54.072  0.00  0.00    +0.000 A 
ATOM     17  C   UNL     1     -26.365  -5.308  53.850  0.00  0.00    +0.000 A 
BRANCH  15  18
ATOM     18  O   UNL     1     -28.370  -4.222  54.581  0.00  0.00    +0.000 OA
ATOM     19  H   UNL     1     -28.725  -3.842  55.403  0.00  0.00    +0.000 HD
ENDBRANCH  15  18
BRANCH  17  20
ATOM     20  O   UNL     1     -26.979  -5.739  52.713  0.00  0.00    +0.000 OA
ATOM     21  H   UNL     1     -27.417  -4.983  52.284  0.00  0.00    +0.000 HD
ENDBRANCH  17  20
ENDBRANCH   4  12
BRANCH   8  22
ATOM     22  O   UNL     1     -21.770  -2.108  61.299  0.00  0.00    +0.000 OA
ATOM     23  H   UNL     1     -21.836  -1.327  60.729  0.00  0.00    +0.000 HD
ENDBRANCH   8  22
BRANCH  11  24
ATOM     24  O   UNL     1     -25.187  -4.736  63.288  0.00  0.00    +0.000 OA
ATOM     25  H   UNL     1     -25.415  -5.670  63.145  0.00  0.00    +0.000 HD
ENDBRANCH  11  24
BRANCH   3  26
ATOM     26  O   UNL     1     -22.787  -2.681  56.198  0.00  0.00    +0.000 OA
BRANCH  26  32
ATOM     27  O   UNL     1     -24.228  -1.460  54.824  0.00  0.00    +0.000 OA
ATOM     28  C   UNL     1     -22.543   0.855  54.979  0.00  0.00    +0.000 C 
ATOM     29  C   UNL     1     -23.632   0.711  53.916  0.00  0.00    +0.000 C 
ATOM     30  C   UNL     1     -22.079  -0.513  55.479  0.00  0.00    +0.000 C 
ATOM     31  C   UNL     1     -24.757  -0.185  54.443  0.00  0.00    +0.000 C 
ATOM     32  C   UNL     1     -23.275  -1.377  55.884  0.00  0.00    +0.000 C 
BRANCH  28  33
ATOM     33  O   UNL     1     -21.427   1.563  54.447  0.00  0.00    +0.000 OA
ATOM     34  H   UNL     1     -21.514   2.492  54.722  0.00  0.00    +0.000 HD
ENDBRANCH  28  33
BRANCH  29  35
ATOM     35  O   UNL     1     -23.076   0.117  52.739  0.00  0.00    +0.000 OA
ATOM     36  H   UNL     1     -23.246  -0.839  52.790  0.00  0.00    +0.000 HD
ENDBRANCH  29  35
BRANCH  30  37
ATOM     37  O   UNL     1     -21.240  -0.336  56.620  0.00  0.00    +0.000 OA
ATOM     38  H   UNL     1     -21.473   0.522  57.015  0.00  0.00    +0.000 HD
ENDBRANCH  30  37
BRANCH  31  39
ATOM     39  C   UNL     1     -25.838  -0.436  53.397  0.00  0.00    +0.000 C 
BRANCH  39  40
ATOM     40  O   UNL     1     -26.152   0.793  52.768  0.00  0.00    +0.000 OA
ATOM     41  H   UNL     1     -26.428   1.417  53.462  0.00  0.00    +0.000 HD
ENDBRANCH  39  40
ENDBRANCH  31  39
ENDBRANCH  26  32
ENDBRANCH   3  26
TORSDOF 12
ENDMDL
MODEL 10
REMARK VINA RESULT:    -6.575     19.288     21.651
REMARK INTER + INTRA:         -10.621
REMARK INTER:                  -9.650
REMARK INTRA:                  -0.971
REMARK UNBOUND:                -0.971
REMARK  Name = 5281643
REMARK  12 active torsions:
REMARK  status: ('A' for Active; 'I' for Inactive)
REMARK    1  A    between atoms: O_2  and  C_17
REMARK    2  A    between atoms: O_2  and  C_19
REMARK    3  A    between atoms: O_3  and  C_13
REMARK    4  A    between atoms: O_4  and  C_14
REMARK    5  A    between atoms: O_5  and  C_15
REMARK    6  A    between atoms: O_6  and  C_18
REMARK    7  A    between atoms: O_9  and  C_25
REMARK    8  A    between atoms: O_10  and  C_30
REMARK    9  A    between atoms: O_11  and  C_31
REMARK   10  A    between atoms: O_12  and  C_33
REMARK   11  A    between atoms: C_16  and  C_18
REMARK   12  A    between atoms: C_20  and  C_24
REMARK                            x       y       z     vdW  Elec       q    Type
REMARK                         _______ _______ _______ _____ _____    ______ ____
ROOT
ATOM      1  O   UNL     1     -40.494  12.681  53.039  0.00  0.00    +0.000 OA
ATOM      2  O   UNL     1     -38.832  16.221  54.180  0.00  0.00    +0.000 OA
ATOM      3  C   UNL     1     -39.019  13.887  54.527  0.00  0.00    +0.000 A 
ATOM      4  C   UNL     1     -39.608  12.754  54.102  0.00  0.00    +0.000 A 
ATOM      5  C   UNL     1     -39.336  15.160  53.837  0.00  0.00    +0.000 A 
ATOM      6  C   UNL     1     -40.289  15.077  52.720  0.00  0.00    +0.000 A 
ATOM      7  C   UNL     1     -40.820  13.836  52.377  0.00  0.00    +0.000 A 
ATOM      8  C   UNL     1     -40.657  16.222  52.008  0.00  0.00    +0.000 A 
ATOM      9  C   UNL     1     -41.723  13.731  51.319  0.00  0.00    +0.000 A 
ATOM     10  C   UNL     1     -41.561  16.114  50.951  0.00  0.00    +0.000 A 
ATOM     11  C   UNL     1     -42.093  14.871  50.607  0.00  0.00    +0.000 A 
ENDROOT
BRANCH   4  12
ATOM     12  C   UNL     1     -39.343  11.443  54.722  0.00  0.00    +0.000 A 
ATOM     13  C   UNL     1     -39.956  11.107  55.930  0.00  0.00    +0.000 A 
ATOM     14  C   UNL     1     -38.482  10.538  54.102  0.00  0.00    +0.000 A 
ATOM     15  C   UNL     1     -39.706   9.867  56.517  0.00  0.00    +0.000 A 
ATOM     16  C   UNL     1     -38.232   9.298  54.689  0.00  0.00    +0.000 A 
ATOM     17  C   UNL     1     -38.844   8.962  55.897  0.00  0.00    +0.000 A 
BRANCH  15  18
ATOM     18  O   UNL     1     -40.309   9.550  57.697  0.00  0.00    +0.000 OA
ATOM     19  H   UNL     1     -41.272   9.619  57.577  0.00  0.00    +0.000 HD
ENDBRANCH  15  18
BRANCH  17  20
ATOM     20  O   UNL     1     -38.593   7.748  56.460  0.00  0.00    +0.000 OA
ATOM     21  H   UNL     1     -37.762   7.395  56.096  0.00  0.00    +0.000 HD
ENDBRANCH  17  20
ENDBRANCH   4  12
BRANCH   8  22
ATOM     22  O   UNL     1     -40.166  17.458  52.302  0.00  0.00    +0.000 OA
ATOM     23  H   UNL     1     -39.201  17.473  52.211  0.00  0.00    +0.000 HD
ENDBRANCH   8  22
BRANCH  11  24
ATOM     24  O   UNL     1     -42.971  14.771  49.572  0.00  0.00    +0.000 OA
ATOM     25  H   UNL     1     -43.875  14.721  49.929  0.00  0.00    +0.000 HD
ENDBRANCH  11  24
BRANCH   3  26
ATOM     26  O   UNL     1     -38.115  13.921  55.567  0.00  0.00    +0.000 OA
BRANCH  26  32
ATOM     27  O   UNL     1     -35.982  13.730  54.638  0.00  0.00    +0.000 OA
ATOM     28  C   UNL     1     -35.017  15.932  56.201  0.00  0.00    +0.000 C 
ATOM     29  C   UNL     1     -34.072  14.955  55.501  0.00  0.00    +0.000 C 
ATOM     30  C   UNL     1     -36.372  15.282  56.478  0.00  0.00    +0.000 C 
ATOM     31  C   UNL     1     -34.756  14.369  54.261  0.00  0.00    +0.000 C 
ATOM     32  C   UNL     1     -36.930  14.630  55.210  0.00  0.00    +0.000 C 
BRANCH  28  33
ATOM     33  O   UNL     1     -34.447  16.370  57.431  0.00  0.00    +0.000 OA
ATOM     34  H   UNL     1     -33.482  16.393  57.313  0.00  0.00    +0.000 HD
ENDBRANCH  28  33
BRANCH  29  35
ATOM     35  O   UNL     1     -33.735  13.891  56.394  0.00  0.00    +0.000 OA
ATOM     36  H   UNL     1     -33.305  14.290  57.170  0.00  0.00    +0.000 HD
ENDBRANCH  29  35
BRANCH  30  37
ATOM     37  O   UNL     1     -37.292  16.281  56.916  0.00  0.00    +0.000 OA
ATOM     38  H   UNL     1     -37.767  16.596  56.128  0.00  0.00    +0.000 HD
ENDBRANCH  30  37
BRANCH  31  39
ATOM     39  C   UNL     1     -33.894  13.323  53.562  0.00  0.00    +0.000 C 
BRANCH  39  40
ATOM     40  O   UNL     1     -32.547  13.760  53.583  0.00  0.00    +0.000 OA
ATOM     41  H   UNL     1     -32.135  13.481  52.748  0.00  0.00    +0.000 HD
ENDBRANCH  39  40
ENDBRANCH  31  39
ENDBRANCH  26  32
ENDBRANCH   3  26
TORSDOF 12
ENDMDL
