MODEL 1
REMARK VINA RESULT:    -9.153      0.000      0.000
REMARK INTER + INTRA:         -13.340
REMARK INTER:                 -12.898
REMARK INTRA:                  -0.441
REMARK UNBOUND:                -0.441
REMARK  Name = 341
REMARK  10 active torsions:
REMARK  status: ('A' for Active; 'I' for Inactive)
REMARK    1  A    between atoms: O_1  and  C_10
REMARK    2  A    between atoms: O_1  and  C_19
REMARK    3  A    between atoms: O_2  and  C_12
REMARK    4  A    between atoms: O_3  and  C_15
REMARK    5  A    between atoms: O_4  and  C_20
REMARK    6  A    between atoms: O_5  and  C_21
REMARK    7  A    between atoms: O_6  and  C_22
REMARK    8  A    between atoms: O_8  and  C_23
REMARK    9  A    between atoms: C_11  and  C_19
REMARK   10  A    between atoms: C_13  and  C_23
REMARK                            x       y       z     vdW  Elec       q    Type
REMARK                         _______ _______ _______ _____ _____    ______ ____
ROOT
ATOM      1  O   UNL     1     116.493 149.298 145.649  0.00  0.00    +0.000 OA
ENDROOT
BRANCH   1   2
ATOM      2  C   UNL     1     116.984 150.453 145.035  0.00  0.00    +0.000 A 
ATOM      3  C   UNL     1     116.826 151.670 145.662  0.00  0.00    +0.000 A 
ATOM      4  C   UNL     1     118.113 151.469 143.195  0.00  0.00    +0.000 A 
ATOM      5  C   UNL     1     117.616 150.324 143.817  0.00  0.00    +0.000 A 
ATOM      6  C   UNL     1     117.323 152.815 145.039  0.00  0.00    +0.000 A 
ATOM      7  C   UNL     1     117.966 152.715 143.806  0.00  0.00    +0.000 A 
BRANCH   3   8
ATOM      8  O   UNL     1     116.196 151.768 146.868  0.00  0.00    +0.000 OA
ATOM      9  H   UNL     1     115.256 151.957 146.707  0.00  0.00    +0.000 HD
ENDBRANCH   3   8
BRANCH   6  10
ATOM     10  O   UNL     1     117.188 154.037 145.627  0.00  0.00    +0.000 OA
ATOM     11  H   UNL     1     116.978 154.695 144.943  0.00  0.00    +0.000 HD
ENDBRANCH   6  10
BRANCH   4  13
ATOM     12  O   UNL     1     118.286 151.641 140.815  0.00  0.00    +0.000 OA
ATOM     13  C   UNL     1     118.786 151.364 141.910  0.00  0.00    +0.000 C 
BRANCH  13  14
ATOM     14  O   UNL     1     120.066 150.918 142.028  0.00  0.00    +0.000 OA
ATOM     15  H   UNL     1     120.694 151.465 141.509  0.00  0.00    +0.000 HD
ENDBRANCH  13  14
ENDBRANCH   4  13
ENDBRANCH   1   2
BRANCH   1  17
ATOM     16  O   UNL     1     114.483 149.614 144.512  0.00  0.00    +0.000 OA
ATOM     17  C   UNL     1     115.228 148.914 145.210  0.00  0.00    +0.000 C 
BRANCH  17  18
ATOM     18  C   UNL     1     114.900 147.574 145.673  0.00  0.00    +0.000 A 
ATOM     19  C   UNL     1     113.822 146.888 145.114  0.00  0.00    +0.000 A 
ATOM     20  C   UNL     1     115.660 146.978 146.680  0.00  0.00    +0.000 A 
ATOM     21  C   UNL     1     115.343 145.695 147.126  0.00  0.00    +0.000 A 
ATOM     22  C   UNL     1     113.505 145.604 145.559  0.00  0.00    +0.000 A 
ATOM     23  C   UNL     1     114.266 145.008 146.565  0.00  0.00    +0.000 A 
BRANCH  21  24
ATOM     24  O   UNL     1     116.092 145.125 148.110  0.00  0.00    +0.000 OA
ATOM     25  H   UNL     1     115.929 144.165 148.101  0.00  0.00    +0.000 HD
ENDBRANCH  21  24
BRANCH  22  26
ATOM     26  O   UNL     1     112.449 144.945 145.006  0.00  0.00    +0.000 OA
ATOM     27  H   UNL     1     111.908 144.559 145.717  0.00  0.00    +0.000 HD
ENDBRANCH  22  26
BRANCH  23  28
ATOM     28  O   UNL     1     113.956 143.754 147.001  0.00  0.00    +0.000 OA
ATOM     29  H   UNL     1     113.492 143.286 146.285  0.00  0.00    +0.000 HD
ENDBRANCH  23  28
ENDBRANCH  17  18
ENDBRANCH   1  17
TORSDOF 10
ENDMDL
MODEL 2
REMARK VINA RESULT:    -9.073      0.258      1.754
REMARK INTER + INTRA:         -13.228
REMARK INTER:                 -12.755
REMARK INTRA:                  -0.472
REMARK UNBOUND:                -0.441
REMARK  Name = 341
REMARK  10 active torsions:
REMARK  status: ('A' for Active; 'I' for Inactive)
REMARK    1  A    between atoms: O_1  and  C_10
REMARK    2  A    between atoms: O_1  and  C_19
REMARK    3  A    between atoms: O_2  and  C_12
REMARK    4  A    between atoms: O_3  and  C_15
REMARK    5  A    between atoms: O_4  and  C_20
REMARK    6  A    between atoms: O_5  and  C_21
REMARK    7  A    between atoms: O_6  and  C_22
REMARK    8  A    between atoms: O_8  and  C_23
REMARK    9  A    between atoms: C_11  and  C_19
REMARK   10  A    between atoms: C_13  and  C_23
REMARK                            x       y       z     vdW  Elec       q    Type
REMARK                         _______ _______ _______ _____ _____    ______ ____
ROOT
ATOM      1  O   UNL     1     116.445 149.254 145.847  0.00  0.00    +0.000 OA
ENDROOT
BRANCH   1   2
ATOM      2  C   UNL     1     117.010 150.360 145.207  0.00  0.00    +0.000 A 
ATOM      3  C   UNL     1     116.866 151.610 145.768  0.00  0.00    +0.000 A 
ATOM      4  C   UNL     1     118.268 151.247 143.384  0.00  0.00    +0.000 A 
ATOM      5  C   UNL     1     117.697 150.151 144.031  0.00  0.00    +0.000 A 
ATOM      6  C   UNL     1     117.436 152.706 145.120  0.00  0.00    +0.000 A 
ATOM      7  C   UNL     1     118.137 152.524 143.928  0.00  0.00    +0.000 A 
BRANCH   3   8
ATOM      8  O   UNL     1     116.180 151.788 146.933  0.00  0.00    +0.000 OA
ATOM      9  H   UNL     1     116.809 151.716 147.672  0.00  0.00    +0.000 HD
ENDBRANCH   3   8
BRANCH   6  10
ATOM     10  O   UNL     1     117.318 153.958 145.644  0.00  0.00    +0.000 OA
ATOM     11  H   UNL     1     117.458 153.914 146.605  0.00  0.00    +0.000 HD
ENDBRANCH   6  10
BRANCH   4  13
ATOM     12  O   UNL     1     118.707 151.561 141.053  0.00  0.00    +0.000 OA
ATOM     13  C   UNL     1     119.001 151.057 142.142  0.00  0.00    +0.000 C 
BRANCH  13  14
ATOM     14  O   UNL     1     120.082 150.244 142.294  0.00  0.00    +0.000 OA
ATOM     15  H   UNL     1     120.552 150.098 141.446  0.00  0.00    +0.000 HD
ENDBRANCH  13  14
ENDBRANCH   4  13
ENDBRANCH   1   2
BRANCH   1  17
ATOM     16  O   UNL     1     114.487 149.592 144.628  0.00  0.00    +0.000 OA
ATOM     17  C   UNL     1     115.202 148.877 145.342  0.00  0.00    +0.000 C 
BRANCH  17  18
ATOM     18  C   UNL     1     114.858 147.526 145.758  0.00  0.00    +0.000 A 
ATOM     19  C   UNL     1     115.589 146.900 146.768  0.00  0.00    +0.000 A 
ATOM     20  C   UNL     1     113.800 146.855 145.145  0.00  0.00    +0.000 A 
ATOM     21  C   UNL     1     113.472 145.559 145.541  0.00  0.00    +0.000 A 
ATOM     22  C   UNL     1     115.261 145.604 147.166  0.00  0.00    +0.000 A 
ATOM     23  C   UNL     1     114.202 144.933 146.552  0.00  0.00    +0.000 A 
BRANCH  21  24
ATOM     24  O   UNL     1     112.438 144.914 144.933  0.00  0.00    +0.000 OA
ATOM     25  H   UNL     1     112.806 144.235 144.341  0.00  0.00    +0.000 HD
ENDBRANCH  21  24
BRANCH  22  26
ATOM     26  O   UNL     1     115.983 145.003 148.151  0.00  0.00    +0.000 OA
ATOM     27  H   UNL     1     116.627 145.640 148.507  0.00  0.00    +0.000 HD
ENDBRANCH  22  26
BRANCH  23  28
ATOM     28  O   UNL     1     113.883 143.666 146.940  0.00  0.00    +0.000 OA
ATOM     29  H   UNL     1     113.170 143.339 146.365  0.00  0.00    +0.000 HD
ENDBRANCH  23  28
ENDBRANCH  17  18
ENDBRANCH   1  17
TORSDOF 10
ENDMDL
MODEL 3
REMARK VINA RESULT:    -8.969      1.990      2.798
REMARK INTER + INTRA:         -13.081
REMARK INTER:                 -12.446
REMARK INTRA:                  -0.635
REMARK UNBOUND:                -0.441
REMARK  Name = 341
REMARK  10 active torsions:
REMARK  status: ('A' for Active; 'I' for Inactive)
REMARK    1  A    between atoms: O_1  and  C_10
REMARK    2  A    between atoms: O_1  and  C_19
REMARK    3  A    between atoms: O_2  and  C_12
REMARK    4  A    between atoms: O_3  and  C_15
REMARK    5  A    between atoms: O_4  and  C_20
REMARK    6  A    between atoms: O_5  and  C_21
REMARK    7  A    between atoms: O_6  and  C_22
REMARK    8  A    between atoms: O_8  and  C_23
REMARK    9  A    between atoms: C_11  and  C_19
REMARK   10  A    between atoms: C_13  and  C_23
REMARK                            x       y       z     vdW  Elec       q    Type
REMARK                         _______ _______ _______ _____ _____    ______ ____
ROOT
ATOM      1  O   UNL     1     117.372 149.290 145.267  0.00  0.00    +0.000 OA
ENDROOT
BRANCH   1   2
ATOM      2  C   UNL     1     117.654 150.089 144.156  0.00  0.00    +0.000 A 
ATOM      3  C   UNL     1     118.965 150.282 143.779  0.00  0.00    +0.000 A 
ATOM      4  C   UNL     1     116.865 151.451 142.362  0.00  0.00    +0.000 A 
ATOM      5  C   UNL     1     116.597 150.653 143.475  0.00  0.00    +0.000 A 
ATOM      6  C   UNL     1     119.233 151.081 142.667  0.00  0.00    +0.000 A 
ATOM      7  C   UNL     1     118.183 151.665 141.959  0.00  0.00    +0.000 A 
BRANCH   3   8
ATOM      8  O   UNL     1     119.991 149.711 144.472  0.00  0.00    +0.000 OA
ATOM      9  H   UNL     1     119.868 148.746 144.462  0.00  0.00    +0.000 HD
ENDBRANCH   3   8
BRANCH   6  10
ATOM     10  O   UNL     1     120.516 151.295 142.262  0.00  0.00    +0.000 OA
ATOM     11  H   UNL     1     121.107 150.700 142.755  0.00  0.00    +0.000 HD
ENDBRANCH   6  10
BRANCH   4  13
ATOM     12  O   UNL     1     114.628 152.240 142.055  0.00  0.00    +0.000 OA
ATOM     13  C   UNL     1     115.771 152.058 141.622  0.00  0.00    +0.000 C 
BRANCH  13  14
ATOM     14  O   UNL     1     116.133 152.422 140.362  0.00  0.00    +0.000 OA
ATOM     15  H   UNL     1     116.000 151.694 139.718  0.00  0.00    +0.000 HD
ENDBRANCH  13  14
ENDBRANCH   4  13
ENDBRANCH   1   2
BRANCH   1  17
ATOM     16  O   UNL     1     118.344 147.306 144.523  0.00  0.00    +0.000 OA
ATOM     17  C   UNL     1     117.382 147.922 145.002  0.00  0.00    +0.000 C 
BRANCH  17  18
ATOM     18  C   UNL     1     116.116 147.309 145.373  0.00  0.00    +0.000 A 
ATOM     19  C   UNL     1     115.183 146.988 144.388  0.00  0.00    +0.000 A 
ATOM     20  C   UNL     1     115.834 147.047 146.714  0.00  0.00    +0.000 A 
ATOM     21  C   UNL     1     114.619 146.463 147.070  0.00  0.00    +0.000 A 
ATOM     22  C   UNL     1     113.967 146.402 144.743  0.00  0.00    +0.000 A 
ATOM     23  C   UNL     1     113.685 146.140 146.084  0.00  0.00    +0.000 A 
BRANCH  21  24
ATOM     24  O   UNL     1     114.355 146.214 148.383  0.00  0.00    +0.000 OA
ATOM     25  H   UNL     1     113.394 146.288 148.520  0.00  0.00    +0.000 HD
ENDBRANCH  21  24
BRANCH  22  26
ATOM     26  O   UNL     1     113.063 146.095 143.772  0.00  0.00    +0.000 OA
ATOM     27  H   UNL     1     113.430 146.346 142.906  0.00  0.00    +0.000 HD
ENDBRANCH  22  26
BRANCH  23  28
ATOM     28  O   UNL     1     112.497 145.568 146.431  0.00  0.00    +0.000 OA
ATOM     29  H   UNL     1     111.882 145.659 145.683  0.00  0.00    +0.000 HD
ENDBRANCH  23  28
ENDBRANCH  17  18
ENDBRANCH   1  17
TORSDOF 10
ENDMDL
MODEL 4
REMARK VINA RESULT:    -8.956      1.889      3.261
REMARK INTER + INTRA:         -13.063
REMARK INTER:                 -12.345
REMARK INTRA:                  -0.717
REMARK UNBOUND:                -0.441
REMARK  Name = 341
REMARK  10 active torsions:
REMARK  status: ('A' for Active; 'I' for Inactive)
REMARK    1  A    between atoms: O_1  and  C_10
REMARK    2  A    between atoms: O_1  and  C_19
REMARK    3  A    between atoms: O_2  and  C_12
REMARK    4  A    between atoms: O_3  and  C_15
REMARK    5  A    between atoms: O_4  and  C_20
REMARK    6  A    between atoms: O_5  and  C_21
REMARK    7  A    between atoms: O_6  and  C_22
REMARK    8  A    between atoms: O_8  and  C_23
REMARK    9  A    between atoms: C_11  and  C_19
REMARK   10  A    between atoms: C_13  and  C_23
REMARK                            x       y       z     vdW  Elec       q    Type
REMARK                         _______ _______ _______ _____ _____    ______ ____
ROOT
ATOM      1  O   UNL     1     117.471 149.159 145.402  0.00  0.00    +0.000 OA
ENDROOT
BRANCH   1   2
ATOM      2  C   UNL     1     117.612 150.018 144.309  0.00  0.00    +0.000 A 
ATOM      3  C   UNL     1     118.867 150.247 143.788  0.00  0.00    +0.000 A 
ATOM      4  C   UNL     1     116.604 151.460 142.697  0.00  0.00    +0.000 A 
ATOM      5  C   UNL     1     116.476 150.603 143.790  0.00  0.00    +0.000 A 
ATOM      6  C   UNL     1     118.993 151.105 142.695  0.00  0.00    +0.000 A 
ATOM      7  C   UNL     1     117.862 151.712 142.150  0.00  0.00    +0.000 A 
BRANCH   3   8
ATOM      8  O   UNL     1     119.973 149.654 144.321  0.00  0.00    +0.000 OA
ATOM      9  H   UNL     1     120.016 148.739 143.995  0.00  0.00    +0.000 HD
ENDBRANCH   3   8
BRANCH   6  10
ATOM     10  O   UNL     1     120.216 151.356 142.150  0.00  0.00    +0.000 OA
ATOM     11  H   UNL     1     120.693 151.985 142.718  0.00  0.00    +0.000 HD
ENDBRANCH   6  10
BRANCH   4  13
ATOM     12  O   UNL     1     114.654 151.567 141.314  0.00  0.00    +0.000 OA
ATOM     13  C   UNL     1     115.424 152.091 142.127  0.00  0.00    +0.000 C 
BRANCH  13  14
ATOM     14  O   UNL     1     115.235 153.357 142.588  0.00  0.00    +0.000 OA
ATOM     15  H   UNL     1     115.092 153.995 141.856  0.00  0.00    +0.000 HD
ENDBRANCH  13  14
ENDBRANCH   4  13
ENDBRANCH   1   2
BRANCH   1  17
ATOM     16  O   UNL     1     118.353 147.188 144.525  0.00  0.00    +0.000 OA
ATOM     17  C   UNL     1     117.427 147.809 145.064  0.00  0.00    +0.000 C 
BRANCH  17  18
ATOM     18  C   UNL     1     116.150 147.220 145.435  0.00  0.00    +0.000 A 
ATOM     19  C   UNL     1     115.871 146.947 146.774  0.00  0.00    +0.000 A 
ATOM     20  C   UNL     1     115.205 146.923 144.451  0.00  0.00    +0.000 A 
ATOM     21  C   UNL     1     113.982 146.356 144.807  0.00  0.00    +0.000 A 
ATOM     22  C   UNL     1     114.647 146.379 147.131  0.00  0.00    +0.000 A 
ATOM     23  C   UNL     1     113.703 146.084 146.147  0.00  0.00    +0.000 A 
BRANCH  21  24
ATOM     24  O   UNL     1     113.069 146.070 143.838  0.00  0.00    +0.000 OA
ATOM     25  H   UNL     1     112.506 145.342 144.153  0.00  0.00    +0.000 HD
ENDBRANCH  21  24
BRANCH  22  26
ATOM     26  O   UNL     1     114.388 146.116 148.442  0.00  0.00    +0.000 OA
ATOM     27  H   UNL     1     115.141 145.630 148.823  0.00  0.00    +0.000 HD
ENDBRANCH  22  26
BRANCH  23  28
ATOM     28  O   UNL     1     112.508 145.529 146.496  0.00  0.00    +0.000 OA
ATOM     29  H   UNL     1     112.584 144.562 146.420  0.00  0.00    +0.000 HD
ENDBRANCH  23  28
ENDBRANCH  17  18
ENDBRANCH   1  17
TORSDOF 10
ENDMDL
MODEL 5
REMARK VINA RESULT:    -8.776      1.544      2.865
REMARK INTER + INTRA:         -12.808
REMARK INTER:                 -12.580
REMARK INTRA:                  -0.229
REMARK UNBOUND:                -0.441
REMARK  Name = 341
REMARK  10 active torsions:
REMARK  status: ('A' for Active; 'I' for Inactive)
REMARK    1  A    between atoms: O_1  and  C_10
REMARK    2  A    between atoms: O_1  and  C_19
REMARK    3  A    between atoms: O_2  and  C_12
REMARK    4  A    between atoms: O_3  and  C_15
REMARK    5  A    between atoms: O_4  and  C_20
REMARK    6  A    between atoms: O_5  and  C_21
REMARK    7  A    between atoms: O_6  and  C_22
REMARK    8  A    between atoms: O_8  and  C_23
REMARK    9  A    between atoms: C_11  and  C_19
REMARK   10  A    between atoms: C_13  and  C_23
REMARK                            x       y       z     vdW  Elec       q    Type
REMARK                         _______ _______ _______ _____ _____    ______ ____
ROOT
ATOM      1  O   UNL     1     115.019 150.099 144.637  0.00  0.00    +0.000 OA
ENDROOT
BRANCH   1   2
ATOM      2  C   UNL     1     115.950 150.566 143.706  0.00  0.00    +0.000 A 
ATOM      3  C   UNL     1     115.519 151.342 142.652  0.00  0.00    +0.000 A 
ATOM      4  C   UNL     1     118.214 150.692 142.963  0.00  0.00    +0.000 A 
ATOM      5  C   UNL     1     117.275 150.230 143.885  0.00  0.00    +0.000 A 
ATOM      6  C   UNL     1     116.459 151.804 141.731  0.00  0.00    +0.000 A 
ATOM      7  C   UNL     1     117.806 151.479 141.886  0.00  0.00    +0.000 A 
BRANCH   3   8
ATOM      8  O   UNL     1     114.202 151.660 142.500  0.00  0.00    +0.000 OA
ATOM      9  H   UNL     1     113.723 151.366 143.295  0.00  0.00    +0.000 HD
ENDBRANCH   3   8
BRANCH   6  10
ATOM     10  O   UNL     1     116.073 152.576 140.676  0.00  0.00    +0.000 OA
ATOM     11  H   UNL     1     115.873 153.472 140.997  0.00  0.00    +0.000 HD
ENDBRANCH   6  10
BRANCH   4  13
ATOM     12  O   UNL     1     120.052 149.334 143.671  0.00  0.00    +0.000 OA
ATOM     13  C   UNL     1     119.619 150.355 143.127  0.00  0.00    +0.000 C 
BRANCH  13  14
ATOM     14  O   UNL     1     120.446 151.302 142.605  0.00  0.00    +0.000 OA
ATOM     15  H   UNL     1     121.321 151.308 143.048  0.00  0.00    +0.000 HD
ENDBRANCH  13  14
ENDBRANCH   4  13
ENDBRANCH   1   2
BRANCH   1  17
ATOM     16  O   UNL     1     116.302 150.157 146.582  0.00  0.00    +0.000 OA
ATOM     17  C   UNL     1     115.587 149.541 145.780  0.00  0.00    +0.000 C 
BRANCH  17  18
ATOM     18  C   UNL     1     115.221 148.140 145.914  0.00  0.00    +0.000 A 
ATOM     19  C   UNL     1     115.829 147.351 146.891  0.00  0.00    +0.000 A 
ATOM     20  C   UNL     1     114.266 147.583 145.064  0.00  0.00    +0.000 A 
ATOM     21  C   UNL     1     113.918 146.239 145.190  0.00  0.00    +0.000 A 
ATOM     22  C   UNL     1     115.481 146.006 147.018  0.00  0.00    +0.000 A 
ATOM     23  C   UNL     1     114.526 145.450 146.167  0.00  0.00    +0.000 A 
BRANCH  21  24
ATOM     24  O   UNL     1     112.985 145.707 144.352  0.00  0.00    +0.000 OA
ATOM     25  H   UNL     1     112.278 146.364 144.225  0.00  0.00    +0.000 HD
ENDBRANCH  21  24
BRANCH  22  26
ATOM     26  O   UNL     1     116.084 145.246 147.974  0.00  0.00    +0.000 OA
ATOM     27  H   UNL     1     115.410 144.703 148.420  0.00  0.00    +0.000 HD
ENDBRANCH  22  26
BRANCH  23  28
ATOM     28  O   UNL     1     114.186 144.136 146.292  0.00  0.00    +0.000 OA
ATOM     29  H   UNL     1     114.984 143.597 146.154  0.00  0.00    +0.000 HD
ENDBRANCH  23  28
ENDBRANCH  17  18
ENDBRANCH   1  17
TORSDOF 10
ENDMDL
MODEL 6
REMARK VINA RESULT:    -8.776      1.257      3.104
REMARK INTER + INTRA:         -12.808
REMARK INTER:                 -12.358
REMARK INTRA:                  -0.450
REMARK UNBOUND:                -0.441
REMARK  Name = 341
REMARK  10 active torsions:
REMARK  status: ('A' for Active; 'I' for Inactive)
REMARK    1  A    between atoms: O_1  and  C_10
REMARK    2  A    between atoms: O_1  and  C_19
REMARK    3  A    between atoms: O_2  and  C_12
REMARK    4  A    between atoms: O_3  and  C_15
REMARK    5  A    between atoms: O_4  and  C_20
REMARK    6  A    between atoms: O_5  and  C_21
REMARK    7  A    between atoms: O_6  and  C_22
REMARK    8  A    between atoms: O_8  and  C_23
REMARK    9  A    between atoms: C_11  and  C_19
REMARK   10  A    between atoms: C_13  and  C_23
REMARK                            x       y       z     vdW  Elec       q    Type
REMARK                         _______ _______ _______ _____ _____    ______ ____
ROOT
ATOM      1  O   UNL     1     116.156 148.789 146.037  0.00  0.00    +0.000 OA
ENDROOT
BRANCH   1   2
ATOM      2  C   UNL     1     116.995 149.583 145.250  0.00  0.00    +0.000 A 
ATOM      3  C   UNL     1     118.012 148.987 144.536  0.00  0.00    +0.000 A 
ATOM      4  C   UNL     1     117.594 151.744 144.436  0.00  0.00    +0.000 A 
ATOM      5  C   UNL     1     116.765 150.941 145.219  0.00  0.00    +0.000 A 
ATOM      6  C   UNL     1     118.841 149.791 143.753  0.00  0.00    +0.000 A 
ATOM      7  C   UNL     1     118.632 151.168 143.703  0.00  0.00    +0.000 A 
BRANCH   3   8
ATOM      8  O   UNL     1     118.215 147.640 144.585  0.00  0.00    +0.000 OA
ATOM      9  H   UNL     1     119.070 147.444 144.163  0.00  0.00    +0.000 HD
ENDBRANCH   3   8
BRANCH   6  10
ATOM     10  O   UNL     1     119.856 149.240 143.030  0.00  0.00    +0.000 OA
ATOM     11  H   UNL     1     119.634 149.288 142.085  0.00  0.00    +0.000 HD
ENDBRANCH   6  10
BRANCH   4  13
ATOM     12  O   UNL     1     117.286 153.853 143.349  0.00  0.00    +0.000 OA
ATOM     13  C   UNL     1     117.375 153.180 144.381  0.00  0.00    +0.000 C 
BRANCH  13  14
ATOM     14  O   UNL     1     117.271 153.739 145.618  0.00  0.00    +0.000 OA
ATOM     15  H   UNL     1     116.759 153.172 146.233  0.00  0.00    +0.000 HD
ENDBRANCH  13  14
ENDBRANCH   4  13
ENDBRANCH   1   2
BRANCH   1  17
ATOM     16  O   UNL     1     114.408 148.984 144.506  0.00  0.00    +0.000 OA
ATOM     17  C   UNL     1     115.011 148.344 145.379  0.00  0.00    +0.000 C 
BRANCH  17  18
ATOM     18  C   UNL     1     114.620 147.024 145.847  0.00  0.00    +0.000 A 
ATOM     19  C   UNL     1     115.354 146.395 146.853  0.00  0.00    +0.000 A 
ATOM     20  C   UNL     1     113.514 146.384 145.287  0.00  0.00    +0.000 A 
ATOM     21  C   UNL     1     113.142 145.116 145.733  0.00  0.00    +0.000 A 
ATOM     22  C   UNL     1     114.982 145.127 147.300  0.00  0.00    +0.000 A 
ATOM     23  C   UNL     1     113.876 144.488 146.740  0.00  0.00    +0.000 A 
BRANCH  21  24
ATOM     24  O   UNL     1     112.061 144.501 145.177  0.00  0.00    +0.000 OA
ATOM     25  H   UNL     1     112.092 144.641 144.214  0.00  0.00    +0.000 HD
ENDBRANCH  21  24
BRANCH  22  26
ATOM     26  O   UNL     1     115.708 144.524 148.282  0.00  0.00    +0.000 OA
ATOM     27  H   UNL     1     116.232 143.802 147.891  0.00  0.00    +0.000 HD
ENDBRANCH  22  26
BRANCH  23  28
ATOM     28  O   UNL     1     113.512 143.249 147.177  0.00  0.00    +0.000 OA
ATOM     29  H   UNL     1     113.108 143.339 148.057  0.00  0.00    +0.000 HD
ENDBRANCH  23  28
ENDBRANCH  17  18
ENDBRANCH   1  17
TORSDOF 10
ENDMDL
MODEL 7
REMARK VINA RESULT:    -8.743      3.016      5.254
REMARK INTER + INTRA:         -12.763
REMARK INTER:                 -12.046
REMARK INTRA:                  -0.716
REMARK UNBOUND:                -0.441
REMARK  Name = 341
REMARK  10 active torsions:
REMARK  status: ('A' for Active; 'I' for Inactive)
REMARK    1  A    between atoms: O_1  and  C_10
REMARK    2  A    between atoms: O_1  and  C_19
REMARK    3  A    between atoms: O_2  and  C_12
REMARK    4  A    between atoms: O_3  and  C_15
REMARK    5  A    between atoms: O_4  and  C_20
REMARK    6  A    between atoms: O_5  and  C_21
REMARK    7  A    between atoms: O_6  and  C_22
REMARK    8  A    between atoms: O_8  and  C_23
REMARK    9  A    between atoms: C_11  and  C_19
REMARK   10  A    between atoms: C_13  and  C_23
REMARK                            x       y       z     vdW  Elec       q    Type
REMARK                         _______ _______ _______ _____ _____    ______ ____
ROOT
ATOM      1  O   UNL     1     116.889 149.530 145.666  0.00  0.00    +0.000 OA
ENDROOT
BRANCH   1   2
ATOM      2  C   UNL     1     116.936 150.743 144.975  0.00  0.00    +0.000 A 
ATOM      3  C   UNL     1     117.304 151.889 145.646  0.00  0.00    +0.000 A 
ATOM      4  C   UNL     1     116.659 151.946 142.933  0.00  0.00    +0.000 A 
ATOM      5  C   UNL     1     116.613 150.742 143.635  0.00  0.00    +0.000 A 
ATOM      6  C   UNL     1     117.349 153.093 144.943  0.00  0.00    +0.000 A 
ATOM      7  C   UNL     1     117.027 153.122 143.587  0.00  0.00    +0.000 A 
BRANCH   3   8
ATOM      8  O   UNL     1     117.619 151.861 146.973  0.00  0.00    +0.000 OA
ATOM      9  H   UNL     1     116.794 151.775 147.481  0.00  0.00    +0.000 HD
ENDBRANCH   3   8
BRANCH   6  10
ATOM     10  O   UNL     1     117.710 154.248 145.571  0.00  0.00    +0.000 OA
ATOM     11  H   UNL     1     118.303 154.752 144.989  0.00  0.00    +0.000 HD
ENDBRANCH   6  10
BRANCH   4  13
ATOM     12  O   UNL     1     117.083 151.655 140.596  0.00  0.00    +0.000 OA
ATOM     13  C   UNL     1     116.325 151.975 141.518  0.00  0.00    +0.000 C 
BRANCH  13  14
ATOM     14  O   UNL     1     115.053 152.403 141.291  0.00  0.00    +0.000 OA
ATOM     15  H   UNL     1     114.432 151.654 141.168  0.00  0.00    +0.000 HD
ENDBRANCH  13  14
ENDBRANCH   4  13
ENDBRANCH   1   2
BRANCH   1  17
ATOM     16  O   UNL     1     116.904 147.531 144.469  0.00  0.00    +0.000 OA
ATOM     17  C   UNL     1     117.506 148.472 145.004  0.00  0.00    +0.000 C 
BRANCH  17  18
ATOM     18  C   UNL     1     118.952 148.622 145.014  0.00  0.00    +0.000 A 
ATOM     19  C   UNL     1     119.642 148.649 146.226  0.00  0.00    +0.000 A 
ATOM     20  C   UNL     1     119.650 148.743 143.812  0.00  0.00    +0.000 A 
ATOM     21  C   UNL     1     121.037 148.890 143.822  0.00  0.00    +0.000 A 
ATOM     22  C   UNL     1     121.029 148.795 146.237  0.00  0.00    +0.000 A 
ATOM     23  C   UNL     1     121.726 148.916 145.035  0.00  0.00    +0.000 A 
BRANCH  21  24
ATOM     24  O   UNL     1     121.706 149.009 142.642  0.00  0.00    +0.000 OA
ATOM     25  H   UNL     1     121.938 149.946 142.515  0.00  0.00    +0.000 HD
ENDBRANCH  21  24
BRANCH  22  26
ATOM     26  O   UNL     1     121.690 148.822 147.427  0.00  0.00    +0.000 OA
ATOM     27  H   UNL     1     121.046 148.729 148.151  0.00  0.00    +0.000 HD
ENDBRANCH  22  26
BRANCH  23  28
ATOM     28  O   UNL     1     123.082 149.060 145.046  0.00  0.00    +0.000 OA
ATOM     29  H   UNL     1     123.310 149.785 145.653  0.00  0.00    +0.000 HD
ENDBRANCH  23  28
ENDBRANCH  17  18
ENDBRANCH   1  17
TORSDOF 10
ENDMDL
MODEL 8
REMARK VINA RESULT:    -8.743      3.005      5.039
REMARK INTER + INTRA:         -12.762
REMARK INTER:                 -12.037
REMARK INTRA:                  -0.725
REMARK UNBOUND:                -0.441
REMARK  Name = 341
REMARK  10 active torsions:
REMARK  status: ('A' for Active; 'I' for Inactive)
REMARK    1  A    between atoms: O_1  and  C_10
REMARK    2  A    between atoms: O_1  and  C_19
REMARK    3  A    between atoms: O_2  and  C_12
REMARK    4  A    between atoms: O_3  and  C_15
REMARK    5  A    between atoms: O_4  and  C_20
REMARK    6  A    between atoms: O_5  and  C_21
REMARK    7  A    between atoms: O_6  and  C_22
REMARK    8  A    between atoms: O_8  and  C_23
REMARK    9  A    between atoms: C_11  and  C_19
REMARK   10  A    between atoms: C_13  and  C_23
REMARK                            x       y       z     vdW  Elec       q    Type
REMARK                         _______ _______ _______ _____ _____    ______ ____
ROOT
ATOM      1  O   UNL     1     116.846 149.554 145.668  0.00  0.00    +0.000 OA
ENDROOT
BRANCH   1   2
ATOM      2  C   UNL     1     116.910 150.765 144.973  0.00  0.00    +0.000 A 
ATOM      3  C   UNL     1     117.285 151.908 145.644  0.00  0.00    +0.000 A 
ATOM      4  C   UNL     1     116.658 151.965 142.927  0.00  0.00    +0.000 A 
ATOM      5  C   UNL     1     116.596 150.763 143.632  0.00  0.00    +0.000 A 
ATOM      6  C   UNL     1     117.347 153.110 144.939  0.00  0.00    +0.000 A 
ATOM      7  C   UNL     1     117.034 153.139 143.581  0.00  0.00    +0.000 A 
BRANCH   3   8
ATOM      8  O   UNL     1     117.591 151.880 146.973  0.00  0.00    +0.000 OA
ATOM      9  H   UNL     1     117.245 151.053 147.350  0.00  0.00    +0.000 HD
ENDBRANCH   3   8
BRANCH   6  10
ATOM     10  O   UNL     1     117.716 154.263 145.566  0.00  0.00    +0.000 OA
ATOM     11  H   UNL     1     117.628 155.004 144.943  0.00  0.00    +0.000 HD
ENDBRANCH   6  10
BRANCH   4  13
ATOM     12  O   UNL     1     117.101 151.681 140.593  0.00  0.00    +0.000 OA
ATOM     13  C   UNL     1     116.334 151.995 141.509  0.00  0.00    +0.000 C 
BRANCH  13  14
ATOM     14  O   UNL     1     115.061 152.414 141.275  0.00  0.00    +0.000 OA
ATOM     15  H   UNL     1     114.480 152.273 142.053  0.00  0.00    +0.000 HD
ENDBRANCH  13  14
ENDBRANCH   4  13
ENDBRANCH   1   2
BRANCH   1  17
ATOM     16  O   UNL     1     116.870 147.550 144.478  0.00  0.00    +0.000 OA
ATOM     17  C   UNL     1     117.468 148.491 145.018  0.00  0.00    +0.000 C 
BRANCH  17  18
ATOM     18  C   UNL     1     118.915 148.635 145.047  0.00  0.00    +0.000 A 
ATOM     19  C   UNL     1     119.628 148.747 143.854  0.00  0.00    +0.000 A 
ATOM     20  C   UNL     1     119.590 148.659 146.268  0.00  0.00    +0.000 A 
ATOM     21  C   UNL     1     120.977 148.794 146.295  0.00  0.00    +0.000 A 
ATOM     22  C   UNL     1     121.017 148.883 143.880  0.00  0.00    +0.000 A 
ATOM     23  C   UNL     1     121.691 148.907 145.102  0.00  0.00    +0.000 A 
BRANCH  21  24
ATOM     24  O   UNL     1     121.624 148.814 147.494  0.00  0.00    +0.000 OA
ATOM     25  H   UNL     1     121.353 149.616 147.974  0.00  0.00    +0.000 HD
ENDBRANCH  21  24
BRANCH  22  26
ATOM     26  O   UNL     1     121.702 148.989 142.708  0.00  0.00    +0.000 OA
ATOM     27  H   UNL     1     121.822 149.931 142.494  0.00  0.00    +0.000 HD
ENDBRANCH  22  26
BRANCH  23  28
ATOM     28  O   UNL     1     123.047 149.039 145.128  0.00  0.00    +0.000 OA
ATOM     29  H   UNL     1     123.300 149.452 145.972  0.00  0.00    +0.000 HD
ENDBRANCH  23  28
ENDBRANCH  17  18
ENDBRANCH   1  17
TORSDOF 10
ENDMDL
MODEL 9
REMARK VINA RESULT:    -8.627      1.260      1.666
REMARK INTER + INTRA:         -12.598
REMARK INTER:                 -11.965
REMARK INTRA:                  -0.634
REMARK UNBOUND:                -0.441
REMARK  Name = 341
REMARK  10 active torsions:
REMARK  status: ('A' for Active; 'I' for Inactive)
REMARK    1  A    between atoms: O_1  and  C_10
REMARK    2  A    between atoms: O_1  and  C_19
REMARK    3  A    between atoms: O_2  and  C_12
REMARK    4  A    between atoms: O_3  and  C_15
REMARK    5  A    between atoms: O_4  and  C_20
REMARK    6  A    between atoms: O_5  and  C_21
REMARK    7  A    between atoms: O_6  and  C_22
REMARK    8  A    between atoms: O_8  and  C_23
REMARK    9  A    between atoms: C_11  and  C_19
REMARK   10  A    between atoms: C_13  and  C_23
REMARK                            x       y       z     vdW  Elec       q    Type
REMARK                         _______ _______ _______ _____ _____    ______ ____
ROOT
ATOM      1  O   UNL     1     115.736 149.743 145.918  0.00  0.00    +0.000 OA
ENDROOT
BRANCH   1   2
ATOM      2  C   UNL     1     116.202 150.796 145.128  0.00  0.00    +0.000 A 
ATOM      3  C   UNL     1     116.788 151.886 145.734  0.00  0.00    +0.000 A 
ATOM      4  C   UNL     1     116.521 151.743 142.961  0.00  0.00    +0.000 A 
ATOM      5  C   UNL     1     116.058 150.698 143.760  0.00  0.00    +0.000 A 
ATOM      6  C   UNL     1     117.251 152.931 144.933  0.00  0.00    +0.000 A 
ATOM      7  C   UNL     1     117.118 152.859 143.547  0.00  0.00    +0.000 A 
BRANCH   3   8
ATOM      8  O   UNL     1     116.918 151.956 147.090  0.00  0.00    +0.000 OA
ATOM      9  H   UNL     1     116.037 152.107 147.474  0.00  0.00    +0.000 HD
ENDBRANCH   3   8
BRANCH   6  10
ATOM     10  O   UNL     1     117.838 154.025 145.495  0.00  0.00    +0.000 OA
ATOM     11  H   UNL     1     117.146 154.605 145.855  0.00  0.00    +0.000 HD
ENDBRANCH   6  10
BRANCH   4  13
ATOM     12  O   UNL     1     117.320 151.606 140.709  0.00  0.00    +0.000 OA
ATOM     13  C   UNL     1     116.385 151.667 141.515  0.00  0.00    +0.000 C 
BRANCH  13  14
ATOM     14  O   UNL     1     115.085 151.668 141.113  0.00  0.00    +0.000 OA
ATOM     15  H   UNL     1     114.829 150.815 140.700  0.00  0.00    +0.000 HD
ENDBRANCH  13  14
ENDBRANCH   4  13
ENDBRANCH   1   2
BRANCH   1  17
ATOM     16  O   UNL     1     117.813 148.685 145.871  0.00  0.00    +0.000 OA
ATOM     17  C   UNL     1     116.578 148.633 145.942  0.00  0.00    +0.000 C 
BRANCH  17  18
ATOM     18  C   UNL     1     115.814 147.402 146.069  0.00  0.00    +0.000 A 
ATOM     19  C   UNL     1     114.782 147.125 145.173  0.00  0.00    +0.000 A 
ATOM     20  C   UNL     1     116.111 146.499 147.092  0.00  0.00    +0.000 A 
ATOM     21  C   UNL     1     115.376 145.320 147.216  0.00  0.00    +0.000 A 
ATOM     22  C   UNL     1     114.047 145.945 145.296  0.00  0.00    +0.000 A 
ATOM     23  C   UNL     1     114.345 145.043 146.318  0.00  0.00    +0.000 A 
BRANCH  21  24
ATOM     24  O   UNL     1     115.675 144.448 148.219  0.00  0.00    +0.000 OA
ATOM     25  H   UNL     1     115.440 144.866 149.067  0.00  0.00    +0.000 HD
ENDBRANCH  21  24
BRANCH  22  26
ATOM     26  O   UNL     1     113.041 145.688 144.415  0.00  0.00    +0.000 OA
ATOM     27  H   UNL     1     112.998 146.409 143.763  0.00  0.00    +0.000 HD
ENDBRANCH  22  26
BRANCH  23  28
ATOM     28  O   UNL     1     113.626 143.891 146.439  0.00  0.00    +0.000 OA
ATOM     29  H   UNL     1     113.948 143.408 147.220  0.00  0.00    +0.000 HD
ENDBRANCH  23  28
ENDBRANCH  17  18
ENDBRANCH   1  17
TORSDOF 10
ENDMDL
MODEL 10
REMARK VINA RESULT:    -8.273      1.599      2.015
REMARK INTER + INTRA:         -12.100
REMARK INTER:                 -11.993
REMARK INTRA:                  -0.108
REMARK UNBOUND:                -0.441
REMARK  Name = 341
REMARK  10 active torsions:
REMARK  status: ('A' for Active; 'I' for Inactive)
REMARK    1  A    between atoms: O_1  and  C_10
REMARK    2  A    between atoms: O_1  and  C_19
REMARK    3  A    between atoms: O_2  and  C_12
REMARK    4  A    between atoms: O_3  and  C_15
REMARK    5  A    between atoms: O_4  and  C_20
REMARK    6  A    between atoms: O_5  and  C_21
REMARK    7  A    between atoms: O_6  and  C_22
REMARK    8  A    between atoms: O_8  and  C_23
REMARK    9  A    between atoms: C_11  and  C_19
REMARK   10  A    between atoms: C_13  and  C_23
REMARK                            x       y       z     vdW  Elec       q    Type
REMARK                         _______ _______ _______ _____ _____    ______ ____
ROOT
ATOM      1  O   UNL     1     116.309 148.963 145.650  0.00  0.00    +0.000 OA
ENDROOT
BRANCH   1   2
ATOM      2  C   UNL     1     116.817 149.936 144.786  0.00  0.00    +0.000 A 
ATOM      3  C   UNL     1     115.944 150.705 144.047  0.00  0.00    +0.000 A 
ATOM      4  C   UNL     1     118.704 151.058 143.852  0.00  0.00    +0.000 A 
ATOM      5  C   UNL     1     118.185 150.089 144.710  0.00  0.00    +0.000 A 
ATOM      6  C   UNL     1     116.464 151.674 143.189  0.00  0.00    +0.000 A 
ATOM      7  C   UNL     1     117.844 151.851 143.092  0.00  0.00    +0.000 A 
BRANCH   3   8
ATOM      8  O   UNL     1     114.595 150.531 144.143  0.00  0.00    +0.000 OA
ATOM      9  H   UNL     1     114.416 149.584 144.271  0.00  0.00    +0.000 HD
ENDBRANCH   3   8
BRANCH   6  10
ATOM     10  O   UNL     1     115.634 152.456 142.444  0.00  0.00    +0.000 OA
ATOM     11  H   UNL     1     114.828 151.953 142.236  0.00  0.00    +0.000 HD
ENDBRANCH   6  10
BRANCH   4  13
ATOM     12  O   UNL     1     120.924 151.319 144.707  0.00  0.00    +0.000 OA
ATOM     13  C   UNL     1     120.143 151.244 143.752  0.00  0.00    +0.000 C 
BRANCH  13  14
ATOM     14  O   UNL     1     120.569 151.331 142.462  0.00  0.00    +0.000 OA
ATOM     15  H   UNL     1     121.360 150.774 142.300  0.00  0.00    +0.000 HD
ENDBRANCH  13  14
ENDBRANCH   4  13
ENDBRANCH   1   2
BRANCH   1  17
ATOM     16  O   UNL     1     117.526 147.317 144.535  0.00  0.00    +0.000 OA
ATOM     17  C   UNL     1     116.577 147.654 145.256  0.00  0.00    +0.000 C 
BRANCH  17  18
ATOM     18  C   UNL     1     115.599 146.731 145.810  0.00  0.00    +0.000 A 
ATOM     19  C   UNL     1     114.455 146.408 145.081  0.00  0.00    +0.000 A 
ATOM     20  C   UNL     1     115.803 146.173 147.072  0.00  0.00    +0.000 A 
ATOM     21  C   UNL     1     114.863 145.291 147.605  0.00  0.00    +0.000 A 
ATOM     22  C   UNL     1     113.514 145.525 145.613  0.00  0.00    +0.000 A 
ATOM     23  C   UNL     1     113.719 144.967 146.875  0.00  0.00    +0.000 A 
BRANCH  21  24
ATOM     24  O   UNL     1     115.073 144.754 148.839  0.00  0.00    +0.000 OA
ATOM     25  H   UNL     1     114.399 145.109 149.445  0.00  0.00    +0.000 HD
ENDBRANCH  21  24
BRANCH  22  26
ATOM     26  O   UNL     1     112.401 145.218 144.892  0.00  0.00    +0.000 OA
ATOM     27  H   UNL     1     111.970 144.440 145.287  0.00  0.00    +0.000 HD
ENDBRANCH  22  26
BRANCH  23  28
ATOM     28  O   UNL     1     112.800 144.104 147.395  0.00  0.00    +0.000 OA
ATOM     29  H   UNL     1     112.087 144.624 147.804  0.00  0.00    +0.000 HD
ENDBRANCH  23  28
ENDBRANCH  17  18
ENDBRANCH   1  17
TORSDOF 10
ENDMDL
