REMARK  Name = 3035727
REMARK                            x       y       z     vdW  Elec       q    Type
REMARK                         _______ _______ _______ _____ _____    ______ ____
ROOT
ATOM     12  O   LIG    1        0.626   1.364   1.023  0.00  0.00    -0.459 OA
ENDROOT
BRANCH  12  13
ATOM     13  C   LIG    1       -0.541   1.764   0.432  0.00  0.00    +0.148 A 
ATOM     14  C   LIG    1       -0.666   3.088   0.016  0.00  0.00    +0.048 A 
ATOM     15  C   LIG    1       -1.846   3.523  -0.589  0.00  0.00    +0.004 A 
ATOM     16  C   LIG    1       -2.905   2.636  -0.781  0.00  0.00    +0.014 A 
ATOM     17  C   LIG    1       -2.774   1.309  -0.363  0.00  0.00    +0.049 A 
ATOM     18  C   LIG    1       -3.893   0.347  -0.558  0.00  0.00    +0.190 A 
ATOM     19  C   LIG    1       -3.686  -1.052  -0.089  0.00  0.00    +0.084 A 
ATOM     20  CA  LIG    1       -2.512  -1.356   0.479  0.00  0.00    +0.128 A 
ATOM     25  N   LIG    1       -1.480  -0.474   0.661  0.00  0.00    -0.346 N 
ATOM     26  H   LIG    1       -0.628  -0.795   1.100  0.00  0.00    +0.166 HD
ATOM     27  O   LIG    1       -4.946   0.682  -1.085  0.00  0.00    -0.287 OA
ATOM     28  C   LIG    1       -1.589   0.860   0.249  0.00  0.00    +0.093 A 
BRANCH  20  21
ATOM     21  C   LIG    1       -2.328  -2.736   0.936  0.00  0.00    +0.353 C 
ATOM     22  OXT LIG    1       -3.165  -3.614   0.834  0.00  0.00    -0.243 OA
BRANCH  21  23
ATOM     23  O   LIG    1       -1.100  -2.873   1.479  0.00  0.00    -0.476 OA
ATOM     24  H   LIG    1       -0.937  -3.786   1.798  0.00  0.00    +0.295 HD
ENDBRANCH  21  23
ENDBRANCH  20  21
ENDBRANCH  12  13
BRANCH  12   2
ATOM      1  O   LIG    1        1.480  -0.543  -0.015  0.00  0.00    -0.331 OA
ATOM      2  C   LIG    1        1.643   0.863   0.156  0.00  0.00    +0.339 C 
ATOM      3  C   LIG    1        2.998   1.173   0.791  0.00  0.00    +0.214 C 
ATOM      4  C   LIG    1        4.141   0.537  -0.000  0.00  0.00    +0.180 C 
ATOM      5  C   LIG    1        3.855  -0.934  -0.301  0.00  0.00    +0.177 C 
ATOM     29  C   LIG    1        2.455  -1.105  -0.895  0.00  0.00    +0.179 C 
BRANCH   5   6
ATOM      6  O   LIG    1        4.822  -1.423  -1.227  0.00  0.00    -0.386 OA
ATOM      7  H   LIG    1        4.735  -0.913  -2.050  0.00  0.00    +0.210 HD
ENDBRANCH   5   6
BRANCH   4   8
ATOM      8  O   LIG    1        5.345   0.605   0.765  0.00  0.00    -0.386 OA
ATOM      9  H   LIG    1        6.048   0.182   0.242  0.00  0.00    +0.210 HD
ENDBRANCH   4   8
BRANCH   3  10
ATOM     10  O   LIG    1        3.168   2.590   0.813  0.00  0.00    -0.383 OA
ATOM     11  H   LIG    1        3.143   2.911  -0.104  0.00  0.00    +0.210 HD
ENDBRANCH   3  10
BRANCH  29  30
ATOM     30  C   LIG    1        2.102  -2.575  -1.095  0.00  0.00    +0.190 C 
BRANCH  30  31
ATOM     31  O   LIG    1        0.795  -2.656  -1.635  0.00  0.00    -0.392 OA
ATOM     32  H   LIG    1        0.193  -2.211  -1.015  0.00  0.00    +0.210 HD
ENDBRANCH  30  31
ENDBRANCH  29  30
ENDBRANCH  12   2
TORSDOF 9
