MODEL 1
REMARK VINA RESULT:      -4.9      0.000      0.000
REMARK  4 active torsions:
REMARK  status: ('A' for Active; 'I' for Inactive)
REMARK    1  A    between atoms: O_1  and  C_10 
REMARK    2  A    between atoms: O_1  and  C_11 
REMARK    3  A    between atoms: N_3  and  C_7 
REMARK    4  A    between atoms: C_4  and  C_10 
ROOT
HETATM    1  O   UNK     0       8.935  28.058  30.460  0.00  0.00    -0.318 OA
ENDROOT
BRANCH   1   2
HETATM    2  C   UNK     0       9.767  28.111  29.375  0.00  0.00     0.293 C 
HETATM    3  O   UNK     0      10.961  28.432  29.434  0.00  0.00    -0.259 OA
BRANCH   2   4
HETATM    4  C   UNK     0       9.073  27.745  28.151  0.00  0.00     0.039 A 
HETATM    5  C   UNK     0       8.065  26.780  28.183  0.00  0.00     0.020 A 
HETATM    6  C   UNK     0       7.399  26.428  27.009  0.00  0.00     0.030 A 
HETATM    7  C   UNK     0       7.741  27.041  25.803  0.00  0.00     0.025 A 
HETATM    8  C   UNK     0       8.748  28.004  25.771  0.00  0.00     0.030 A 
HETATM    9  C   UNK     0       9.415  28.356  26.945  0.00  0.00     0.020 A 
BRANCH   7  10
HETATM   10  N   UNK     0       7.068  26.685  24.616  0.00  0.00    -0.399 N 
HETATM   11  H   UNK     0       6.136  26.295  24.660  0.00  0.00     0.156 HD
HETATM   12  H   UNK     0       7.518  26.817  23.719  0.00  0.00     0.156 HD
ENDBRANCH   7  10
ENDBRANCH   2   4
ENDBRANCH   1   2
BRANCH   1  13
HETATM   13  C   UNK     0       9.451  27.436  31.642  0.00  0.00     0.174 C 
HETATM   14  C   UNK     0       8.554  26.278  32.021  0.00  0.00     0.034 C 
ENDBRANCH   1  13
TORSDOF 4
ENDMDL
MODEL 2
REMARK VINA RESULT:      -4.9      1.611      2.435
REMARK  4 active torsions:
REMARK  status: ('A' for Active; 'I' for Inactive)
REMARK    1  A    between atoms: O_1  and  C_10 
REMARK    2  A    between atoms: O_1  and  C_11 
REMARK    3  A    between atoms: N_3  and  C_7 
REMARK    4  A    between atoms: C_4  and  C_10 
ROOT
HETATM    1  O   UNK     0       9.345  29.911  29.271  0.00  0.00    -0.318 OA
ENDROOT
BRANCH   1   2
HETATM    2  C   UNK     0       9.894  28.703  28.935  0.00  0.00     0.293 C 
HETATM    3  O   UNK     0      10.896  28.222  29.482  0.00  0.00    -0.259 OA
BRANCH   2   4
HETATM    4  C   UNK     0       9.156  28.061  27.859  0.00  0.00     0.039 A 
HETATM    5  C   UNK     0       9.355  28.467  26.539  0.00  0.00     0.020 A 
HETATM    6  C   UNK     0       8.645  27.851  25.507  0.00  0.00     0.030 A 
HETATM    7  C   UNK     0       7.739  26.831  25.795  0.00  0.00     0.025 A 
HETATM    8  C   UNK     0       7.541  26.426  27.114  0.00  0.00     0.030 A 
HETATM    9  C   UNK     0       8.249  27.041  28.147  0.00  0.00     0.020 A 
BRANCH   7  10
HETATM   10  N   UNK     0       7.023  26.209  24.752  0.00  0.00    -0.399 N 
HETATM   11  H   UNK     0       7.276  25.278  24.448  0.00  0.00     0.156 HD
HETATM   12  H   UNK     0       6.256  26.695  24.304  0.00  0.00     0.156 HD
ENDBRANCH   7  10
ENDBRANCH   2   4
ENDBRANCH   1   2
BRANCH   1  13
HETATM   13  C   UNK     0       9.454  30.313  30.641  0.00  0.00     0.174 C 
HETATM   14  C   UNK     0      10.361  31.520  30.730  0.00  0.00     0.034 C 
ENDBRANCH   1  13
TORSDOF 4
ENDMDL
MODEL 3
REMARK VINA RESULT:      -4.8      3.545      5.205
REMARK  4 active torsions:
REMARK  status: ('A' for Active; 'I' for Inactive)
REMARK    1  A    between atoms: O_1  and  C_10 
REMARK    2  A    between atoms: O_1  and  C_11 
REMARK    3  A    between atoms: N_3  and  C_7 
REMARK    4  A    between atoms: C_4  and  C_10 
ROOT
HETATM    1  O   UNK     0       5.179  27.220  25.465  0.00  0.00    -0.318 OA
ENDROOT
BRANCH   1   2
HETATM    2  C   UNK     0       6.386  26.608  25.264  0.00  0.00     0.293 C 
HETATM    3  O   UNK     0       6.598  25.766  24.382  0.00  0.00    -0.259 OA
BRANCH   2   4
HETATM    4  C   UNK     0       7.384  27.071  26.216  0.00  0.00     0.039 A 
HETATM    5  C   UNK     0       8.427  27.892  25.788  0.00  0.00     0.020 A 
HETATM    6  C   UNK     0       9.385  28.335  26.702  0.00  0.00     0.030 A 
HETATM    7  C   UNK     0       9.299  27.958  28.042  0.00  0.00     0.025 A 
HETATM    8  C   UNK     0       8.256  27.137  28.469  0.00  0.00     0.030 A 
HETATM    9  C   UNK     0       7.298  26.693  27.556  0.00  0.00     0.020 A 
BRANCH   7  10
HETATM   10  N   UNK     0      10.266  28.405  28.964  0.00  0.00    -0.399 N 
HETATM   11  H   UNK     0      10.574  27.797  29.711  0.00  0.00     0.156 HD
HETATM   12  H   UNK     0      10.653  29.337  28.880  0.00  0.00     0.156 HD
ENDBRANCH   7  10
ENDBRANCH   2   4
ENDBRANCH   1   2
BRANCH   1  13
HETATM   13  C   UNK     0       5.046  28.563  24.986  0.00  0.00     0.174 C 
HETATM   14  C   UNK     0       4.649  29.460  26.138  0.00  0.00     0.034 C 
ENDBRANCH   1  13
TORSDOF 4
ENDMDL
MODEL 4
REMARK VINA RESULT:      -4.6      3.511      4.877
REMARK  4 active torsions:
REMARK  status: ('A' for Active; 'I' for Inactive)
REMARK    1  A    between atoms: O_1  and  C_10 
REMARK    2  A    between atoms: O_1  and  C_11 
REMARK    3  A    between atoms: N_3  and  C_7 
REMARK    4  A    between atoms: C_4  and  C_10 
ROOT
HETATM    1  O   UNK     0       5.378  25.407  26.257  0.00  0.00    -0.318 OA
ENDROOT
BRANCH   1   2
HETATM    2  C   UNK     0       6.448  25.881  25.548  0.00  0.00     0.293 C 
HETATM    3  O   UNK     0       6.593  25.729  24.328  0.00  0.00    -0.259 OA
BRANCH   2   4
HETATM    4  C   UNK     0       7.389  26.583  26.406  0.00  0.00     0.039 A 
HETATM    5  C   UNK     0       7.421  26.312  27.775  0.00  0.00     0.020 A 
HETATM    6  C   UNK     0       8.323  26.986  28.598  0.00  0.00     0.030 A 
HETATM    7  C   UNK     0       9.194  27.930  28.054  0.00  0.00     0.025 A 
HETATM    8  C   UNK     0       9.162  28.201  26.686  0.00  0.00     0.030 A 
HETATM    9  C   UNK     0       8.260  27.528  25.862  0.00  0.00     0.020 A 
BRANCH   7  10
HETATM   10  N   UNK     0      10.105  28.611  28.887  0.00  0.00    -0.399 N 
HETATM   11  H   UNK     0      11.005  28.199  29.096  0.00  0.00     0.156 HD
HETATM   12  H   UNK     0       9.859  29.512  29.277  0.00  0.00     0.156 HD
ENDBRANCH   7  10
ENDBRANCH   2   4
ENDBRANCH   1   2
BRANCH   1  13
HETATM   13  C   UNK     0       4.964  24.064  25.980  0.00  0.00     0.174 C 
HETATM   14  C   UNK     0       5.963  23.105  26.588  0.00  0.00     0.034 C 
ENDBRANCH   1  13
TORSDOF 4
ENDMDL
MODEL 5
REMARK VINA RESULT:      -4.4     14.926     15.483
REMARK  4 active torsions:
REMARK  status: ('A' for Active; 'I' for Inactive)
REMARK    1  A    between atoms: O_1  and  C_10 
REMARK    2  A    between atoms: O_1  and  C_11 
REMARK    3  A    between atoms: N_3  and  C_7 
REMARK    4  A    between atoms: C_4  and  C_10 
ROOT
HETATM    1  O   UNK     0      13.868  16.397  23.522  0.00  0.00    -0.318 OA
ENDROOT
BRANCH   1   2
HETATM    2  C   UNK     0      14.881  16.009  22.688  0.00  0.00     0.293 C 
HETATM    3  O   UNK     0      14.961  16.337  21.497  0.00  0.00    -0.259 OA
BRANCH   2   4
HETATM    4  C   UNK     0      15.846  15.167  23.376  0.00  0.00     0.039 A 
HETATM    5  C   UNK     0      15.416  14.270  24.355  0.00  0.00     0.020 A 
HETATM    6  C   UNK     0      16.343  13.463  25.016  0.00  0.00     0.030 A 
HETATM    7  C   UNK     0      17.698  13.551  24.697  0.00  0.00     0.025 A 
HETATM    8  C   UNK     0      18.127  14.447  23.719  0.00  0.00     0.030 A 
HETATM    9  C   UNK     0      17.202  15.255  23.059  0.00  0.00     0.020 A 
BRANCH   7  10
HETATM   10  N   UNK     0      18.633  12.734  25.365  0.00  0.00    -0.399 N 
HETATM   11  H   UNK     0      18.437  11.753  25.509  0.00  0.00     0.156 HD
HETATM   12  H   UNK     0      19.501  13.131  25.703  0.00  0.00     0.156 HD
ENDBRANCH   7  10
ENDBRANCH   2   4
ENDBRANCH   1   2
BRANCH   1  13
HETATM   13  C   UNK     0      12.531  16.126  23.085  0.00  0.00     0.174 C 
HETATM   14  C   UNK     0      11.645  15.938  24.297  0.00  0.00     0.034 C 
ENDBRANCH   1  13
TORSDOF 4
ENDMDL
MODEL 6
REMARK VINA RESULT:      -4.4     38.753     39.657
REMARK  4 active torsions:
REMARK  status: ('A' for Active; 'I' for Inactive)
REMARK    1  A    between atoms: O_1  and  C_10 
REMARK    2  A    between atoms: O_1  and  C_11 
REMARK    3  A    between atoms: N_3  and  C_7 
REMARK    4  A    between atoms: C_4  and  C_10 
ROOT
HETATM    1  O   UNK     0      38.961   7.377   8.053  0.00  0.00    -0.318 OA
ENDROOT
BRANCH   1   2
HETATM    2  C   UNK     0      38.603   8.510   8.732  0.00  0.00     0.293 C 
HETATM    3  O   UNK     0      38.894   9.656   8.368  0.00  0.00    -0.259 OA
BRANCH   2   4
HETATM    4  C   UNK     0      37.841   8.196   9.930  0.00  0.00     0.039 A 
HETATM    5  C   UNK     0      37.715   6.871  10.349  0.00  0.00     0.020 A 
HETATM    6  C   UNK     0      36.982   6.570  11.498  0.00  0.00     0.030 A 
HETATM    7  C   UNK     0      36.377   7.593  12.228  0.00  0.00     0.025 A 
HETATM    8  C   UNK     0      36.503   8.917  11.809  0.00  0.00     0.030 A 
HETATM    9  C   UNK     0      37.234   9.219  10.660  0.00  0.00     0.020 A 
BRANCH   7  10
HETATM   10  N   UNK     0      35.638   7.288  13.389  0.00  0.00    -0.399 N 
HETATM   11  H   UNK     0      36.115   7.002  14.233  0.00  0.00     0.156 HD
HETATM   12  H   UNK     0      34.628   7.354  13.378  0.00  0.00     0.156 HD
ENDBRANCH   7  10
ENDBRANCH   2   4
ENDBRANCH   1   2
BRANCH   1  13
HETATM   13  C   UNK     0      38.827   7.407   6.628  0.00  0.00     0.174 C 
HETATM   14  C   UNK     0      37.358   7.341   6.270  0.00  0.00     0.034 C 
ENDBRANCH   1  13
TORSDOF 4
ENDMDL
MODEL 7
REMARK VINA RESULT:      -4.3     14.429     15.234
REMARK  4 active torsions:
REMARK  status: ('A' for Active; 'I' for Inactive)
REMARK    1  A    between atoms: O_1  and  C_10 
REMARK    2  A    between atoms: O_1  and  C_11 
REMARK    3  A    between atoms: N_3  and  C_7 
REMARK    4  A    between atoms: C_4  and  C_10 
ROOT
HETATM    1  O   UNK     0      13.437  16.163  21.458  0.00  0.00    -0.318 OA
ENDROOT
BRANCH   1   2
HETATM    2  C   UNK     0      13.596  16.100  22.816  0.00  0.00     0.293 C 
HETATM    3  O   UNK     0      12.776  16.544  23.630  0.00  0.00    -0.259 OA
BRANCH   2   4
HETATM    4  C   UNK     0      14.845  15.449  23.178  0.00  0.00     0.039 A 
HETATM    5  C   UNK     0      14.830  14.317  23.993  0.00  0.00     0.020 A 
HETATM    6  C   UNK     0      16.029  13.693  24.341  0.00  0.00     0.030 A 
HETATM    7  C   UNK     0      17.241  14.200  23.874  0.00  0.00     0.025 A 
HETATM    8  C   UNK     0      17.255  15.332  23.059  0.00  0.00     0.030 A 
HETATM    9  C   UNK     0      16.057  15.957  22.711  0.00  0.00     0.020 A 
BRANCH   7  10
HETATM   10  N   UNK     0      18.452  13.569  24.226  0.00  0.00    -0.399 N 
HETATM   11  H   UNK     0      19.230  13.571  23.580  0.00  0.00     0.156 HD
HETATM   12  H   UNK     0      18.543  13.113  25.124  0.00  0.00     0.156 HD
ENDBRANCH   7  10
ENDBRANCH   2   4
ENDBRANCH   1   2
BRANCH   1  13
HETATM   13  C   UNK     0      12.853  17.359  20.930  0.00  0.00     0.174 C 
HETATM   14  C   UNK     0      11.861  16.987  19.850  0.00  0.00     0.034 C 
ENDBRANCH   1  13
TORSDOF 4
ENDMDL
MODEL 8
REMARK VINA RESULT:      -4.3     24.475     25.096
REMARK  4 active torsions:
REMARK  status: ('A' for Active; 'I' for Inactive)
REMARK    1  A    between atoms: O_1  and  C_10 
REMARK    2  A    between atoms: O_1  and  C_11 
REMARK    3  A    between atoms: N_3  and  C_7 
REMARK    4  A    between atoms: C_4  and  C_10 
ROOT
HETATM    1  O   UNK     0      31.226  27.897  16.649  0.00  0.00    -0.318 OA
ENDROOT
BRANCH   1   2
HETATM    2  C   UNK     0      30.964  26.562  16.499  0.00  0.00     0.293 C 
HETATM    3  O   UNK     0      31.280  25.698  17.326  0.00  0.00    -0.259 OA
BRANCH   2   4
HETATM    4  C   UNK     0      30.273  26.291  15.248  0.00  0.00     0.039 A 
HETATM    5  C   UNK     0      29.817  27.348  14.461  0.00  0.00     0.020 A 
HETATM    6  C   UNK     0      29.153  27.088  13.261  0.00  0.00     0.030 A 
HETATM    7  C   UNK     0      28.946  25.771  12.850  0.00  0.00     0.025 A 
HETATM    8  C   UNK     0      29.402  24.715  13.638  0.00  0.00     0.030 A 
HETATM    9  C   UNK     0      30.065  24.974  14.837  0.00  0.00     0.020 A 
BRANCH   7  10
HETATM   10  N   UNK     0      28.275  25.508  11.638  0.00  0.00    -0.399 N 
HETATM   11  H   UNK     0      28.557  24.727  11.062  0.00  0.00     0.156 HD
HETATM   12  H   UNK     0      27.511  26.103  11.343  0.00  0.00     0.156 HD
ENDBRANCH   7  10
ENDBRANCH   2   4
ENDBRANCH   1   2
BRANCH   1  13
HETATM   13  C   UNK     0      30.661  28.542  17.796  0.00  0.00     0.174 C 
HETATM   14  C   UNK     0      30.132  29.899  17.388  0.00  0.00     0.034 C 
ENDBRANCH   1  13
TORSDOF 4
ENDMDL
MODEL 9
REMARK VINA RESULT:      -4.2     16.172     16.468
REMARK  4 active torsions:
REMARK  status: ('A' for Active; 'I' for Inactive)
REMARK    1  A    between atoms: O_1  and  C_10 
REMARK    2  A    between atoms: O_1  and  C_11 
REMARK    3  A    between atoms: N_3  and  C_7 
REMARK    4  A    between atoms: C_4  and  C_10 
ROOT
HETATM    1  O   UNK     0      17.238  11.680  25.559  0.00  0.00    -0.318 OA
ENDROOT
BRANCH   1   2
HETATM    2  C   UNK     0      17.876  12.886  25.456  0.00  0.00     0.293 C 
HETATM    3  O   UNK     0      18.911  13.176  26.070  0.00  0.00    -0.259 OA
BRANCH   2   4
HETATM    4  C   UNK     0      17.186  13.780  24.540  0.00  0.00     0.039 A 
HETATM    5  C   UNK     0      17.909  14.717  23.802  0.00  0.00     0.020 A 
HETATM    6  C   UNK     0      17.246  15.575  22.924  0.00  0.00     0.030 A 
HETATM    7  C   UNK     0      15.861  15.495  22.782  0.00  0.00     0.025 A 
HETATM    8  C   UNK     0      15.138  14.557  23.519  0.00  0.00     0.030 A 
HETATM    9  C   UNK     0      15.800  13.700  24.399  0.00  0.00     0.020 A 
BRANCH   7  10
HETATM   10  N   UNK     0      15.191  16.361  21.894  0.00  0.00    -0.399 N 
HETATM   11  H   UNK     0      15.337  16.276  20.897  0.00  0.00     0.156 HD
HETATM   12  H   UNK     0      14.566  17.071  22.254  0.00  0.00     0.156 HD
ENDBRANCH   7  10
ENDBRANCH   2   4
ENDBRANCH   1   2
BRANCH   1  13
HETATM   13  C   UNK     0      17.095  11.134  26.875  0.00  0.00     0.174 C 
HETATM   14  C   UNK     0      16.014  11.896  27.609  0.00  0.00     0.034 C 
ENDBRANCH   1  13
TORSDOF 4
ENDMDL
