MODEL 1
REMARK VINA RESULT:     -10.1      0.000      0.000
REMARK  Name = 5320623
REMARK  11 active torsions:
REMARK  status: ('A' for Active; 'I' for Inactive)
REMARK    1  A    between atoms: O_2  and  C_16
REMARK    2  A    between atoms: O_2  and  C_18
REMARK    3  A    between atoms: O_3  and  C_12
REMARK    4  A    between atoms: O_4  and  C_13
REMARK    5  A    between atoms: O_5  and  C_14
REMARK    6  A    between atoms: O_6  and  C_17
REMARK    7  A    between atoms: O_8  and  C_20
REMARK    8  A    between atoms: O_9  and  C_23
REMARK    9  A    between atoms: O_11  and  C_32
REMARK   10  A    between atoms: C_15  and  C_17
REMARK   11  A    between atoms: C_25  and  C_27
REMARK                            x       y       z     vdW  Elec       q    Type
REMARK                         _______ _______ _______ _____ _____    ______ ____
ROOT
ATOM      7  O   UNL     1     183.993 177.426 178.943  0.00  0.00    +0.000 OA
ATOM     10  O   UNL     1     183.919 177.239 183.012  0.00  0.00    +0.000 OA
ATOM     18  C   UNL     1     187.521 178.061 179.601  0.00  0.00    +0.000 A 
ATOM     19  C   UNL     1     186.313 177.863 178.930  0.00  0.00    +0.000 A 
ATOM     20  C   UNL     1     187.564 178.008 180.995  0.00  0.00    +0.000 A 
ATOM     21  C   UNL     1     185.149 177.612 179.657  0.00  0.00    +0.000 A 
ATOM     22  C   UNL     1     185.195 177.560 181.049  0.00  0.00    +0.000 A 
ATOM     23  C   UNL     1     186.401 177.758 181.724  0.00  0.00    +0.000 A 
ATOM     24  C   UNL     1     183.952 177.295 181.790  0.00  0.00    +0.000 A 
ATOM     25  C   UNL     1     182.822 177.167 179.638  0.00  0.00    +0.000 A 
ATOM     26  C   UNL     1     182.736 177.099 180.976  0.00  0.00    +0.000 A 
ENDROOT
BRANCH  25  27
ATOM     27  C   UNL     1     181.637 176.989 178.773  0.00  0.00    +0.000 A 
ATOM     28  C   UNL     1     180.898 175.806 178.830  0.00  0.00    +0.000 A 
ATOM     29  C   UNL     1     181.253 178.004 177.893  0.00  0.00    +0.000 A 
ATOM     30  C   UNL     1     179.780 175.638 178.013  0.00  0.00    +0.000 A 
ATOM     31  C   UNL     1     180.136 177.836 177.075  0.00  0.00    +0.000 A 
ATOM     32  C   UNL     1     179.400 176.653 177.135  0.00  0.00    +0.000 A 
BRANCH  32  11
ATOM     11  O   UNL     1     178.308 176.489 176.337  0.00  0.00    +0.000 OA
ATOM     39  H   UNL     1     178.339 177.147 175.622  0.00  0.00    +0.000 HD
ENDBRANCH  32  11
ENDBRANCH  25  27
BRANCH  20   8
ATOM      8  O   UNL     1     188.749 178.204 181.643  0.00  0.00    +0.000 OA
ATOM     37  H   UNL     1     189.455 177.779 181.125  0.00  0.00    +0.000 HD
ENDBRANCH  20   8
BRANCH  23   9
ATOM      9  O   UNL     1     186.485 177.713 183.084  0.00  0.00    +0.000 OA
ATOM     38  H   UNL     1     187.203 177.125 183.365  0.00  0.00    +0.000 HD
ENDBRANCH  23   9
BRANCH  18   2
ATOM      2  O   UNL     1     188.654 178.305 178.880  0.00  0.00    +0.000 OA
BRANCH   2  16
ATOM      1  O   UNL     1     188.275 176.134 178.111  0.00  0.00    +0.000 OA
ATOM     12  C   UNL     1     191.050 175.455 178.410  0.00  0.00    +0.000 C 
ATOM     13  C   UNL     1     189.967 174.400 178.181  0.00  0.00    +0.000 C 
ATOM     14  C   UNL     1     190.457 176.740 178.988  0.00  0.00    +0.000 C 
ATOM     15  C   UNL     1     188.782 174.994 177.416  0.00  0.00    +0.000 C 
ATOM     16  C   UNL     1     189.229 177.191 178.198  0.00  0.00    +0.000 C 
BRANCH  12   3
ATOM      3  O   UNL     1     192.005 174.916 179.325  0.00  0.00    +0.000 OA
ATOM     33  H   UNL     1     192.788 175.492 179.300  0.00  0.00    +0.000 HD
ENDBRANCH  12   3
BRANCH  13   4
ATOM      4  O   UNL     1     190.514 173.316 177.435  0.00  0.00    +0.000 OA
ATOM     34  H   UNL     1     191.448 173.218 177.689  0.00  0.00    +0.000 HD
ENDBRANCH  13   4
BRANCH  14   5
ATOM      5  O   UNL     1     191.433 177.779 178.929  0.00  0.00    +0.000 OA
ATOM     35  H   UNL     1     191.651 177.937 177.995  0.00  0.00    +0.000 HD
ENDBRANCH  14   5
BRANCH  15  17
ATOM     17  C   UNL     1     187.639 173.994 177.278  0.00  0.00    +0.000 C 
BRANCH  17   6
ATOM      6  O   UNL     1     187.680 173.437 175.978  0.00  0.00    +0.000 OA
ATOM     36  H   UNL     1     187.458 172.493 176.055  0.00  0.00    +0.000 HD
ENDBRANCH  17   6
ENDBRANCH  15  17
ENDBRANCH   2  16
ENDBRANCH  18   2
TORSDOF 11
ENDMDL
MODEL 2
REMARK VINA RESULT:     -10.0      2.167      8.887
REMARK  Name = 5320623
REMARK  11 active torsions:
REMARK  status: ('A' for Active; 'I' for Inactive)
REMARK    1  A    between atoms: O_2  and  C_16
REMARK    2  A    between atoms: O_2  and  C_18
REMARK    3  A    between atoms: O_3  and  C_12
REMARK    4  A    between atoms: O_4  and  C_13
REMARK    5  A    between atoms: O_5  and  C_14
REMARK    6  A    between atoms: O_6  and  C_17
REMARK    7  A    between atoms: O_8  and  C_20
REMARK    8  A    between atoms: O_9  and  C_23
REMARK    9  A    between atoms: O_11  and  C_32
REMARK   10  A    between atoms: C_15  and  C_17
REMARK   11  A    between atoms: C_25  and  C_27
REMARK                            x       y       z     vdW  Elec       q    Type
REMARK                         _______ _______ _______ _____ _____    ______ ____
ROOT
ATOM      7  O   UNL     1     185.710 176.083 179.663  0.00  0.00    +0.000 OA
ATOM     10  O   UNL     1     186.030 178.549 182.891  0.00  0.00    +0.000 OA
ATOM     18  C   UNL     1     182.176 176.370 180.506  0.00  0.00    +0.000 A 
ATOM     19  C   UNL     1     183.359 176.002 179.864  0.00  0.00    +0.000 A 
ATOM     20  C   UNL     1     182.216 177.214 181.617  0.00  0.00    +0.000 A 
ATOM     21  C   UNL     1     184.582 176.480 180.335  0.00  0.00    +0.000 A 
ATOM     22  C   UNL     1     184.620 177.322 181.446  0.00  0.00    +0.000 A 
ATOM     23  C   UNL     1     183.438 177.693 182.091  0.00  0.00    +0.000 A 
ATOM     24  C   UNL     1     185.923 177.810 181.922  0.00  0.00    +0.000 A 
ATOM     25  C   UNL     1     186.940 176.549 180.104  0.00  0.00    +0.000 A 
ATOM     26  C   UNL     1     187.106 177.357 181.163  0.00  0.00    +0.000 A 
ENDROOT
BRANCH  25  27
ATOM     27  C   UNL     1     188.086 176.057 179.314  0.00  0.00    +0.000 A 
ATOM     28  C   UNL     1     188.451 174.710 179.371  0.00  0.00    +0.000 A 
ATOM     29  C   UNL     1     188.812 176.937 178.509  0.00  0.00    +0.000 A 
ATOM     30  C   UNL     1     189.535 174.246 178.625  0.00  0.00    +0.000 A 
ATOM     31  C   UNL     1     189.896 176.473 177.763  0.00  0.00    +0.000 A 
ATOM     32  C   UNL     1     190.257 175.128 177.822  0.00  0.00    +0.000 A 
BRANCH  32  11
ATOM     11  O   UNL     1     191.315 174.675 177.094  0.00  0.00    +0.000 OA
ATOM     39  H   UNL     1     192.138 174.896 177.562  0.00  0.00    +0.000 HD
ENDBRANCH  32  11
ENDBRANCH  25  27
BRANCH  20   8
ATOM      8  O   UNL     1     181.055 177.568 182.240  0.00  0.00    +0.000 OA
ATOM     37  H   UNL     1     180.780 176.834 182.817  0.00  0.00    +0.000 HD
ENDBRANCH  20   8
BRANCH  23   9
ATOM      9  O   UNL     1     183.435 178.515 183.178  0.00  0.00    +0.000 OA
ATOM     38  H   UNL     1     182.916 178.129 183.900  0.00  0.00    +0.000 HD
ENDBRANCH  23   9
BRANCH  18   2
ATOM      2  O   UNL     1     180.985 175.898 180.036  0.00  0.00    +0.000 OA
BRANCH   2  16
ATOM      1  O   UNL     1     179.026 177.159 180.169  0.00  0.00    +0.000 OA
ATOM     12  C   UNL     1     178.676 177.070 177.319  0.00  0.00    +0.000 C 
ATOM     13  C   UNL     1     177.569 177.530 178.268  0.00  0.00    +0.000 C 
ATOM     14  C   UNL     1     179.697 176.192 178.045  0.00  0.00    +0.000 C 
ATOM     15  C   UNL     1     178.161 178.114 179.553  0.00  0.00    +0.000 C 
ATOM     16  C   UNL     1     180.151 176.834 179.356  0.00  0.00    +0.000 C 
BRANCH  12   3
ATOM      3  O   UNL     1     178.071 176.323 176.263  0.00  0.00    +0.000 OA
ATOM     33  H   UNL     1     177.107 176.381 176.381  0.00  0.00    +0.000 HD
ENDBRANCH  12   3
BRANCH  13   4
ATOM      4  O   UNL     1     176.775 178.521 177.622  0.00  0.00    +0.000 OA
ATOM     34  H   UNL     1     177.236 178.791 176.809  0.00  0.00    +0.000 HD
ENDBRANCH  13   4
BRANCH  14   5
ATOM      5  O   UNL     1     180.843 176.014 177.213  0.00  0.00    +0.000 OA
ATOM     35  H   UNL     1     181.576 175.703 177.770  0.00  0.00    +0.000 HD
ENDBRANCH  14   5
BRANCH  15  17
ATOM     17  C   UNL     1     177.077 178.471 180.564  0.00  0.00    +0.000 C 
BRANCH  17   6
ATOM      6  O   UNL     1     176.414 179.641 180.122  0.00  0.00    +0.000 OA
ATOM     36  H   UNL     1     177.090 180.324 179.972  0.00  0.00    +0.000 HD
ENDBRANCH  17   6
ENDBRANCH  15  17
ENDBRANCH   2  16
ENDBRANCH  18   2
TORSDOF 11
ENDMDL
MODEL 3
REMARK VINA RESULT:      -9.5     15.459     21.049
REMARK  Name = 5320623
REMARK  11 active torsions:
REMARK  status: ('A' for Active; 'I' for Inactive)
REMARK    1  A    between atoms: O_2  and  C_16
REMARK    2  A    between atoms: O_2  and  C_18
REMARK    3  A    between atoms: O_3  and  C_12
REMARK    4  A    between atoms: O_4  and  C_13
REMARK    5  A    between atoms: O_5  and  C_14
REMARK    6  A    between atoms: O_6  and  C_17
REMARK    7  A    between atoms: O_8  and  C_20
REMARK    8  A    between atoms: O_9  and  C_23
REMARK    9  A    between atoms: O_11  and  C_32
REMARK   10  A    between atoms: C_15  and  C_17
REMARK   11  A    between atoms: C_25  and  C_27
REMARK                            x       y       z     vdW  Elec       q    Type
REMARK                         _______ _______ _______ _____ _____    ______ ____
ROOT
ATOM      7  O   UNL     1     165.021 181.677 171.297  0.00  0.00    +0.000 OA
ATOM     10  O   UNL     1     163.188 178.161 172.235  0.00  0.00    +0.000 OA
ATOM     18  C   UNL     1     167.964 179.533 171.465  0.00  0.00    +0.000 A 
ATOM     19  C   UNL     1     167.150 180.655 171.306  0.00  0.00    +0.000 A 
ATOM     20  C   UNL     1     167.398 178.298 171.785  0.00  0.00    +0.000 A 
ATOM     21  C   UNL     1     165.770 180.540 171.467  0.00  0.00    +0.000 A 
ATOM     22  C   UNL     1     165.206 179.305 171.787  0.00  0.00    +0.000 A 
ATOM     23  C   UNL     1     166.018 178.180 171.948  0.00  0.00    +0.000 A 
ATOM     24  C   UNL     1     163.748 179.212 171.952  0.00  0.00    +0.000 A 
ATOM     25  C   UNL     1     163.645 181.590 171.443  0.00  0.00    +0.000 A 
ATOM     26  C   UNL     1     162.988 180.462 171.757  0.00  0.00    +0.000 A 
ENDROOT
BRANCH  25  27
ATOM     27  C   UNL     1     162.939 182.872 171.246  0.00  0.00    +0.000 A 
ATOM     28  C   UNL     1     162.537 183.262 169.967  0.00  0.00    +0.000 A 
ATOM     29  C   UNL     1     162.673 183.702 172.338  0.00  0.00    +0.000 A 
ATOM     30  C   UNL     1     161.870 184.473 169.781  0.00  0.00    +0.000 A 
ATOM     31  C   UNL     1     162.006 184.913 172.152  0.00  0.00    +0.000 A 
ATOM     32  C   UNL     1     161.606 185.299 170.874  0.00  0.00    +0.000 A 
BRANCH  32  11
ATOM     11  O   UNL     1     160.955 186.481 170.692  0.00  0.00    +0.000 OA
ATOM     39  H   UNL     1     161.546 187.209 170.951  0.00  0.00    +0.000 HD
ENDBRANCH  32  11
ENDBRANCH  25  27
BRANCH  20   8
ATOM      8  O   UNL     1     168.202 177.206 171.941  0.00  0.00    +0.000 OA
ATOM     37  H   UNL     1     168.524 176.936 171.063  0.00  0.00    +0.000 HD
ENDBRANCH  20   8
BRANCH  23   9
ATOM      9  O   UNL     1     165.504 176.957 172.259  0.00  0.00    +0.000 OA
ATOM     38  H   UNL     1     166.074 176.495 172.894  0.00  0.00    +0.000 HD
ENDBRANCH  23   9
BRANCH  18   2
ATOM      2  O   UNL     1     169.314 179.658 171.305  0.00  0.00    +0.000 OA
BRANCH   2  16
ATOM      1  O   UNL     1     170.621 181.545 171.724  0.00  0.00    +0.000 OA
ATOM     12  C   UNL     1     171.964 180.234 173.899  0.00  0.00    +0.000 C 
ATOM     13  C   UNL     1     172.471 181.542 173.290  0.00  0.00    +0.000 C 
ATOM     14  C   UNL     1     171.069 179.477 172.917  0.00  0.00    +0.000 C 
ATOM     15  C   UNL     1     171.317 182.343 172.683  0.00  0.00    +0.000 C 
ATOM     16  C   UNL     1     170.010 180.396 172.308  0.00  0.00    +0.000 C 
BRANCH  12   3
ATOM      3  O   UNL     1     173.099 179.430 174.226  0.00  0.00    +0.000 OA
ATOM     33  H   UNL     1     173.490 179.796 175.037  0.00  0.00    +0.000 HD
ENDBRANCH  12   3
BRANCH  13   4
ATOM      4  O   UNL     1     173.103 182.320 174.303  0.00  0.00    +0.000 OA
ATOM     34  H   UNL     1     173.987 181.946 174.461  0.00  0.00    +0.000 HD
ENDBRANCH  13   4
BRANCH  14   5
ATOM      5  O   UNL     1     170.402 178.420 173.604  0.00  0.00    +0.000 OA
ATOM     35  H   UNL     1     169.636 178.148 173.072  0.00  0.00    +0.000 HD
ENDBRANCH  14   5
BRANCH  15  17
ATOM     17  C   UNL     1     171.812 183.595 171.967  0.00  0.00    +0.000 C 
BRANCH  17   6
ATOM      6  O   UNL     1     173.121 183.353 171.486  0.00  0.00    +0.000 OA
ATOM     36  H   UNL     1     173.422 182.509 171.864  0.00  0.00    +0.000 HD
ENDBRANCH  17   6
ENDBRANCH  15  17
ENDBRANCH   2  16
ENDBRANCH  18   2
TORSDOF 11
ENDMDL
MODEL 4
REMARK VINA RESULT:      -9.3      2.028      8.551
REMARK  Name = 5320623
REMARK  11 active torsions:
REMARK  status: ('A' for Active; 'I' for Inactive)
REMARK    1  A    between atoms: O_2  and  C_16
REMARK    2  A    between atoms: O_2  and  C_18
REMARK    3  A    between atoms: O_3  and  C_12
REMARK    4  A    between atoms: O_4  and  C_13
REMARK    5  A    between atoms: O_5  and  C_14
REMARK    6  A    between atoms: O_6  and  C_17
REMARK    7  A    between atoms: O_8  and  C_20
REMARK    8  A    between atoms: O_9  and  C_23
REMARK    9  A    between atoms: O_11  and  C_32
REMARK   10  A    between atoms: C_15  and  C_17
REMARK   11  A    between atoms: C_25  and  C_27
REMARK                            x       y       z     vdW  Elec       q    Type
REMARK                         _______ _______ _______ _____ _____    ______ ____
ROOT
ATOM      7  O   UNL     1     185.224 175.715 179.387  0.00  0.00    +0.000 OA
ATOM     10  O   UNL     1     185.660 178.493 182.335  0.00  0.00    +0.000 OA
ATOM     18  C   UNL     1     181.760 175.902 180.504  0.00  0.00    +0.000 A 
ATOM     19  C   UNL     1     182.905 175.534 179.798  0.00  0.00    +0.000 A 
ATOM     20  C   UNL     1     181.840 176.850 181.525  0.00  0.00    +0.000 A 
ATOM     21  C   UNL     1     184.132 176.116 180.115  0.00  0.00    +0.000 A 
ATOM     22  C   UNL     1     184.211 177.063 181.136  0.00  0.00    +0.000 A 
ATOM     23  C   UNL     1     183.067 177.433 181.845  0.00  0.00    +0.000 A 
ATOM     24  C   UNL     1     185.518 177.659 181.451  0.00  0.00    +0.000 A 
ATOM     25  C   UNL     1     186.455 176.282 179.675  0.00  0.00    +0.000 A 
ATOM     26  C   UNL     1     186.660 177.196 180.637  0.00  0.00    +0.000 A 
ENDROOT
BRANCH  25  27
ATOM     27  C   UNL     1     187.560 175.775 178.837  0.00  0.00    +0.000 A 
ATOM     28  C   UNL     1     188.686 176.569 178.604  0.00  0.00    +0.000 A 
ATOM     29  C   UNL     1     187.483 174.500 178.271  0.00  0.00    +0.000 A 
ATOM     30  C   UNL     1     189.729 176.089 177.812  0.00  0.00    +0.000 A 
ATOM     31  C   UNL     1     188.526 174.021 177.479  0.00  0.00    +0.000 A 
ATOM     32  C   UNL     1     189.649 174.816 177.249  0.00  0.00    +0.000 A 
BRANCH  32  11
ATOM     11  O   UNL     1     190.667 174.348 176.476  0.00  0.00    +0.000 OA
ATOM     39  H   UNL     1     190.323 174.146 175.589  0.00  0.00    +0.000 HD
ENDBRANCH  32  11
ENDBRANCH  25  27
BRANCH  20   8
ATOM      8  O   UNL     1     180.715 177.203 182.211  0.00  0.00    +0.000 OA
ATOM     37  H   UNL     1     180.888 177.091 183.162  0.00  0.00    +0.000 HD
ENDBRANCH  20   8
BRANCH  23   9
ATOM      9  O   UNL     1     183.104 178.355 182.848  0.00  0.00    +0.000 OA
ATOM     38  H   UNL     1     183.072 179.255 182.489  0.00  0.00    +0.000 HD
ENDBRANCH  23   9
BRANCH  18   2
ATOM      2  O   UNL     1     180.564 175.326 180.184  0.00  0.00    +0.000 OA
BRANCH   2  16
ATOM      1  O   UNL     1     180.633 176.940 178.499  0.00  0.00    +0.000 OA
ATOM     12  C   UNL     1     177.766 177.112 178.431  0.00  0.00    +0.000 C 
ATOM     13  C   UNL     1     178.666 178.142 177.748  0.00  0.00    +0.000 C 
ATOM     14  C   UNL     1     178.514 176.375 179.543  0.00  0.00    +0.000 C 
ATOM     15  C   UNL     1     180.005 177.515 177.352  0.00  0.00    +0.000 C 
ATOM     16  C   UNL     1     179.874 175.871 179.060  0.00  0.00    +0.000 C 
BRANCH  12   3
ATOM      3  O   UNL     1     176.646 177.804 178.987  0.00  0.00    +0.000 OA
ATOM     33  H   UNL     1     176.956 178.683 179.264  0.00  0.00    +0.000 HD
ENDBRANCH  12   3
BRANCH  13   4
ATOM      4  O   UNL     1     178.015 178.636 176.581  0.00  0.00    +0.000 OA
ATOM     34  H   UNL     1     178.700 178.903 175.944  0.00  0.00    +0.000 HD
ENDBRANCH  13   4
BRANCH  14   5
ATOM      5  O   UNL     1     177.744 175.250 179.966  0.00  0.00    +0.000 OA
ATOM     35  H   UNL     1     177.067 175.563 180.589  0.00  0.00    +0.000 HD
ENDBRANCH  14   5
BRANCH  15  17
ATOM     17  C   UNL     1     180.965 178.550 176.775  0.00  0.00    +0.000 C 
BRANCH  17   6
ATOM      6  O   UNL     1     182.070 177.874 176.206  0.00  0.00    +0.000 OA
ATOM     36  H   UNL     1     181.724 177.240 175.554  0.00  0.00    +0.000 HD
ENDBRANCH  17   6
ENDBRANCH  15  17
ENDBRANCH   2  16
ENDBRANCH  18   2
TORSDOF 11
ENDMDL
MODEL 5
REMARK VINA RESULT:      -9.2     38.665     43.769
REMARK  Name = 5320623
REMARK  11 active torsions:
REMARK  status: ('A' for Active; 'I' for Inactive)
REMARK    1  A    between atoms: O_2  and  C_16
REMARK    2  A    between atoms: O_2  and  C_18
REMARK    3  A    between atoms: O_3  and  C_12
REMARK    4  A    between atoms: O_4  and  C_13
REMARK    5  A    between atoms: O_5  and  C_14
REMARK    6  A    between atoms: O_6  and  C_17
REMARK    7  A    between atoms: O_8  and  C_20
REMARK    8  A    between atoms: O_9  and  C_23
REMARK    9  A    between atoms: O_11  and  C_32
REMARK   10  A    between atoms: C_15  and  C_17
REMARK   11  A    between atoms: C_25  and  C_27
REMARK                            x       y       z     vdW  Elec       q    Type
REMARK                         _______ _______ _______ _____ _____    ______ ____
ROOT
ATOM      7  O   UNL     1     146.611 194.919 166.194  0.00  0.00    +0.000 OA
ATOM     10  O   UNL     1     144.849 198.270 167.700  0.00  0.00    +0.000 OA
ATOM     18  C   UNL     1     149.442 197.202 165.952  0.00  0.00    +0.000 A 
ATOM     19  C   UNL     1     148.659 196.051 165.870  0.00  0.00    +0.000 A 
ATOM     20  C   UNL     1     148.899 198.384 166.460  0.00  0.00    +0.000 A 
ATOM     21  C   UNL     1     147.331 196.083 166.298  0.00  0.00    +0.000 A 
ATOM     22  C   UNL     1     146.791 197.264 166.805  0.00  0.00    +0.000 A 
ATOM     23  C   UNL     1     147.571 198.419 166.888  0.00  0.00    +0.000 A 
ATOM     24  C   UNL     1     145.389 197.269 167.248  0.00  0.00    +0.000 A 
ATOM     25  C   UNL     1     145.292 194.919 166.619  0.00  0.00    +0.000 A 
ATOM     26  C   UNL     1     144.658 195.993 167.117  0.00  0.00    +0.000 A 
ENDROOT
BRANCH  25  27
ATOM     27  C   UNL     1     144.609 193.620 166.456  0.00  0.00    +0.000 A 
ATOM     28  C   UNL     1     143.366 193.554 165.823  0.00  0.00    +0.000 A 
ATOM     29  C   UNL     1     145.203 192.450 166.937  0.00  0.00    +0.000 A 
ATOM     30  C   UNL     1     142.722 192.326 165.670  0.00  0.00    +0.000 A 
ATOM     31  C   UNL     1     144.559 191.223 166.784  0.00  0.00    +0.000 A 
ATOM     32  C   UNL     1     143.318 191.161 166.151  0.00  0.00    +0.000 A 
BRANCH  32  11
ATOM     11  O   UNL     1     142.689 189.962 166.002  0.00  0.00    +0.000 OA
ATOM     39  H   UNL     1     141.733 190.118 165.912  0.00  0.00    +0.000 HD
ENDBRANCH  32  11
ENDBRANCH  25  27
BRANCH  20   8
ATOM      8  O   UNL     1     149.672 199.506 166.535  0.00  0.00    +0.000 OA
ATOM     37  H   UNL     1     149.112 200.244 166.833  0.00  0.00    +0.000 HD
ENDBRANCH  20   8
BRANCH  23   9
ATOM      9  O   UNL     1     147.078 199.590 167.379  0.00  0.00    +0.000 OA
ATOM     38  H   UNL     1     147.779 200.259 167.442  0.00  0.00    +0.000 HD
ENDBRANCH  23   9
BRANCH  18   2
ATOM      2  O   UNL     1     150.739 197.160 165.531  0.00  0.00    +0.000 OA
BRANCH   2  16
ATOM      1  O   UNL     1     152.707 197.709 166.660  0.00  0.00    +0.000 OA
ATOM     12  C   UNL     1     153.477 194.947 166.834  0.00  0.00    +0.000 C 
ATOM     13  C   UNL     1     154.447 196.090 167.134  0.00  0.00    +0.000 C 
ATOM     14  C   UNL     1     152.323 195.419 165.948  0.00  0.00    +0.000 C 
ATOM     15  C   UNL     1     153.693 197.330 167.621  0.00  0.00    +0.000 C 
ATOM     16  C   UNL     1     151.704 196.711 166.482  0.00  0.00    +0.000 C 
BRANCH  12   3
ATOM      3  O   UNL     1     154.202 193.916 166.163  0.00  0.00    +0.000 OA
ATOM     33  H   UNL     1     154.843 193.551 166.797  0.00  0.00    +0.000 HD
ENDBRANCH  12   3
BRANCH  13   4
ATOM      4  O   UNL     1     155.369 195.674 168.138  0.00  0.00    +0.000 OA
ATOM     34  H   UNL     1     156.212 195.462 167.703  0.00  0.00    +0.000 HD
ENDBRANCH  13   4
BRANCH  14   5
ATOM      5  O   UNL     1     151.309 194.416 165.918  0.00  0.00    +0.000 OA
ATOM     35  H   UNL     1     150.730 194.548 166.688  0.00  0.00    +0.000 HD
ENDBRANCH  14   5
BRANCH  15  17
ATOM     17  C   UNL     1     154.627 198.520 167.815  0.00  0.00    +0.000 C 
BRANCH  17   6
ATOM      6  O   UNL     1     155.769 198.336 166.999  0.00  0.00    +0.000 OA
ATOM     36  H   UNL     1     156.395 199.052 167.203  0.00  0.00    +0.000 HD
ENDBRANCH  17   6
ENDBRANCH  15  17
ENDBRANCH   2  16
ENDBRANCH  18   2
TORSDOF 11
ENDMDL
MODEL 6
REMARK VINA RESULT:      -9.1      2.386      4.505
REMARK  Name = 5320623
REMARK  11 active torsions:
REMARK  status: ('A' for Active; 'I' for Inactive)
REMARK    1  A    between atoms: O_2  and  C_16
REMARK    2  A    between atoms: O_2  and  C_18
REMARK    3  A    between atoms: O_3  and  C_12
REMARK    4  A    between atoms: O_4  and  C_13
REMARK    5  A    between atoms: O_5  and  C_14
REMARK    6  A    between atoms: O_6  and  C_17
REMARK    7  A    between atoms: O_8  and  C_20
REMARK    8  A    between atoms: O_9  and  C_23
REMARK    9  A    between atoms: O_11  and  C_32
REMARK   10  A    between atoms: C_15  and  C_17
REMARK   11  A    between atoms: C_25  and  C_27
REMARK                            x       y       z     vdW  Elec       q    Type
REMARK                         _______ _______ _______ _____ _____    ______ ____
ROOT
ATOM      7  O   UNL     1     185.477 176.327 182.220  0.00  0.00    +0.000 OA
ATOM     10  O   UNL     1     182.683 178.393 180.093  0.00  0.00    +0.000 OA
ATOM     18  C   UNL     1     187.678 177.904 179.781  0.00  0.00    +0.000 A 
ATOM     19  C   UNL     1     187.224 177.135 180.853  0.00  0.00    +0.000 A 
ATOM     20  C   UNL     1     186.772 178.637 179.013  0.00  0.00    +0.000 A 
ATOM     21  C   UNL     1     185.863 177.100 181.155  0.00  0.00    +0.000 A 
ATOM     22  C   UNL     1     184.960 177.833 180.386  0.00  0.00    +0.000 A 
ATOM     23  C   UNL     1     185.410 178.604 179.312  0.00  0.00    +0.000 A 
ATOM     24  C   UNL     1     183.530 177.778 180.726  0.00  0.00    +0.000 A 
ATOM     25  C   UNL     1     184.131 176.280 182.549  0.00  0.00    +0.000 A 
ATOM     26  C   UNL     1     183.166 176.934 181.882  0.00  0.00    +0.000 A 
ENDROOT
BRANCH  25  27
ATOM     27  C   UNL     1     183.825 175.414 183.706  0.00  0.00    +0.000 A 
ATOM     28  C   UNL     1     182.603 175.535 184.370  0.00  0.00    +0.000 A 
ATOM     29  C   UNL     1     184.760 174.471 184.142  0.00  0.00    +0.000 A 
ATOM     30  C   UNL     1     182.316 174.718 185.463  0.00  0.00    +0.000 A 
ATOM     31  C   UNL     1     184.472 173.653 185.235  0.00  0.00    +0.000 A 
ATOM     32  C   UNL     1     183.251 173.777 185.896  0.00  0.00    +0.000 A 
BRANCH  32  11
ATOM     11  O   UNL     1     182.970 172.979 186.963  0.00  0.00    +0.000 OA
ATOM     39  H   UNL     1     182.113 173.245 187.338  0.00  0.00    +0.000 HD
ENDBRANCH  32  11
ENDBRANCH  25  27
BRANCH  20   8
ATOM      8  O   UNL     1     187.225 179.386 177.965  0.00  0.00    +0.000 OA
ATOM     37  H   UNL     1     186.525 179.421 177.289  0.00  0.00    +0.000 HD
ENDBRANCH  20   8
BRANCH  23   9
ATOM      9  O   UNL     1     184.558 179.334 178.539  0.00  0.00    +0.000 OA
ATOM     38  H   UNL     1     184.328 178.851 177.730  0.00  0.00    +0.000 HD
ENDBRANCH  23   9
BRANCH  18   2
ATOM      2  O   UNL     1     189.012 177.931 179.495  0.00  0.00    +0.000 OA
BRANCH   2  16
ATOM      1  O   UNL     1     188.460 175.964 178.367  0.00  0.00    +0.000 OA
ATOM     12  C   UNL     1     191.153 174.985 178.586  0.00  0.00    +0.000 C 
ATOM     13  C   UNL     1     189.986 174.090 178.169  0.00  0.00    +0.000 C 
ATOM     14  C   UNL     1     190.662 176.207 179.364  0.00  0.00    +0.000 C 
ATOM     15  C   UNL     1     188.882 174.912 177.498  0.00  0.00    +0.000 C 
ATOM     16  C   UNL     1     189.503 176.896 178.644  0.00  0.00    +0.000 C 
BRANCH  12   3
ATOM      3  O   UNL     1     192.027 174.214 179.411  0.00  0.00    +0.000 OA
ATOM     33  H   UNL     1     191.592 174.105 180.274  0.00  0.00    +0.000 HD
ENDBRANCH  12   3
BRANCH  13   4
ATOM      4  O   UNL     1     190.454 173.098 177.259  0.00  0.00    +0.000 OA
ATOM     34  H   UNL     1     190.595 173.525 176.396  0.00  0.00    +0.000 HD
ENDBRANCH  13   4
BRANCH  14   5
ATOM      5  O   UNL     1     191.730 177.145 179.493  0.00  0.00    +0.000 OA
ATOM     35  H   UNL     1     191.955 177.471 178.606  0.00  0.00    +0.000 HD
ENDBRANCH  14   5
BRANCH  15  17
ATOM     17  C   UNL     1     187.658 174.061 177.178  0.00  0.00    +0.000 C 
BRANCH  17   6
ATOM      6  O   UNL     1     187.820 173.502 175.888  0.00  0.00    +0.000 OA
ATOM     36  H   UNL     1     188.774 173.402 175.729  0.00  0.00    +0.000 HD
ENDBRANCH  17   6
ENDBRANCH  15  17
ENDBRANCH   2  16
ENDBRANCH  18   2
TORSDOF 11
ENDMDL
MODEL 7
REMARK VINA RESULT:      -9.0     38.241     43.767
REMARK  Name = 5320623
REMARK  11 active torsions:
REMARK  status: ('A' for Active; 'I' for Inactive)
REMARK    1  A    between atoms: O_2  and  C_16
REMARK    2  A    between atoms: O_2  and  C_18
REMARK    3  A    between atoms: O_3  and  C_12
REMARK    4  A    between atoms: O_4  and  C_13
REMARK    5  A    between atoms: O_5  and  C_14
REMARK    6  A    between atoms: O_6  and  C_17
REMARK    7  A    between atoms: O_8  and  C_20
REMARK    8  A    between atoms: O_9  and  C_23
REMARK    9  A    between atoms: O_11  and  C_32
REMARK   10  A    between atoms: C_15  and  C_17
REMARK   11  A    between atoms: C_25  and  C_27
REMARK                            x       y       z     vdW  Elec       q    Type
REMARK                         _______ _______ _______ _____ _____    ______ ____
ROOT
ATOM      7  O   UNL     1     147.072 196.687 166.510  0.00  0.00    +0.000 OA
ATOM     10  O   UNL     1     146.421 200.674 167.044  0.00  0.00    +0.000 OA
ATOM     18  C   UNL     1     150.359 197.930 165.544  0.00  0.00    +0.000 A 
ATOM     19  C   UNL     1     149.298 197.067 165.818  0.00  0.00    +0.000 A 
ATOM     20  C   UNL     1     150.202 199.308 165.708  0.00  0.00    +0.000 A 
ATOM     21  C   UNL     1     148.079 197.585 166.256  0.00  0.00    +0.000 A 
ATOM     22  C   UNL     1     147.924 198.961 166.420  0.00  0.00    +0.000 A 
ATOM     23  C   UNL     1     148.984 199.828 166.146  0.00  0.00    +0.000 A 
ATOM     24  C   UNL     1     146.628 199.479 166.882  0.00  0.00    +0.000 A 
ATOM     25  C   UNL     1     145.852 197.172 166.955  0.00  0.00    +0.000 A 
ATOM     26  C   UNL     1     145.579 198.473 167.144  0.00  0.00    +0.000 A 
ENDROOT
BRANCH  25  27
ATOM     27  C   UNL     1     144.839 196.123 167.190  0.00  0.00    +0.000 A 
ATOM     28  C   UNL     1     143.831 196.320 168.136  0.00  0.00    +0.000 A 
ATOM     29  C   UNL     1     144.888 194.927 166.470  0.00  0.00    +0.000 A 
ATOM     30  C   UNL     1     142.875 195.329 168.358  0.00  0.00    +0.000 A 
ATOM     31  C   UNL     1     143.932 193.936 166.692  0.00  0.00    +0.000 A 
ATOM     32  C   UNL     1     142.927 194.136 167.637  0.00  0.00    +0.000 A 
BRANCH  32  11
ATOM     11  O   UNL     1     141.994 193.168 167.854  0.00  0.00    +0.000 OA
ATOM     39  H   UNL     1     141.471 193.406 168.639  0.00  0.00    +0.000 HD
ENDBRANCH  32  11
ENDBRANCH  25  27
BRANCH  20   8
ATOM      8  O   UNL     1     151.246 200.144 165.437  0.00  0.00    +0.000 OA
ATOM     37  H   UNL     1     151.234 200.350 164.485  0.00  0.00    +0.000 HD
ENDBRANCH  20   8
BRANCH  23   9
ATOM      9  O   UNL     1     148.870 201.177 166.295  0.00  0.00    +0.000 OA
ATOM     38  H   UNL     1     147.965 201.470 166.108  0.00  0.00    +0.000 HD
ENDBRANCH  23   9
BRANCH  18   2
ATOM      2  O   UNL     1     151.547 197.414 165.116  0.00  0.00    +0.000 OA
BRANCH   2  16
ATOM      1  O   UNL     1     153.507 197.843 166.308  0.00  0.00    +0.000 OA
ATOM     12  C   UNL     1     154.031 195.036 166.621  0.00  0.00    +0.000 C 
ATOM     13  C   UNL     1     155.083 196.104 166.919  0.00  0.00    +0.000 C 
ATOM     14  C   UNL     1     152.959 195.565 165.668  0.00  0.00    +0.000 C 
ATOM     15  C   UNL     1     154.418 197.422 167.325  0.00  0.00    +0.000 C 
ATOM     16  C   UNL     1     152.431 196.925 166.124  0.00  0.00    +0.000 C 
BRANCH  12   3
ATOM      3  O   UNL     1     154.692 193.920 166.022  0.00  0.00    +0.000 OA
ATOM     33  H   UNL     1     154.472 193.926 165.074  0.00  0.00    +0.000 HD
ENDBRANCH  12   3
BRANCH  13   4
ATOM      4  O   UNL     1     155.924 195.656 167.978  0.00  0.00    +0.000 OA
ATOM     34  H   UNL     1     156.102 194.710 167.839  0.00  0.00    +0.000 HD
ENDBRANCH  13   4
BRANCH  14   5
ATOM      5  O   UNL     1     151.864 194.650 165.632  0.00  0.00    +0.000 OA
ATOM     35  H   UNL     1     151.923 194.140 164.807  0.00  0.00    +0.000 HD
ENDBRANCH  14   5
BRANCH  15  17
ATOM     17  C   UNL     1     155.442 198.537 167.514  0.00  0.00    +0.000 C 
BRANCH  17   6
ATOM      6  O   UNL     1     156.642 198.164 166.863  0.00  0.00    +0.000 OA
ATOM     36  H   UNL     1     156.422 197.473 166.214  0.00  0.00    +0.000 HD
ENDBRANCH  17   6
ENDBRANCH  15  17
ENDBRANCH   2  16
ENDBRANCH  18   2
TORSDOF 11
ENDMDL
MODEL 8
REMARK VINA RESULT:      -9.0      2.775      4.179
REMARK  Name = 5320623
REMARK  11 active torsions:
REMARK  status: ('A' for Active; 'I' for Inactive)
REMARK    1  A    between atoms: O_2  and  C_16
REMARK    2  A    between atoms: O_2  and  C_18
REMARK    3  A    between atoms: O_3  and  C_12
REMARK    4  A    between atoms: O_4  and  C_13
REMARK    5  A    between atoms: O_5  and  C_14
REMARK    6  A    between atoms: O_6  and  C_17
REMARK    7  A    between atoms: O_8  and  C_20
REMARK    8  A    between atoms: O_9  and  C_23
REMARK    9  A    between atoms: O_11  and  C_32
REMARK   10  A    between atoms: C_15  and  C_17
REMARK   11  A    between atoms: C_25  and  C_27
REMARK                            x       y       z     vdW  Elec       q    Type
REMARK                         _______ _______ _______ _____ _____    ______ ____
ROOT
ATOM      7  O   UNL     1     183.085 175.780 181.526  0.00  0.00    +0.000 OA
ATOM     10  O   UNL     1     181.023 178.157 178.938  0.00  0.00    +0.000 OA
ATOM     18  C   UNL     1     185.890 177.594 180.068  0.00  0.00    +0.000 A 
ATOM     19  C   UNL     1     185.149 176.709 180.852  0.00  0.00    +0.000 A 
ATOM     20  C   UNL     1     185.244 178.437 179.163  0.00  0.00    +0.000 A 
ATOM     21  C   UNL     1     183.760 176.670 180.729  0.00  0.00    +0.000 A 
ATOM     22  C   UNL     1     183.116 177.513 179.823  0.00  0.00    +0.000 A 
ATOM     23  C   UNL     1     183.855 178.399 179.036  0.00  0.00    +0.000 A 
ATOM     24  C   UNL     1     181.652 177.449 179.713  0.00  0.00    +0.000 A 
ATOM     25  C   UNL     1     181.703 175.725 181.431  0.00  0.00    +0.000 A 
ATOM     26  C   UNL     1     180.972 176.478 180.594  0.00  0.00    +0.000 A 
ENDROOT
BRANCH  25  27
ATOM     27  C   UNL     1     181.079 174.730 182.327  0.00  0.00    +0.000 A 
ATOM     28  C   UNL     1     181.264 174.817 183.709  0.00  0.00    +0.000 A 
ATOM     29  C   UNL     1     180.303 173.697 181.796  0.00  0.00    +0.000 A 
ATOM     30  C   UNL     1     180.675 173.878 184.555  0.00  0.00    +0.000 A 
ATOM     31  C   UNL     1     179.715 172.757 182.642  0.00  0.00    +0.000 A 
ATOM     32  C   UNL     1     179.901 172.847 184.021  0.00  0.00    +0.000 A 
BRANCH  32  11
ATOM     11  O   UNL     1     179.326 171.930 184.847  0.00  0.00    +0.000 OA
ATOM     39  H   UNL     1     178.360 172.002 184.773  0.00  0.00    +0.000 HD
ENDBRANCH  32  11
ENDBRANCH  25  27
BRANCH  20   8
ATOM      8  O   UNL     1     185.977 179.298 178.399  0.00  0.00    +0.000 OA
ATOM     37  H   UNL     1     186.757 178.822 178.064  0.00  0.00    +0.000 HD
ENDBRANCH  20   8
BRANCH  23   9
ATOM      9  O   UNL     1     183.262 179.238 178.142  0.00  0.00    +0.000 OA
ATOM     38  H   UNL     1     182.721 178.741 177.509  0.00  0.00    +0.000 HD
ENDBRANCH  23   9
BRANCH  18   2
ATOM      2  O   UNL     1     187.248 177.625 180.198  0.00  0.00    +0.000 OA
BRANCH   2  16
ATOM      1  O   UNL     1     188.461 175.646 179.949  0.00  0.00    +0.000 OA
ATOM     12  C   UNL     1     190.111 176.817 177.909  0.00  0.00    +0.000 C 
ATOM     13  C   UNL     1     190.462 175.493 178.588  0.00  0.00    +0.000 C 
ATOM     14  C   UNL     1     189.171 177.653 178.778  0.00  0.00    +0.000 C 
ATOM     15  C   UNL     1     189.199 174.783 179.082  0.00  0.00    +0.000 C 
ATOM     16  C   UNL     1     187.995 176.819 179.286  0.00  0.00    +0.000 C 
BRANCH  12   3
ATOM      3  O   UNL     1     191.326 177.537 177.691  0.00  0.00    +0.000 OA
ATOM     33  H   UNL     1     191.117 178.290 177.113  0.00  0.00    +0.000 HD
ENDBRANCH  12   3
BRANCH  13   4
ATOM      4  O   UNL     1     191.142 174.652 177.661  0.00  0.00    +0.000 OA
ATOM     34  H   UNL     1     190.526 174.442 176.938  0.00  0.00    +0.000 HD
ENDBRANCH  13   4
BRANCH  14   5
ATOM      5  O   UNL     1     188.653 178.736 178.007  0.00  0.00    +0.000 OA
ATOM     35  H   UNL     1     188.098 178.366 177.301  0.00  0.00    +0.000 HD
ENDBRANCH  14   5
BRANCH  15  17
ATOM     17  C   UNL     1     189.530 173.518 179.866  0.00  0.00    +0.000 C 
BRANCH  17   6
ATOM      6  O   UNL     1     189.474 172.412 178.985  0.00  0.00    +0.000 OA
ATOM     36  H   UNL     1     188.635 171.948 179.148  0.00  0.00    +0.000 HD
ENDBRANCH  17   6
ENDBRANCH  15  17
ENDBRANCH   2  16
ENDBRANCH  18   2
TORSDOF 11
ENDMDL
MODEL 9
REMARK VINA RESULT:      -8.9     15.439     20.927
REMARK  Name = 5320623
REMARK  11 active torsions:
REMARK  status: ('A' for Active; 'I' for Inactive)
REMARK    1  A    between atoms: O_2  and  C_16
REMARK    2  A    between atoms: O_2  and  C_18
REMARK    3  A    between atoms: O_3  and  C_12
REMARK    4  A    between atoms: O_4  and  C_13
REMARK    5  A    between atoms: O_5  and  C_14
REMARK    6  A    between atoms: O_6  and  C_17
REMARK    7  A    between atoms: O_8  and  C_20
REMARK    8  A    between atoms: O_9  and  C_23
REMARK    9  A    between atoms: O_11  and  C_32
REMARK   10  A    between atoms: C_15  and  C_17
REMARK   11  A    between atoms: C_25  and  C_27
REMARK                            x       y       z     vdW  Elec       q    Type
REMARK                         _______ _______ _______ _____ _____    ______ ____
ROOT
ATOM      7  O   UNL     1     164.967 179.073 172.411  0.00  0.00    +0.000 OA
ATOM     10  O   UNL     1     163.809 179.807 168.574  0.00  0.00    +0.000 OA
ATOM     18  C   UNL     1     168.248 179.094 170.826  0.00  0.00    +0.000 A 
ATOM     19  C   UNL     1     167.245 179.007 171.790  0.00  0.00    +0.000 A 
ATOM     20  C   UNL     1     167.919 179.346 169.493  0.00  0.00    +0.000 A 
ATOM     21  C   UNL     1     165.910 179.170 171.419  0.00  0.00    +0.000 A 
ATOM     22  C   UNL     1     165.583 179.421 170.087  0.00  0.00    +0.000 A 
ATOM     23  C   UNL     1     166.585 179.509 169.118  0.00  0.00    +0.000 A 
ATOM     24  C   UNL     1     164.168 179.588 169.724  0.00  0.00    +0.000 A 
ATOM     25  C   UNL     1     163.633 179.240 172.073  0.00  0.00    +0.000 A 
ATOM     26  C   UNL     1     163.193 179.477 170.827  0.00  0.00    +0.000 A 
ENDROOT
BRANCH  25  27
ATOM     27  C   UNL     1     162.704 179.109 173.214  0.00  0.00    +0.000 A 
ATOM     28  C   UNL     1     162.960 178.180 174.225  0.00  0.00    +0.000 A 
ATOM     29  C   UNL     1     161.563 179.913 173.285  0.00  0.00    +0.000 A 
ATOM     30  C   UNL     1     162.082 178.057 175.302  0.00  0.00    +0.000 A 
ATOM     31  C   UNL     1     160.686 179.790 174.362  0.00  0.00    +0.000 A 
ATOM     32  C   UNL     1     160.945 178.862 175.370  0.00  0.00    +0.000 A 
BRANCH  32  11
ATOM     11  O   UNL     1     160.088 178.741 176.421  0.00  0.00    +0.000 OA
ATOM     39  H   UNL     1     160.576 178.393 177.186  0.00  0.00    +0.000 HD
ENDBRANCH  32  11
ENDBRANCH  25  27
BRANCH  20   8
ATOM      8  O   UNL     1     168.908 179.429 168.555  0.00  0.00    +0.000 OA
ATOM     37  H   UNL     1     168.569 179.062 167.720  0.00  0.00    +0.000 HD
ENDBRANCH  20   8
BRANCH  23   9
ATOM      9  O   UNL     1     166.304 179.754 167.808  0.00  0.00    +0.000 OA
ATOM     38  H   UNL     1     165.364 179.603 167.623  0.00  0.00    +0.000 HD
ENDBRANCH  23   9
BRANCH  18   2
ATOM      2  O   UNL     1     169.551 178.933 171.200  0.00  0.00    +0.000 OA
BRANCH   2  16
ATOM      1  O   UNL     1     170.420 181.009 171.819  0.00  0.00    +0.000 OA
ATOM     12  C   UNL     1     171.817 179.853 174.047  0.00  0.00    +0.000 C 
ATOM     13  C   UNL     1     172.102 181.269 173.545  0.00  0.00    +0.000 C 
ATOM     14  C   UNL     1     171.172 178.999 172.955  0.00  0.00    +0.000 C 
ATOM     15  C   UNL     1     170.864 181.866 172.871  0.00  0.00    +0.000 C 
ATOM     16  C   UNL     1     170.004 179.730 172.293  0.00  0.00    +0.000 C 
BRANCH  12   3
ATOM      3  O   UNL     1     173.059 179.266 174.440  0.00  0.00    +0.000 OA
ATOM     33  H   UNL     1     173.028 179.139 175.403  0.00  0.00    +0.000 HD
ENDBRANCH  12   3
BRANCH  13   4
ATOM      4  O   UNL     1     172.483 182.092 174.644  0.00  0.00    +0.000 OA
ATOM     34  H   UNL     1     172.542 181.528 175.434  0.00  0.00    +0.000 HD
ENDBRANCH  13   4
BRANCH  14   5
ATOM      5  O   UNL     1     170.675 177.792 173.532  0.00  0.00    +0.000 OA
ATOM     35  H   UNL     1     170.575 177.932 174.488  0.00  0.00    +0.000 HD
ENDBRANCH  14   5
BRANCH  15  17
ATOM     17  C   UNL     1     171.157 183.232 172.258  0.00  0.00    +0.000 C 
BRANCH  17   6
ATOM      6  O   UNL     1     171.085 184.210 173.278  0.00  0.00    +0.000 OA
ATOM     36  H   UNL     1     171.950 184.655 173.321  0.00  0.00    +0.000 HD
ENDBRANCH  17   6
ENDBRANCH  15  17
ENDBRANCH   2  16
ENDBRANCH  18   2
TORSDOF 11
ENDMDL
