MODEL 1
REMARK VINA RESULT:   -11.323      0.000      0.000
REMARK INTER + INTRA:         -27.846
REMARK INTER:                 -29.196
REMARK INTRA:                   1.350
REMARK UNBOUND:                 1.350
REMARK WARNING: 32 MAX_TORS EXCEEDED!!!
REMARK  38 active torsions:
REMARK  status: ('A' for Active; 'I' for Inactive)
REMARK    1  A    between atoms: O_2  and  C_27 
REMARK    2  A    between atoms: O_2  and  C_33 
REMARK    3  A    between atoms: O_3  and  C_28 
REMARK    4  A    between atoms: O_3  and  C_34 
REMARK    5  A    between atoms: O_4  and  C_29 
REMARK    6  A    between atoms: O_4  and  C_35 
REMARK    7  A    between atoms: O_5  and  C_31 
REMARK    8  A    between atoms: O_5  and  C_36 
REMARK    9  A    between atoms: O_6  and  C_32 
REMARK   10  A    between atoms: O_6  and  C_39 
REMARK   11  A    between atoms: O_12  and  C_51 
REMARK   12  A    between atoms: O_13  and  C_52 
REMARK   13  A    between atoms: O_14  and  C_53 
REMARK   14  A    between atoms: O_15  and  C_54 
REMARK   15  A    between atoms: O_16  and  C_55 
REMARK   16  A    between atoms: O_17  and  C_56 
REMARK   17  A    between atoms: O_18  and  C_59 
REMARK   18  A    between atoms: O_19  and  C_60 
REMARK   19  A    between atoms: O_20  and  C_61 
REMARK   20  A    between atoms: O_21  and  C_62 
REMARK   21  A    between atoms: O_22  and  C_63 
REMARK   22  A    between atoms: O_23  and  C_64 
REMARK   23  A    between atoms: O_24  and  C_65 
REMARK   24  A    between atoms: O_24  and  C_86 
REMARK   25  A    between atoms: O_25  and  C_66 
REMARK   26  A    between atoms: O_26  and  C_67 
REMARK   27  A    between atoms: C_28  and  C_30 
REMARK   28  A    between atoms: C_29  and  C_31 
REMARK   29  A    between atoms: C_30  and  C_32 
REMARK   30  A    between atoms: C_33  and  C_37 
REMARK   31  A    between atoms: C_34  and  C_38 
REMARK   32  A    between atoms: C_35  and  C_40 
REMARK   33  A    between atoms: C_36  and  C_41 
REMARK   34  A    between atoms: C_39  and  C_42 
REMARK   35  A    between atoms: O_83  and  C_90 
REMARK   36  A    between atoms: O_84  and  C_91 
REMARK   37  A    between atoms: O_85  and  C_92 
REMARK   38  A    between atoms: C_86  and  C_87 
ROOT
HETATM    1  O   UNL     1     106.068 148.076 161.989  1.00  0.00    -0.348 OA
HETATM    2  C   UNL     1     106.205 146.728 162.119  1.00  0.00     0.201 A 
HETATM    3  C   UNL     1     105.119 147.423 162.735  1.00  0.00     0.282 A 
ENDROOT
BRANCH   2   4
HETATM    4  C   UNL     1     106.406 146.398 162.847  1.00  0.00     0.199 A 
HETATM    5  C   UNL     1     107.673 145.455 162.775  1.00  0.00     0.198 A 
HETATM    6  C   UNL     1     107.729 146.922 162.719  1.00  0.00     0.215 A 
BRANCH   4   7
HETATM    7  O   UNL     1     105.518 144.934 162.506  1.00  0.00    -0.306 OA
BRANCH   7   8
HETATM    8  C   UNL     1     104.824 143.872 162.878  1.00  0.00     0.294 C 
HETATM    9  O   UNL     1     104.514 142.979 162.097  1.00  0.00    -0.259 OA
BRANCH   8  10
HETATM   10  C   UNL     1     104.454 143.690 164.270  1.00  0.00     0.045 A 
HETATM   11  C   UNL     1     104.516 144.804 165.117  1.00  0.00     0.057 A 
HETATM   12  C   UNL     1     103.749 144.800 166.273  1.00  0.00     0.102 A 
HETATM   13  C   UNL     1     102.956 143.698 166.584  1.00  0.00     0.132 A 
HETATM   14  C   UNL     1     102.930 142.585 165.750  1.00  0.00     0.102 A 
HETATM   15  C   UNL     1     103.658 142.582 164.573  1.00  0.00     0.057 A 
BRANCH  12  16
HETATM   16  O   UNL     1     103.684 145.894 167.091  1.00  0.00    -0.358 OA
HETATM   17  H   UNL     1     104.121 146.635 166.630  1.00  0.00     0.217 HD
ENDBRANCH  12  16
BRANCH  13  18
HETATM   18  O   UNL     1     102.132 143.722 167.676  1.00  0.00    -0.356 OA
HETATM   19  H   UNL     1     102.629 144.247 168.337  1.00  0.00     0.218 HD
ENDBRANCH  13  18
BRANCH  14  20
HETATM   20  O   UNL     1     102.126 141.522 166.044  1.00  0.00    -0.358 OA
HETATM   21  H   UNL     1     102.716 140.745 165.939  1.00  0.00     0.217 HD
ENDBRANCH  14  20
ENDBRANCH   8  10
ENDBRANCH   7   8
ENDBRANCH   4   7
BRANCH   5  22
HETATM   22  O   UNL     1     107.976 144.892 164.177  1.00  0.00    -0.306 OA
BRANCH  22  23
HETATM   23  C   UNL     1     108.068 143.535 164.425  1.00  0.00     0.294 C 
HETATM   24  O   UNL     1     107.953 142.614 163.626  1.00  0.00    -0.259 OA
BRANCH  23  25
HETATM   25  C   UNL     1     108.305 143.199 165.825  1.00  0.00     0.045 A 
HETATM   26  C   UNL     1     107.204 142.998 166.675  1.00  0.00     0.057 A 
HETATM   27  C   UNL     1     107.432 142.700 168.010  1.00  0.00     0.102 A 
HETATM   28  C   UNL     1     108.734 142.636 168.490  1.00  0.00     0.132 A 
HETATM   29  C   UNL     1     109.805 142.950 167.663  1.00  0.00     0.102 A 
HETATM   30  C   UNL     1     109.601 143.250 166.328  1.00  0.00     0.057 A 
BRANCH  27  31
HETATM   31  O   UNL     1     106.409 142.469 168.884  1.00  0.00    -0.358 OA
HETATM   32  H   UNL     1     106.780 142.399 169.784  1.00  0.00     0.217 HD
ENDBRANCH  27  31
BRANCH  28  33
HETATM   33  O   UNL     1     108.981 142.271 169.784  1.00  0.00    -0.356 OA
HETATM   34  H   UNL     1     109.346 143.082 170.194  1.00  0.00     0.218 HD
ENDBRANCH  28  33
BRANCH  29  35
HETATM   35  O   UNL     1     111.075 142.966 168.155  1.00  0.00    -0.358 OA
HETATM   36  H   UNL     1     111.136 142.170 168.718  1.00  0.00     0.217 HD
ENDBRANCH  29  35
ENDBRANCH  23  25
ENDBRANCH  22  23
ENDBRANCH   5  22
BRANCH   6  37
HETATM   37  O   UNL     1     109.239 147.481 163.059  1.00  0.00    -0.304 OA
BRANCH  37  38
HETATM   38  C   UNL     1     109.862 148.525 162.449  1.00  0.00     0.294 C 
HETATM   39  O   UNL     1     109.417 149.253 161.587  1.00  0.00    -0.259 OA
BRANCH  38  40
HETATM   40  C   UNL     1     111.221 148.600 162.991  1.00  0.00     0.045 A 
HETATM   41  C   UNL     1     111.345 148.859 164.357  1.00  0.00     0.057 A 
HETATM   42  C   UNL     1     112.604 148.909 164.921  1.00  0.00     0.102 A 
HETATM   43  C   UNL     1     113.728 148.687 164.140  1.00  0.00     0.132 A 
HETATM   44  C   UNL     1     113.597 148.399 162.782  1.00  0.00     0.102 A 
HETATM   45  C   UNL     1     112.340 148.356 162.189  1.00  0.00     0.057 A 
BRANCH  42  46
HETATM   46  O   UNL     1     112.711 149.158 166.254  1.00  0.00    -0.358 OA
HETATM   47  H   UNL     1     113.616 148.880 166.497  1.00  0.00     0.217 HD
ENDBRANCH  42  46
BRANCH  43  48
HETATM   48  O   UNL     1     114.961 148.727 164.730  1.00  0.00    -0.356 OA
HETATM   49  H   UNL     1     115.587 148.618 163.986  1.00  0.00     0.218 HD
ENDBRANCH  43  48
BRANCH  44  50
HETATM   50  O   UNL     1     114.740 148.142 162.078  1.00  0.00    -0.358 OA
HETATM   51  H   UNL     1     114.495 147.666 161.264  1.00  0.00     0.217 HD
ENDBRANCH  44  50
ENDBRANCH  38  40
ENDBRANCH  37  38
ENDBRANCH   6  37
ENDBRANCH   2   4
BRANCH   2  52
HETATM   52  C   UNL     1     106.307 145.472 161.044  1.00  0.00     0.216 C 
BRANCH  52  53
HETATM   53  O   UNL     1     106.282 146.069 159.750  1.00  0.00    -0.315 OA
BRANCH  53  54
HETATM   54  C   UNL     1     105.051 146.198 159.236  1.00  0.00     0.293 C 
HETATM   55  O   UNL     1     104.080 145.518 159.505  1.00  0.00    -0.259 OA
BRANCH  54  56
HETATM   56  C   UNL     1     105.127 147.268 158.227  1.00  0.00     0.045 C 
HETATM   57  C   UNL     1     104.311 148.414 158.294  1.00  0.00     0.057 C 
HETATM   58  C   UNL     1     104.475 149.429 157.368  1.00  0.00     0.102 C 
HETATM   59  C   UNL     1     105.535 149.382 156.479  1.00  0.00     0.133 C 
HETATM   60  C   UNL     1     106.410 148.293 156.518  1.00  0.00     0.116 C 
HETATM   61  C   UNL     1     106.132 147.163 157.277  1.00  0.00     0.058 C 
BRANCH  58  62
HETATM   62  O   UNL     1     103.656 150.520 157.401  1.00  0.00    -0.358 OA
HETATM   63  H   UNL     1     103.360 150.571 158.334  1.00  0.00     0.217 HD
ENDBRANCH  58  62
BRANCH  59  64
HETATM   64  O   UNL     1     105.733 150.469 155.677  1.00  0.00    -0.356 OA
HETATM   65  H   UNL     1     106.506 150.957 156.022  1.00  0.00     0.218 HD
ENDBRANCH  59  64
BRANCH  60  66
HETATM   66  O   UNL     1     107.706 148.408 156.016  1.00  0.00    -0.272 OA
BRANCH  66  67
HETATM   67  C   UNL     1     108.429 149.079 156.995  1.00  0.00     0.298 C 
HETATM   68  O   UNL     1     108.212 150.240 157.305  1.00  0.00    -0.259 OA
BRANCH  67  69
HETATM   69  C   UNL     1     109.518 148.267 157.610  1.00  0.00     0.045 A 
HETATM   70  C   UNL     1     110.809 148.327 157.062  1.00  0.00     0.057 A 
HETATM   71  C   UNL     1     111.841 147.620 157.669  1.00  0.00     0.102 A 
HETATM   72  C   UNL     1     111.590 146.826 158.779  1.00  0.00     0.132 A 
HETATM   73  C   UNL     1     110.299 146.746 159.299  1.00  0.00     0.102 A 
HETATM   74  C   UNL     1     109.255 147.481 158.739  1.00  0.00     0.057 A 
BRANCH  71  75
HETATM   75  O   UNL     1     113.084 147.733 157.130  1.00  0.00    -0.358 OA
HETATM   76  H   UNL     1     113.389 146.852 156.825  1.00  0.00     0.217 HD
ENDBRANCH  71  75
BRANCH  72  77
HETATM   77  O   UNL     1     112.605 146.114 159.351  1.00  0.00    -0.356 OA
HETATM   78  H   UNL     1     112.473 146.209 160.317  1.00  0.00     0.218 HD
ENDBRANCH  72  77
BRANCH  73  79
HETATM   79  O   UNL     1     110.102 145.914 160.367  1.00  0.00    -0.358 OA
HETATM   80  H   UNL     1     109.854 145.033 160.029  1.00  0.00     0.217 HD
ENDBRANCH  73  79
ENDBRANCH  67  69
ENDBRANCH  66  67
ENDBRANCH  60  66
ENDBRANCH  54  56
ENDBRANCH  53  54
ENDBRANCH  52  53
ENDBRANCH   2  52
BRANCH   3  81
HETATM   81  O   UNL     1     103.861 146.805 162.043  1.00  0.00    -0.285 OA
BRANCH  81  82
HETATM   82  C   UNL     1     102.622 146.948 162.585  1.00  0.00     0.295 C 
HETATM   83  O   UNL     1     102.192 148.053 162.886  1.00  0.00    -0.259 OA
BRANCH  82  84
HETATM   84  C   UNL     1     101.752 145.743 162.661  1.00  0.00     0.045 A 
HETATM   85  C   UNL     1     101.493 144.940 161.542  1.00  0.00     0.057 A 
HETATM   86  C   UNL     1     100.588 143.886 161.657  1.00  0.00     0.102 A 
HETATM   87  C   UNL     1      99.927 143.641 162.857  1.00  0.00     0.132 A 
HETATM   88  C   UNL     1     100.167 144.445 163.961  1.00  0.00     0.102 A 
HETATM   89  C   UNL     1     101.073 145.497 163.870  1.00  0.00     0.057 A 
BRANCH  86  90
HETATM   90  O   UNL     1     100.321 143.090 160.578  1.00  0.00    -0.358 OA
HETATM   91  H   UNL     1     100.182 143.728 159.846  1.00  0.00     0.217 HD
ENDBRANCH  86  90
BRANCH  87  92
HETATM   92  O   UNL     1      99.025 142.612 162.917  1.00  0.00    -0.356 OA
HETATM   93  H   UNL     1      98.339 142.929 163.543  1.00  0.00     0.218 HD
ENDBRANCH  87  92
BRANCH  88  94
HETATM   94  O   UNL     1      99.474 144.175 165.108  1.00  0.00    -0.358 OA
HETATM   95  H   UNL     1      98.525 144.139 164.885  1.00  0.00     0.217 HD
ENDBRANCH  88  94
ENDBRANCH  82  84
ENDBRANCH  81  82
ENDBRANCH   3  81
TORSDOF 38
ENDMDL
MODEL 2
REMARK VINA RESULT:   -11.222      1.355      4.224
REMARK INTER + INTRA:         -27.584
REMARK INTER:                 -28.276
REMARK INTRA:                   0.692
REMARK UNBOUND:                 1.350
REMARK WARNING: 32 MAX_TORS EXCEEDED!!!
REMARK  38 active torsions:
REMARK  status: ('A' for Active; 'I' for Inactive)
REMARK    1  A    between atoms: O_2  and  C_27 
REMARK    2  A    between atoms: O_2  and  C_33 
REMARK    3  A    between atoms: O_3  and  C_28 
REMARK    4  A    between atoms: O_3  and  C_34 
REMARK    5  A    between atoms: O_4  and  C_29 
REMARK    6  A    between atoms: O_4  and  C_35 
REMARK    7  A    between atoms: O_5  and  C_31 
REMARK    8  A    between atoms: O_5  and  C_36 
REMARK    9  A    between atoms: O_6  and  C_32 
REMARK   10  A    between atoms: O_6  and  C_39 
REMARK   11  A    between atoms: O_12  and  C_51 
REMARK   12  A    between atoms: O_13  and  C_52 
REMARK   13  A    between atoms: O_14  and  C_53 
REMARK   14  A    between atoms: O_15  and  C_54 
REMARK   15  A    between atoms: O_16  and  C_55 
REMARK   16  A    between atoms: O_17  and  C_56 
REMARK   17  A    between atoms: O_18  and  C_59 
REMARK   18  A    between atoms: O_19  and  C_60 
REMARK   19  A    between atoms: O_20  and  C_61 
REMARK   20  A    between atoms: O_21  and  C_62 
REMARK   21  A    between atoms: O_22  and  C_63 
REMARK   22  A    between atoms: O_23  and  C_64 
REMARK   23  A    between atoms: O_24  and  C_65 
REMARK   24  A    between atoms: O_24  and  C_86 
REMARK   25  A    between atoms: O_25  and  C_66 
REMARK   26  A    between atoms: O_26  and  C_67 
REMARK   27  A    between atoms: C_28  and  C_30 
REMARK   28  A    between atoms: C_29  and  C_31 
REMARK   29  A    between atoms: C_30  and  C_32 
REMARK   30  A    between atoms: C_33  and  C_37 
REMARK   31  A    between atoms: C_34  and  C_38 
REMARK   32  A    between atoms: C_35  and  C_40 
REMARK   33  A    between atoms: C_36  and  C_41 
REMARK   34  A    between atoms: C_39  and  C_42 
REMARK   35  A    between atoms: O_83  and  C_90 
REMARK   36  A    between atoms: O_84  and  C_91 
REMARK   37  A    between atoms: O_85  and  C_92 
REMARK   38  A    between atoms: C_86  and  C_87 
ROOT
HETATM    1  O   UNL     1     105.979 148.141 161.797  1.00  0.00    -0.348 OA
HETATM    2  C   UNL     1     106.080 146.791 161.944  1.00  0.00     0.201 A 
HETATM    3  C   UNL     1     104.999 147.520 162.530  1.00  0.00     0.282 A 
ENDROOT
BRANCH   2   4
HETATM    4  C   UNL     1     106.257 146.464 162.679  1.00  0.00     0.199 A 
HETATM    5  C   UNL     1     107.499 145.486 162.641  1.00  0.00     0.198 A 
HETATM    6  C   UNL     1     107.597 146.951 162.571  1.00  0.00     0.215 A 
BRANCH   4   7
HETATM    7  O   UNL     1     105.336 145.021 162.336  1.00  0.00    -0.306 OA
BRANCH   7   8
HETATM    8  C   UNL     1     104.683 143.934 162.707  1.00  0.00     0.294 C 
HETATM    9  O   UNL     1     104.690 142.901 162.045  1.00  0.00    -0.259 OA
BRANCH   8  10
HETATM   10  C   UNL     1     103.974 143.901 163.974  1.00  0.00     0.045 A 
HETATM   11  C   UNL     1     103.569 142.655 164.467  1.00  0.00     0.057 A 
HETATM   12  C   UNL     1     103.337 142.526 165.829  1.00  0.00     0.102 A 
HETATM   13  C   UNL     1     103.485 143.626 166.672  1.00  0.00     0.132 A 
HETATM   14  C   UNL     1     103.854 144.866 166.162  1.00  0.00     0.102 A 
HETATM   15  C   UNL     1     104.128 145.008 164.813  1.00  0.00     0.057 A 
BRANCH  12  16
HETATM   16  O   UNL     1     103.039 141.316 166.392  1.00  0.00    -0.358 OA
HETATM   17  H   UNL     1     102.695 141.483 167.289  1.00  0.00     0.217 HD
ENDBRANCH  12  16
BRANCH  13  18
HETATM   18  O   UNL     1     103.341 143.486 168.026  1.00  0.00    -0.356 OA
HETATM   19  H   UNL     1     104.183 143.078 168.314  1.00  0.00     0.218 HD
ENDBRANCH  13  18
BRANCH  14  20
HETATM   20  O   UNL     1     104.029 145.931 166.998  1.00  0.00    -0.358 OA
HETATM   21  H   UNL     1     104.212 146.679 166.390  1.00  0.00     0.217 HD
ENDBRANCH  14  20
ENDBRANCH   8  10
ENDBRANCH   7   8
ENDBRANCH   4   7
BRANCH   5  22
HETATM   22  O   UNL     1     107.759 144.931 164.056  1.00  0.00    -0.306 OA
BRANCH  22  23
HETATM   23  C   UNL     1     107.851 143.576 164.312  1.00  0.00     0.294 C 
HETATM   24  O   UNL     1     107.731 142.649 163.519  1.00  0.00    -0.259 OA
BRANCH  23  25
HETATM   25  C   UNL     1     108.096 143.248 165.712  1.00  0.00     0.045 A 
HETATM   26  C   UNL     1     107.000 143.051 166.570  1.00  0.00     0.057 A 
HETATM   27  C   UNL     1     107.236 142.762 167.906  1.00  0.00     0.102 A 
HETATM   28  C   UNL     1     108.541 142.703 168.379  1.00  0.00     0.132 A 
HETATM   29  C   UNL     1     109.607 143.013 167.544  1.00  0.00     0.102 A 
HETATM   30  C   UNL     1     109.396 143.304 166.208  1.00  0.00     0.057 A 
BRANCH  27  31
HETATM   31  O   UNL     1     106.218 142.535 168.786  1.00  0.00    -0.358 OA
HETATM   32  H   UNL     1     106.603 142.356 169.665  1.00  0.00     0.217 HD
ENDBRANCH  27  31
BRANCH  28  33
HETATM   33  O   UNL     1     108.795 142.347 169.674  1.00  0.00    -0.356 OA
HETATM   34  H   UNL     1     108.122 141.663 169.869  1.00  0.00     0.218 HD
ENDBRANCH  28  33
BRANCH  29  35
HETATM   35  O   UNL     1     110.880 143.034 168.029  1.00  0.00    -0.358 OA
HETATM   36  H   UNL     1     110.956 142.224 168.569  1.00  0.00     0.217 HD
ENDBRANCH  29  35
ENDBRANCH  23  25
ENDBRANCH  22  23
ENDBRANCH   5  22
BRANCH   6  37
HETATM   37  O   UNL     1     109.114 147.471 162.935  1.00  0.00    -0.304 OA
BRANCH  37  38
HETATM   38  C   UNL     1     109.809 148.436 162.274  1.00  0.00     0.294 C 
HETATM   39  O   UNL     1     109.437 149.105 161.333  1.00  0.00    -0.259 OA
BRANCH  38  40
HETATM   40  C   UNL     1     111.142 148.506 162.877  1.00  0.00     0.045 A 
HETATM   41  C   UNL     1     112.226 148.177 162.060  1.00  0.00     0.057 A 
HETATM   42  C   UNL     1     113.504 148.257 162.572  1.00  0.00     0.102 A 
HETATM   43  C   UNL     1     113.708 148.677 163.878  1.00  0.00     0.132 A 
HETATM   44  C   UNL     1     112.626 149.034 164.681  1.00  0.00     0.102 A 
HETATM   45  C   UNL     1     111.327 148.949 164.190  1.00  0.00     0.057 A 
BRANCH  42  46
HETATM   46  O   UNL     1     114.551 147.937 161.765  1.00  0.00    -0.358 OA
HETATM   47  H   UNL     1     114.841 148.783 161.370  1.00  0.00     0.217 HD
ENDBRANCH  42  46
BRANCH  43  48
HETATM   48  O   UNL     1     114.987 148.762 164.352  1.00  0.00    -0.356 OA
HETATM   49  H   UNL     1     114.880 148.843 165.322  1.00  0.00     0.218 HD
ENDBRANCH  43  48
BRANCH  44  50
HETATM   50  O   UNL     1     112.896 149.486 165.942  1.00  0.00    -0.358 OA
HETATM   51  H   UNL     1     112.835 150.459 165.936  1.00  0.00     0.217 HD
ENDBRANCH  44  50
ENDBRANCH  38  40
ENDBRANCH  37  38
ENDBRANCH   6  37
ENDBRANCH   2   4
BRANCH   2  52
HETATM   52  C   UNL     1     106.172 145.522 160.883  1.00  0.00     0.216 C 
BRANCH  52  53
HETATM   53  O   UNL     1     106.036 146.093 159.585  1.00  0.00    -0.315 OA
BRANCH  53  54
HETATM   54  C   UNL     1     107.189 146.538 159.065  1.00  0.00     0.293 C 
HETATM   55  O   UNL     1     108.272 145.991 159.132  1.00  0.00    -0.259 OA
BRANCH  54  56
HETATM   56  C   UNL     1     106.900 147.854 158.470  1.00  0.00     0.045 C 
HETATM   57  C   UNL     1     107.925 148.750 158.109  1.00  0.00     0.057 C 
HETATM   58  C   UNL     1     107.608 149.940 157.480  1.00  0.00     0.102 C 
HETATM   59  C   UNL     1     106.306 150.176 157.074  1.00  0.00     0.133 C 
HETATM   60  C   UNL     1     105.327 149.212 157.330  1.00  0.00     0.116 C 
HETATM   61  C   UNL     1     105.576 148.123 158.156  1.00  0.00     0.058 C 
BRANCH  58  62
HETATM   62  O   UNL     1     108.595 150.831 157.169  1.00  0.00    -0.358 OA
HETATM   63  H   UNL     1     108.121 151.577 156.746  1.00  0.00     0.217 HD
ENDBRANCH  58  62
BRANCH  59  64
HETATM   64  O   UNL     1     106.069 151.302 156.339  1.00  0.00    -0.356 OA
HETATM   65  H   UNL     1     105.221 151.180 155.871  1.00  0.00     0.218 HD
ENDBRANCH  59  64
BRANCH  60  66
HETATM   66  O   UNL     1     104.164 149.163 156.562  1.00  0.00    -0.272 OA
BRANCH  66  67
HETATM   67  C   UNL     1     103.174 149.751 157.340  1.00  0.00     0.298 C 
HETATM   68  O   UNL     1     103.162 150.941 157.612  1.00  0.00    -0.259 OA
BRANCH  67  69
HETATM   69  C   UNL     1     102.147 148.795 157.842  1.00  0.00     0.045 A 
HETATM   70  C   UNL     1     101.403 149.128 158.985  1.00  0.00     0.057 A 
HETATM   71  C   UNL     1     100.402 148.268 159.422  1.00  0.00     0.102 A 
HETATM   72  C   UNL     1     100.170 147.069 158.763  1.00  0.00     0.132 A 
HETATM   73  C   UNL     1     100.934 146.729 157.648  1.00  0.00     0.102 A 
HETATM   74  C   UNL     1     101.913 147.594 157.160  1.00  0.00     0.057 A 
BRANCH  71  75
HETATM   75  O   UNL     1      99.679 148.644 160.511  1.00  0.00    -0.358 OA
HETATM   76  H   UNL     1      99.012 147.954 160.714  1.00  0.00     0.217 HD
ENDBRANCH  71  75
BRANCH  72  77
HETATM   77  O   UNL     1      99.202 146.218 159.217  1.00  0.00    -0.356 OA
HETATM   78  H   UNL     1      98.431 146.788 159.416  1.00  0.00     0.218 HD
ENDBRANCH  72  77
BRANCH  73  79
HETATM   79  O   UNL     1     100.691 145.516 157.065  1.00  0.00    -0.358 OA
HETATM   80  H   UNL     1     100.151 144.982 157.678  1.00  0.00     0.217 HD
ENDBRANCH  73  79
ENDBRANCH  67  69
ENDBRANCH  66  67
ENDBRANCH  60  66
ENDBRANCH  54  56
ENDBRANCH  53  54
ENDBRANCH  52  53
ENDBRANCH   2  52
BRANCH   3  81
HETATM   81  O   UNL     1     103.741 146.926 161.818  1.00  0.00    -0.285 OA
BRANCH  81  82
HETATM   82  C   UNL     1     102.489 147.170 162.290  1.00  0.00     0.295 C 
HETATM   83  O   UNL     1     102.114 148.312 162.517  1.00  0.00    -0.259 OA
BRANCH  82  84
HETATM   84  C   UNL     1     101.544 146.023 162.380  1.00  0.00     0.045 A 
HETATM   85  C   UNL     1     100.809 145.754 163.542  1.00  0.00     0.057 A 
HETATM   86  C   UNL     1     100.021 144.606 163.596  1.00  0.00     0.102 A 
HETATM   87  C   UNL     1      99.975 143.720 162.524  1.00  0.00     0.132 A 
HETATM   88  C   UNL     1     100.714 143.975 161.379  1.00  0.00     0.102 A 
HETATM   89  C   UNL     1     101.502 145.119 161.301  1.00  0.00     0.057 A 
BRANCH  86  90
HETATM   90  O   UNL     1      99.296 144.324 164.721  1.00  0.00    -0.358 OA
HETATM   91  H   UNL     1      98.398 144.129 164.377  1.00  0.00     0.217 HD
ENDBRANCH  86  90
BRANCH  87  92
HETATM   92  O   UNL     1      99.208 142.590 162.631  1.00  0.00    -0.356 OA
HETATM   93  H   UNL     1      99.426 142.074 161.826  1.00  0.00     0.218 HD
ENDBRANCH  87  92
BRANCH  88  94
HETATM   94  O   UNL     1     100.652 143.060 160.364  1.00  0.00    -0.358 OA
HETATM   95  H   UNL     1     101.344 142.391 160.519  1.00  0.00     0.217 HD
ENDBRANCH  88  94
ENDBRANCH  82  84
ENDBRANCH  81  82
ENDBRANCH   3  81
TORSDOF 38
ENDMDL
MODEL 3
REMARK VINA RESULT:   -11.132     19.361     25.382
REMARK INTER + INTRA:         -27.352
REMARK INTER:                 -28.758
REMARK INTRA:                   1.407
REMARK UNBOUND:                 1.350
REMARK WARNING: 32 MAX_TORS EXCEEDED!!!
REMARK  38 active torsions:
REMARK  status: ('A' for Active; 'I' for Inactive)
REMARK    1  A    between atoms: O_2  and  C_27 
REMARK    2  A    between atoms: O_2  and  C_33 
REMARK    3  A    between atoms: O_3  and  C_28 
REMARK    4  A    between atoms: O_3  and  C_34 
REMARK    5  A    between atoms: O_4  and  C_29 
REMARK    6  A    between atoms: O_4  and  C_35 
REMARK    7  A    between atoms: O_5  and  C_31 
REMARK    8  A    between atoms: O_5  and  C_36 
REMARK    9  A    between atoms: O_6  and  C_32 
REMARK   10  A    between atoms: O_6  and  C_39 
REMARK   11  A    between atoms: O_12  and  C_51 
REMARK   12  A    between atoms: O_13  and  C_52 
REMARK   13  A    between atoms: O_14  and  C_53 
REMARK   14  A    between atoms: O_15  and  C_54 
REMARK   15  A    between atoms: O_16  and  C_55 
REMARK   16  A    between atoms: O_17  and  C_56 
REMARK   17  A    between atoms: O_18  and  C_59 
REMARK   18  A    between atoms: O_19  and  C_60 
REMARK   19  A    between atoms: O_20  and  C_61 
REMARK   20  A    between atoms: O_21  and  C_62 
REMARK   21  A    between atoms: O_22  and  C_63 
REMARK   22  A    between atoms: O_23  and  C_64 
REMARK   23  A    between atoms: O_24  and  C_65 
REMARK   24  A    between atoms: O_24  and  C_86 
REMARK   25  A    between atoms: O_25  and  C_66 
REMARK   26  A    between atoms: O_26  and  C_67 
REMARK   27  A    between atoms: C_28  and  C_30 
REMARK   28  A    between atoms: C_29  and  C_31 
REMARK   29  A    between atoms: C_30  and  C_32 
REMARK   30  A    between atoms: C_33  and  C_37 
REMARK   31  A    between atoms: C_34  and  C_38 
REMARK   32  A    between atoms: C_35  and  C_40 
REMARK   33  A    between atoms: C_36  and  C_41 
REMARK   34  A    between atoms: C_39  and  C_42 
REMARK   35  A    between atoms: O_83  and  C_90 
REMARK   36  A    between atoms: O_84  and  C_91 
REMARK   37  A    between atoms: O_85  and  C_92 
REMARK   38  A    between atoms: C_86  and  C_87 
ROOT
HETATM    1  O   UNL     1     122.485 148.496 145.424  1.00  0.00    -0.348 OA
HETATM    2  C   UNL     1     121.870 149.382 146.254  1.00  0.00     0.201 A 
HETATM    3  C   UNL     1     122.409 148.155 146.751  1.00  0.00     0.282 A 
ENDROOT
BRANCH   2   4
HETATM    4  C   UNL     1     121.142 149.200 146.593  1.00  0.00     0.199 A 
HETATM    5  C   UNL     1     120.072 150.352 146.429  1.00  0.00     0.198 A 
HETATM    6  C   UNL     1     120.497 149.457 145.344  1.00  0.00     0.215 A 
BRANCH   4   7
HETATM    7  O   UNL     1     121.546 150.028 148.075  1.00  0.00    -0.306 OA
BRANCH   7   8
HETATM    8  C   UNL     1     121.312 150.355 149.335  1.00  0.00     0.294 C 
HETATM    9  O   UNL     1     120.178 150.472 149.787  1.00  0.00    -0.259 OA
BRANCH   8  10
HETATM   10  C   UNL     1     122.415 150.524 150.264  1.00  0.00     0.045 A 
HETATM   11  C   UNL     1     122.803 149.418 151.030  1.00  0.00     0.057 A 
HETATM   12  C   UNL     1     124.091 149.388 151.546  1.00  0.00     0.102 A 
HETATM   13  C   UNL     1     124.961 150.452 151.317  1.00  0.00     0.132 A 
HETATM   14  C   UNL     1     124.550 151.559 150.583  1.00  0.00     0.102 A 
HETATM   15  C   UNL     1     123.283 151.593 150.027  1.00  0.00     0.057 A 
BRANCH  12  16
HETATM   16  O   UNL     1     124.567 148.296 152.215  1.00  0.00    -0.358 OA
HETATM   17  H   UNL     1     123.919 148.066 152.907  1.00  0.00     0.217 HD
ENDBRANCH  12  16
BRANCH  13  18
HETATM   18  O   UNL     1     126.258 150.392 151.749  1.00  0.00    -0.356 OA
HETATM   19  H   UNL     1     126.181 150.301 152.721  1.00  0.00     0.218 HD
ENDBRANCH  13  18
BRANCH  14  20
HETATM   20  O   UNL     1     125.419 152.583 150.335  1.00  0.00    -0.358 OA
HETATM   21  H   UNL     1     126.145 152.159 149.832  1.00  0.00     0.217 HD
ENDBRANCH  14  20
ENDBRANCH   8  10
ENDBRANCH   7   8
ENDBRANCH   4   7
BRANCH   5  22
HETATM   22  O   UNL     1     118.746 149.919 147.084  1.00  0.00    -0.306 OA
BRANCH  22  23
HETATM   23  C   UNL     1     117.545 150.543 146.802  1.00  0.00     0.294 C 
HETATM   24  O   UNL     1     117.189 151.671 147.117  1.00  0.00    -0.259 OA
BRANCH  23  25
HETATM   25  C   UNL     1     116.602 149.713 146.058  1.00  0.00     0.045 A 
HETATM   26  C   UNL     1     116.557 148.332 146.316  1.00  0.00     0.057 A 
HETATM   27  C   UNL     1     115.676 147.542 145.592  1.00  0.00     0.102 A 
HETATM   28  C   UNL     1     114.881 148.118 144.609  1.00  0.00     0.132 A 
HETATM   29  C   UNL     1     115.021 149.463 144.288  1.00  0.00     0.102 A 
HETATM   30  C   UNL     1     115.894 150.269 144.997  1.00  0.00     0.057 A 
BRANCH  27  31
HETATM   31  O   UNL     1     115.563 146.199 145.811  1.00  0.00    -0.358 OA
HETATM   32  H   UNL     1     115.376 146.054 146.758  1.00  0.00     0.217 HD
ENDBRANCH  27  31
BRANCH  28  33
HETATM   33  O   UNL     1     113.955 147.370 143.938  1.00  0.00    -0.356 OA
HETATM   34  H   UNL     1     113.795 147.873 143.113  1.00  0.00     0.218 HD
ENDBRANCH  28  33
BRANCH  29  35
HETATM   35  O   UNL     1     114.301 150.008 143.270  1.00  0.00    -0.358 OA
HETATM   36  H   UNL     1     114.059 150.901 143.584  1.00  0.00     0.217 HD
ENDBRANCH  29  35
ENDBRANCH  23  25
ENDBRANCH  22  23
ENDBRANCH   5  22
BRANCH   6  37
HETATM   37  O   UNL     1     119.416 149.459 144.104  1.00  0.00    -0.304 OA
BRANCH  37  38
HETATM   38  C   UNL     1     119.545 150.137 142.931  1.00  0.00     0.294 C 
HETATM   39  O   UNL     1     120.333 149.924 142.034  1.00  0.00    -0.259 OA
BRANCH  38  40
HETATM   40  C   UNL     1     118.573 151.233 142.951  1.00  0.00     0.045 A 
HETATM   41  C   UNL     1     117.632 151.265 141.920  1.00  0.00     0.057 A 
HETATM   42  C   UNL     1     116.677 152.260 141.911  1.00  0.00     0.102 A 
HETATM   43  C   UNL     1     116.643 153.205 142.925  1.00  0.00     0.132 A 
HETATM   44  C   UNL     1     117.566 153.152 143.969  1.00  0.00     0.102 A 
HETATM   45  C   UNL     1     118.546 152.166 143.993  1.00  0.00     0.057 A 
BRANCH  42  46
HETATM   46  O   UNL     1     115.763 152.277 140.903  1.00  0.00    -0.358 OA
HETATM   47  H   UNL     1     115.282 151.430 140.976  1.00  0.00     0.217 HD
ENDBRANCH  42  46
BRANCH  43  48
HETATM   48  O   UNL     1     115.674 154.169 142.898  1.00  0.00    -0.356 OA
HETATM   49  H   UNL     1     116.163 155.005 143.042  1.00  0.00     0.218 HD
ENDBRANCH  43  48
BRANCH  44  50
HETATM   50  O   UNL     1     117.449 154.083 144.963  1.00  0.00    -0.358 OA
HETATM   51  H   UNL     1     116.502 154.203 145.157  1.00  0.00     0.217 HD
ENDBRANCH  44  50
ENDBRANCH  38  40
ENDBRANCH  37  38
ENDBRANCH   6  37
ENDBRANCH   2   4
BRANCH   2  52
HETATM   52  C   UNL     1     122.116 150.979 146.619  1.00  0.00     0.216 C 
BRANCH  52  53
HETATM   53  O   UNL     1     123.483 151.239 146.309  1.00  0.00    -0.315 OA
BRANCH  53  54
HETATM   54  C   UNL     1     123.655 152.061 145.264  1.00  0.00     0.293 C 
HETATM   55  O   UNL     1     122.960 152.120 144.268  1.00  0.00    -0.259 OA
BRANCH  54  56
HETATM   56  C   UNL     1     124.893 152.815 145.523  1.00  0.00     0.045 C 
HETATM   57  C   UNL     1     125.260 153.221 146.820  1.00  0.00     0.057 C 
HETATM   58  C   UNL     1     126.471 153.857 147.025  1.00  0.00     0.102 C 
HETATM   59  C   UNL     1     127.378 153.956 145.984  1.00  0.00     0.133 C 
HETATM   60  C   UNL     1     127.042 153.430 144.735  1.00  0.00     0.116 C 
HETATM   61  C   UNL     1     125.753 152.997 144.449  1.00  0.00     0.058 C 
BRANCH  58  62
HETATM   62  O   UNL     1     126.810 154.293 148.273  1.00  0.00    -0.358 OA
HETATM   63  H   UNL     1     127.782 154.176 148.314  1.00  0.00     0.217 HD
ENDBRANCH  58  62
BRANCH  59  64
HETATM   64  O   UNL     1     128.610 154.471 146.270  1.00  0.00    -0.356 OA
HETATM   65  H   UNL     1     128.990 153.948 147.002  1.00  0.00     0.218 HD
ENDBRANCH  59  64
BRANCH  60  66
HETATM   66  O   UNL     1     128.038 153.074 143.826  1.00  0.00    -0.272 OA
BRANCH  66  67
HETATM   67  C   UNL     1     128.651 154.264 143.454  1.00  0.00     0.298 C 
HETATM   68  O   UNL     1     128.034 155.305 143.286  1.00  0.00    -0.259 OA
BRANCH  67  69
HETATM   69  C   UNL     1     130.122 154.152 143.245  1.00  0.00     0.045 A 
HETATM   70  C   UNL     1     130.821 153.097 143.852  1.00  0.00     0.057 A 
HETATM   71  C   UNL     1     132.183 152.952 143.611  1.00  0.00     0.102 A 
HETATM   72  C   UNL     1     132.855 153.867 142.814  1.00  0.00     0.132 A 
HETATM   73  C   UNL     1     132.161 154.931 142.240  1.00  0.00     0.102 A 
HETATM   74  C   UNL     1     130.787 155.074 142.427  1.00  0.00     0.057 A 
BRANCH  71  75
HETATM   75  O   UNL     1     132.816 151.896 144.188  1.00  0.00    -0.358 OA
HETATM   76  H   UNL     1     133.440 152.223 144.870  1.00  0.00     0.217 HD
ENDBRANCH  71  75
BRANCH  72  77
HETATM   77  O   UNL     1     134.198 153.732 142.605  1.00  0.00    -0.356 OA
HETATM   78  H   UNL     1     134.330 152.788 142.381  1.00  0.00     0.218 HD
ENDBRANCH  72  77
BRANCH  73  79
HETATM   79  O   UNL     1     132.884 155.827 141.500  1.00  0.00    -0.358 OA
HETATM   80  H   UNL     1     133.776 155.898 141.888  1.00  0.00     0.217 HD
ENDBRANCH  73  79
ENDBRANCH  67  69
ENDBRANCH  66  67
ENDBRANCH  60  66
ENDBRANCH  54  56
ENDBRANCH  53  54
ENDBRANCH  52  53
ENDBRANCH   2  52
BRANCH   3  81
HETATM   81  O   UNL     1     123.513 148.628 147.750  1.00  0.00    -0.285 OA
BRANCH  81  82
HETATM   82  C   UNL     1     124.770 148.110 147.701  1.00  0.00     0.295 C 
HETATM   83  O   UNL     1     124.965 146.917 147.889  1.00  0.00    -0.259 OA
BRANCH  82  84
HETATM   84  C   UNL     1     125.876 149.007 147.268  1.00  0.00     0.045 A 
HETATM   85  C   UNL     1     126.285 149.092 145.931  1.00  0.00     0.057 A 
HETATM   86  C   UNL     1     127.394 149.872 145.608  1.00  0.00     0.102 A 
HETATM   87  C   UNL     1     128.107 150.542 146.597  1.00  0.00     0.132 A 
HETATM   88  C   UNL     1     127.716 150.446 147.924  1.00  0.00     0.102 A 
HETATM   89  C   UNL     1     126.607 149.679 148.267  1.00  0.00     0.057 A 
BRANCH  86  90
HETATM   90  O   UNL     1     127.809 149.969 144.309  1.00  0.00    -0.358 OA
HETATM   91  H   UNL     1     128.646 149.456 144.292  1.00  0.00     0.217 HD
ENDBRANCH  86  90
BRANCH  87  92
HETATM   92  O   UNL     1     129.207 151.275 146.238  1.00  0.00    -0.356 OA
HETATM   93  H   UNL     1     128.866 151.919 145.582  1.00  0.00     0.218 HD
ENDBRANCH  87  92
BRANCH  88  94
HETATM   94  O   UNL     1     128.466 151.105 148.858  1.00  0.00    -0.358 OA
HETATM   95  H   UNL     1     128.083 151.994 148.979  1.00  0.00     0.217 HD
ENDBRANCH  88  94
ENDBRANCH  82  84
ENDBRANCH  81  82
ENDBRANCH   3  81
TORSDOF 38
ENDMDL
MODEL 4
REMARK VINA RESULT:   -11.095      2.214      3.861
REMARK INTER + INTRA:         -27.256
REMARK INTER:                 -28.303
REMARK INTRA:                   1.046
REMARK UNBOUND:                 1.350
REMARK WARNING: 32 MAX_TORS EXCEEDED!!!
REMARK  38 active torsions:
REMARK  status: ('A' for Active; 'I' for Inactive)
REMARK    1  A    between atoms: O_2  and  C_27 
REMARK    2  A    between atoms: O_2  and  C_33 
REMARK    3  A    between atoms: O_3  and  C_28 
REMARK    4  A    between atoms: O_3  and  C_34 
REMARK    5  A    between atoms: O_4  and  C_29 
REMARK    6  A    between atoms: O_4  and  C_35 
REMARK    7  A    between atoms: O_5  and  C_31 
REMARK    8  A    between atoms: O_5  and  C_36 
REMARK    9  A    between atoms: O_6  and  C_32 
REMARK   10  A    between atoms: O_6  and  C_39 
REMARK   11  A    between atoms: O_12  and  C_51 
REMARK   12  A    between atoms: O_13  and  C_52 
REMARK   13  A    between atoms: O_14  and  C_53 
REMARK   14  A    between atoms: O_15  and  C_54 
REMARK   15  A    between atoms: O_16  and  C_55 
REMARK   16  A    between atoms: O_17  and  C_56 
REMARK   17  A    between atoms: O_18  and  C_59 
REMARK   18  A    between atoms: O_19  and  C_60 
REMARK   19  A    between atoms: O_20  and  C_61 
REMARK   20  A    between atoms: O_21  and  C_62 
REMARK   21  A    between atoms: O_22  and  C_63 
REMARK   22  A    between atoms: O_23  and  C_64 
REMARK   23  A    between atoms: O_24  and  C_65 
REMARK   24  A    between atoms: O_24  and  C_86 
REMARK   25  A    between atoms: O_25  and  C_66 
REMARK   26  A    between atoms: O_26  and  C_67 
REMARK   27  A    between atoms: C_28  and  C_30 
REMARK   28  A    between atoms: C_29  and  C_31 
REMARK   29  A    between atoms: C_30  and  C_32 
REMARK   30  A    between atoms: C_33  and  C_37 
REMARK   31  A    between atoms: C_34  and  C_38 
REMARK   32  A    between atoms: C_35  and  C_40 
REMARK   33  A    between atoms: C_36  and  C_41 
REMARK   34  A    between atoms: C_39  and  C_42 
REMARK   35  A    between atoms: O_83  and  C_90 
REMARK   36  A    between atoms: O_84  and  C_91 
REMARK   37  A    between atoms: O_85  and  C_92 
REMARK   38  A    between atoms: C_86  and  C_87 
ROOT
HETATM    1  O   UNL     1     106.272 147.957 161.671  1.00  0.00    -0.348 OA
HETATM    2  C   UNL     1     106.283 146.611 161.871  1.00  0.00     0.201 A 
HETATM    3  C   UNL     1     105.229 147.427 162.387  1.00  0.00     0.282 A 
ENDROOT
BRANCH   2   4
HETATM    4  C   UNL     1     106.413 146.303 162.624  1.00  0.00     0.199 A 
HETATM    5  C   UNL     1     107.567 145.223 162.664  1.00  0.00     0.198 A 
HETATM    6  C   UNL     1     107.791 146.670 162.536  1.00  0.00     0.215 A 
BRANCH   4   7
HETATM    7  O   UNL     1     105.381 144.929 162.315  1.00  0.00    -0.306 OA
BRANCH   7   8
HETATM    8  C   UNL     1     104.694 143.870 162.706  1.00  0.00     0.294 C 
HETATM    9  O   UNL     1     104.653 142.832 162.052  1.00  0.00    -0.259 OA
BRANCH   8  10
HETATM   10  C   UNL     1     104.005 143.874 163.984  1.00  0.00     0.045 A 
HETATM   11  C   UNL     1     103.608 142.643 164.519  1.00  0.00     0.057 A 
HETATM   12  C   UNL     1     103.397 142.552 165.887  1.00  0.00     0.102 A 
HETATM   13  C   UNL     1     103.558 143.675 166.696  1.00  0.00     0.132 A 
HETATM   14  C   UNL     1     103.920 144.900 166.145  1.00  0.00     0.102 A 
HETATM   15  C   UNL     1     104.173 145.004 164.789  1.00  0.00     0.057 A 
BRANCH  12  16
HETATM   16  O   UNL     1     103.107 141.359 166.488  1.00  0.00    -0.358 OA
HETATM   17  H   UNL     1     103.738 140.696 166.151  1.00  0.00     0.217 HD
ENDBRANCH  12  16
BRANCH  13  18
HETATM   18  O   UNL     1     103.435 143.574 168.055  1.00  0.00    -0.356 OA
HETATM   19  H   UNL     1     103.704 144.457 168.384  1.00  0.00     0.218 HD
ENDBRANCH  13  18
BRANCH  14  20
HETATM   20  O   UNL     1     104.108 145.988 166.947  1.00  0.00    -0.358 OA
HETATM   21  H   UNL     1     103.208 146.193 167.280  1.00  0.00     0.217 HD
ENDBRANCH  14  20
ENDBRANCH   8  10
ENDBRANCH   7   8
ENDBRANCH   4   7
BRANCH   5  22
HETATM   22  O   UNL     1     107.742 144.711 164.107  1.00  0.00    -0.306 OA
BRANCH  22  23
HETATM   23  C   UNL     1     107.809 143.364 164.410  1.00  0.00     0.294 C 
HETATM   24  O   UNL     1     107.644 142.413 163.656  1.00  0.00    -0.259 OA
BRANCH  23  25
HETATM   25  C   UNL     1     108.087 143.081 165.814  1.00  0.00     0.045 A 
HETATM   26  C   UNL     1     107.011 142.889 166.698  1.00  0.00     0.057 A 
HETATM   27  C   UNL     1     107.277 142.642 168.037  1.00  0.00     0.102 A 
HETATM   28  C   UNL     1     108.591 142.621 168.486  1.00  0.00     0.132 A 
HETATM   29  C   UNL     1     109.636 142.926 167.622  1.00  0.00     0.102 A 
HETATM   30  C   UNL     1     109.394 143.175 166.283  1.00  0.00     0.057 A 
BRANCH  27  31
HETATM   31  O   UNL     1     106.280 142.421 168.943  1.00  0.00    -0.358 OA
HETATM   32  H   UNL     1     106.670 142.013 169.739  1.00  0.00     0.217 HD
ENDBRANCH  27  31
BRANCH  28  33
HETATM   33  O   UNL     1     108.877 142.305 169.786  1.00  0.00    -0.356 OA
HETATM   34  H   UNL     1     108.414 141.454 169.930  1.00  0.00     0.218 HD
ENDBRANCH  28  33
BRANCH  29  35
HETATM   35  O   UNL     1     110.916 142.984 168.082  1.00  0.00    -0.358 OA
HETATM   36  H   UNL     1     111.402 143.499 167.408  1.00  0.00     0.217 HD
ENDBRANCH  29  35
ENDBRANCH  23  25
ENDBRANCH  22  23
ENDBRANCH   5  22
BRANCH   6  37
HETATM   37  O   UNL     1     109.338 147.076 162.922  1.00  0.00    -0.304 OA
BRANCH  37  38
HETATM   38  C   UNL     1     109.932 148.277 162.686  1.00  0.00     0.294 C 
HETATM   39  O   UNL     1     110.127 149.177 163.477  1.00  0.00    -0.259 OA
BRANCH  38  40
HETATM   40  C   UNL     1     110.268 148.327 161.261  1.00  0.00     0.045 A 
HETATM   41  C   UNL     1     111.190 147.388 160.794  1.00  0.00     0.057 A 
HETATM   42  C   UNL     1     111.517 147.374 159.454  1.00  0.00     0.102 A 
HETATM   43  C   UNL     1     110.920 148.270 158.581  1.00  0.00     0.132 A 
HETATM   44  C   UNL     1     109.976 149.186 159.045  1.00  0.00     0.102 A 
HETATM   45  C   UNL     1     109.641 149.227 160.394  1.00  0.00     0.057 A 
BRANCH  42  46
HETATM   46  O   UNL     1     112.414 146.452 159.011  1.00  0.00    -0.358 OA
HETATM   47  H   UNL     1     111.883 145.778 158.545  1.00  0.00     0.217 HD
ENDBRANCH  42  46
BRANCH  43  48
HETATM   48  O   UNL     1     111.251 148.221 157.255  1.00  0.00    -0.356 OA
HETATM   49  H   UNL     1     110.992 149.100 156.910  1.00  0.00     0.218 HD
ENDBRANCH  43  48
BRANCH  44  50
HETATM   50  O   UNL     1     109.389 150.009 158.126  1.00  0.00    -0.358 OA
HETATM   51  H   UNL     1     108.626 149.541 157.742  1.00  0.00     0.217 HD
ENDBRANCH  44  50
ENDBRANCH  38  40
ENDBRANCH  37  38
ENDBRANCH   6  37
ENDBRANCH   2   4
BRANCH   2  52
HETATM   52  C   UNL     1     106.334 145.298 160.863  1.00  0.00     0.216 C 
BRANCH  52  53
HETATM   53  O   UNL     1     106.178 145.817 159.545  1.00  0.00    -0.315 OA
BRANCH  53  54
HETATM   54  C   UNL     1     107.337 146.082 158.926  1.00  0.00     0.293 C 
HETATM   55  O   UNL     1     108.450 145.779 159.311  1.00  0.00    -0.259 OA
BRANCH  54  56
HETATM   56  C   UNL     1     107.003 146.881 157.735  1.00  0.00     0.045 C 
HETATM   57  C   UNL     1     105.767 147.543 157.605  1.00  0.00     0.057 C 
HETATM   58  C   UNL     1     105.529 148.347 156.504  1.00  0.00     0.102 C 
HETATM   59  C   UNL     1     106.557 148.616 155.617  1.00  0.00     0.133 C 
HETATM   60  C   UNL     1     107.815 148.048 155.838  1.00  0.00     0.116 C 
HETATM   61  C   UNL     1     108.011 147.064 156.799  1.00  0.00     0.058 C 
BRANCH  58  62
HETATM   62  O   UNL     1     104.316 148.953 156.352  1.00  0.00    -0.358 OA
HETATM   63  H   UNL     1     104.460 149.865 156.682  1.00  0.00     0.217 HD
ENDBRANCH  58  62
BRANCH  59  64
HETATM   64  O   UNL     1     106.311 149.520 154.624  1.00  0.00    -0.356 OA
HETATM   65  H   UNL     1     105.410 149.872 154.758  1.00  0.00     0.218 HD
ENDBRANCH  59  64
BRANCH  60  66
HETATM   66  O   UNL     1     108.959 148.632 155.297  1.00  0.00    -0.272 OA
BRANCH  66  67
HETATM   67  C   UNL     1     109.429 147.731 154.349  1.00  0.00     0.298 C 
HETATM   68  O   UNL     1     110.177 146.806 154.624  1.00  0.00    -0.259 OA
BRANCH  67  69
HETATM   69  C   UNL     1     108.966 148.012 152.960  1.00  0.00     0.045 A 
HETATM   70  C   UNL     1     109.591 149.031 152.224  1.00  0.00     0.057 A 
HETATM   71  C   UNL     1     109.205 149.257 150.907  1.00  0.00     0.102 A 
HETATM   72  C   UNL     1     108.180 148.513 150.340  1.00  0.00     0.132 A 
HETATM   73  C   UNL     1     107.542 147.525 151.087  1.00  0.00     0.102 A 
HETATM   74  C   UNL     1     107.940 147.246 152.393  1.00  0.00     0.057 A 
BRANCH  71  75
HETATM   75  O   UNL     1     109.860 150.228 150.216  1.00  0.00    -0.358 OA
HETATM   76  H   UNL     1     109.358 150.442 149.401  1.00  0.00     0.217 HD
ENDBRANCH  71  75
BRANCH  72  77
HETATM   77  O   UNL     1     107.789 148.761 149.054  1.00  0.00    -0.356 OA
HETATM   78  H   UNL     1     106.951 149.262 149.132  1.00  0.00     0.218 HD
ENDBRANCH  72  77
BRANCH  73  79
HETATM   79  O   UNL     1     106.509 146.854 150.490  1.00  0.00    -0.358 OA
HETATM   80  H   UNL     1     106.428 145.977 150.910  1.00  0.00     0.217 HD
ENDBRANCH  73  79
ENDBRANCH  67  69
ENDBRANCH  66  67
ENDBRANCH  60  66
ENDBRANCH  54  56
ENDBRANCH  53  54
ENDBRANCH  52  53
ENDBRANCH   2  52
BRANCH   3  81
HETATM   81  O   UNL     1     103.963 146.884 161.650  1.00  0.00    -0.285 OA
BRANCH  81  82
HETATM   82  C   UNL     1     102.714 147.131 162.128  1.00  0.00     0.295 C 
HETATM   83  O   UNL     1     102.374 148.263 162.443  1.00  0.00    -0.259 OA
BRANCH  82  84
HETATM   84  C   UNL     1     101.731 146.014 162.117  1.00  0.00     0.045 A 
HETATM   85  C   UNL     1     100.993 145.659 163.254  1.00  0.00     0.057 A 
HETATM   86  C   UNL     1     100.166 144.538 163.205  1.00  0.00     0.102 A 
HETATM   87  C   UNL     1     100.085 143.761 162.054  1.00  0.00     0.132 A 
HETATM   88  C   UNL     1     100.827 144.098 160.932  1.00  0.00     0.102 A 
HETATM   89  C   UNL     1     101.653 145.218 160.956  1.00  0.00     0.057 A 
BRANCH  86  90
HETATM   90  O   UNL     1      99.438 144.175 164.303  1.00  0.00    -0.358 OA
HETATM   91  H   UNL     1      99.475 144.968 164.881  1.00  0.00     0.217 HD
ENDBRANCH  86  90
BRANCH  87  92
HETATM   92  O   UNL     1      99.280 142.653 162.059  1.00  0.00    -0.356 OA
HETATM   93  H   UNL     1      98.474 142.941 162.537  1.00  0.00     0.218 HD
ENDBRANCH  87  92
BRANCH  88  94
HETATM   94  O   UNL     1     100.728 143.288 159.835  1.00  0.00    -0.358 OA
HETATM   95  H   UNL     1     101.600 143.265 159.398  1.00  0.00     0.217 HD
ENDBRANCH  88  94
ENDBRANCH  82  84
ENDBRANCH  81  82
ENDBRANCH   3  81
TORSDOF 38
ENDMDL
MODEL 5
REMARK VINA RESULT:   -11.053      1.422      7.266
REMARK INTER + INTRA:         -27.149
REMARK INTER:                 -28.149
REMARK INTRA:                   1.000
REMARK UNBOUND:                 1.350
REMARK WARNING: 32 MAX_TORS EXCEEDED!!!
REMARK  38 active torsions:
REMARK  status: ('A' for Active; 'I' for Inactive)
REMARK    1  A    between atoms: O_2  and  C_27 
REMARK    2  A    between atoms: O_2  and  C_33 
REMARK    3  A    between atoms: O_3  and  C_28 
REMARK    4  A    between atoms: O_3  and  C_34 
REMARK    5  A    between atoms: O_4  and  C_29 
REMARK    6  A    between atoms: O_4  and  C_35 
REMARK    7  A    between atoms: O_5  and  C_31 
REMARK    8  A    between atoms: O_5  and  C_36 
REMARK    9  A    between atoms: O_6  and  C_32 
REMARK   10  A    between atoms: O_6  and  C_39 
REMARK   11  A    between atoms: O_12  and  C_51 
REMARK   12  A    between atoms: O_13  and  C_52 
REMARK   13  A    between atoms: O_14  and  C_53 
REMARK   14  A    between atoms: O_15  and  C_54 
REMARK   15  A    between atoms: O_16  and  C_55 
REMARK   16  A    between atoms: O_17  and  C_56 
REMARK   17  A    between atoms: O_18  and  C_59 
REMARK   18  A    between atoms: O_19  and  C_60 
REMARK   19  A    between atoms: O_20  and  C_61 
REMARK   20  A    between atoms: O_21  and  C_62 
REMARK   21  A    between atoms: O_22  and  C_63 
REMARK   22  A    between atoms: O_23  and  C_64 
REMARK   23  A    between atoms: O_24  and  C_65 
REMARK   24  A    between atoms: O_24  and  C_86 
REMARK   25  A    between atoms: O_25  and  C_66 
REMARK   26  A    between atoms: O_26  and  C_67 
REMARK   27  A    between atoms: C_28  and  C_30 
REMARK   28  A    between atoms: C_29  and  C_31 
REMARK   29  A    between atoms: C_30  and  C_32 
REMARK   30  A    between atoms: C_33  and  C_37 
REMARK   31  A    between atoms: C_34  and  C_38 
REMARK   32  A    between atoms: C_35  and  C_40 
REMARK   33  A    between atoms: C_36  and  C_41 
REMARK   34  A    between atoms: C_39  and  C_42 
REMARK   35  A    between atoms: O_83  and  C_90 
REMARK   36  A    between atoms: O_84  and  C_91 
REMARK   37  A    between atoms: O_85  and  C_92 
REMARK   38  A    between atoms: C_86  and  C_87 
ROOT
HETATM    1  O   UNL     1     107.586 144.677 161.029  1.00  0.00    -0.348 OA
HETATM    2  C   UNL     1     106.673 145.461 161.665  1.00  0.00     0.201 A 
HETATM    3  C   UNL     1     106.778 144.065 161.954  1.00  0.00     0.282 A 
ENDROOT
BRANCH   2   4
HETATM    4  C   UNL     1     105.868 145.369 161.514  1.00  0.00     0.199 A 
HETATM    5  C   UNL     1     105.163 146.707 161.058  1.00  0.00     0.198 A 
HETATM    6  C   UNL     1     106.052 145.908 160.204  1.00  0.00     0.215 A 
BRANCH   4   7
HETATM    7  O   UNL     1     105.437 145.898 163.121  1.00  0.00    -0.306 OA
BRANCH   7   8
HETATM    8  C   UNL     1     104.575 146.050 164.111  1.00  0.00     0.294 C 
HETATM    9  O   UNL     1     104.124 147.144 164.432  1.00  0.00    -0.259 OA
BRANCH   8  10
HETATM   10  C   UNL     1     104.068 144.891 164.825  1.00  0.00     0.045 A 
HETATM   11  C   UNL     1     103.692 145.058 166.164  1.00  0.00     0.057 A 
HETATM   12  C   UNL     1     102.794 144.157 166.717  1.00  0.00     0.102 A 
HETATM   13  C   UNL     1     102.303 143.100 165.953  1.00  0.00     0.132 A 
HETATM   14  C   UNL     1     102.712 142.927 164.635  1.00  0.00     0.102 A 
HETATM   15  C   UNL     1     103.577 143.836 164.052  1.00  0.00     0.057 A 
BRANCH  12  16
HETATM   16  O   UNL     1     102.307 144.319 167.984  1.00  0.00    -0.358 OA
HETATM   17  H   UNL     1     101.659 145.048 167.961  1.00  0.00     0.217 HD
ENDBRANCH  12  16
BRANCH  13  18
HETATM   18  O   UNL     1     101.353 142.258 166.464  1.00  0.00    -0.356 OA
HETATM   19  H   UNL     1     101.872 141.551 166.900  1.00  0.00     0.218 HD
ENDBRANCH  13  18
BRANCH  14  20
HETATM   20  O   UNL     1     102.202 141.909 163.882  1.00  0.00    -0.358 OA
HETATM   21  H   UNL     1     102.805 141.863 163.110  1.00  0.00     0.217 HD
ENDBRANCH  14  20
ENDBRANCH   8  10
ENDBRANCH   7   8
ENDBRANCH   4   7
BRANCH   5  22
HETATM   22  O   UNL     1     103.669 146.437 160.793  1.00  0.00    -0.306 OA
BRANCH  22  23
HETATM   23  C   UNL     1     102.667 147.039 161.532  1.00  0.00     0.294 C 
HETATM   24  O   UNL     1     102.547 148.225 161.813  1.00  0.00    -0.259 OA
BRANCH  23  25
HETATM   25  C   UNL     1     101.663 146.112 162.043  1.00  0.00     0.045 A 
HETATM   26  C   UNL     1     101.409 144.923 161.337  1.00  0.00     0.057 A 
HETATM   27  C   UNL     1     100.438 144.054 161.812  1.00  0.00     0.102 A 
HETATM   28  C   UNL     1      99.716 144.384 162.952  1.00  0.00     0.132 A 
HETATM   29  C   UNL     1      99.900 145.613 163.572  1.00  0.00     0.102 A 
HETATM   30  C   UNL     1     100.863 146.496 163.115  1.00  0.00     0.057 A 
BRANCH  27  31
HETATM   31  O   UNL     1     100.159 142.872 161.190  1.00  0.00    -0.358 OA
HETATM   32  H   UNL     1     100.856 142.698 160.529  1.00  0.00     0.217 HD
ENDBRANCH  27  31
BRANCH  28  33
HETATM   33  O   UNL     1      98.809 143.506 163.478  1.00  0.00    -0.356 OA
HETATM   34  H   UNL     1      99.002 142.662 163.021  1.00  0.00     0.218 HD
ENDBRANCH  28  33
BRANCH  29  35
HETATM   35  O   UNL     1      99.135 145.969 164.641  1.00  0.00    -0.358 OA
HETATM   36  H   UNL     1      99.469 146.848 164.907  1.00  0.00     0.217 HD
ENDBRANCH  29  35
ENDBRANCH  23  25
ENDBRANCH  22  23
ENDBRANCH   5  22
BRANCH   6  37
HETATM   37  O   UNL     1     105.852 146.277 158.613  1.00  0.00    -0.304 OA
BRANCH  37  38
HETATM   38  C   UNL     1     106.779 146.855 157.804  1.00  0.00     0.294 C 
HETATM   39  O   UNL     1     107.801 146.362 157.375  1.00  0.00    -0.259 OA
BRANCH  38  40
HETATM   40  C   UNL     1     106.349 148.235 157.563  1.00  0.00     0.045 A 
HETATM   41  C   UNL     1     107.329 149.142 157.152  1.00  0.00     0.057 A 
HETATM   42  C   UNL     1     106.968 150.446 156.883  1.00  0.00     0.102 A 
HETATM   43  C   UNL     1     105.644 150.843 157.002  1.00  0.00     0.132 A 
HETATM   44  C   UNL     1     104.665 149.927 157.382  1.00  0.00     0.102 A 
HETATM   45  C   UNL     1     105.006 148.610 157.671  1.00  0.00     0.057 A 
BRANCH  42  46
HETATM   46  O   UNL     1     107.931 151.319 156.481  1.00  0.00    -0.358 OA
HETATM   47  H   UNL     1     108.465 150.830 155.825  1.00  0.00     0.217 HD
ENDBRANCH  42  46
BRANCH  43  48
HETATM   48  O   UNL     1     105.315 152.138 156.712  1.00  0.00    -0.356 OA
HETATM   49  H   UNL     1     105.850 152.352 155.921  1.00  0.00     0.218 HD
ENDBRANCH  43  48
BRANCH  44  50
HETATM   50  O   UNL     1     103.372 150.369 157.433  1.00  0.00    -0.358 OA
HETATM   51  H   UNL     1     102.804 149.618 157.684  1.00  0.00     0.217 HD
ENDBRANCH  44  50
ENDBRANCH  38  40
ENDBRANCH  37  38
ENDBRANCH   6  37
ENDBRANCH   2   4
BRANCH   2  52
HETATM   52  C   UNL     1     106.776 146.837 162.581  1.00  0.00     0.216 C 
BRANCH  52  53
HETATM   53  O   UNL     1     108.154 147.197 162.583  1.00  0.00    -0.315 OA
BRANCH  53  54
HETATM   54  C   UNL     1     108.417 148.344 161.939  1.00  0.00     0.293 C 
HETATM   55  O   UNL     1     107.602 149.098 161.443  1.00  0.00    -0.259 OA
BRANCH  54  56
HETATM   56  C   UNL     1     109.883 148.467 161.883  1.00  0.00     0.045 C 
HETATM   57  C   UNL     1     110.673 148.505 163.048  1.00  0.00     0.057 C 
HETATM   58  C   UNL     1     112.051 148.541 162.943  1.00  0.00     0.102 C 
HETATM   59  C   UNL     1     112.649 148.387 161.704  1.00  0.00     0.133 C 
HETATM   60  C   UNL     1     111.844 148.222 160.575  1.00  0.00     0.116 C 
HETATM   61  C   UNL     1     110.469 148.412 160.626  1.00  0.00     0.058 C 
BRANCH  58  62
HETATM   62  O   UNL     1     112.819 148.623 164.069  1.00  0.00    -0.358 OA
HETATM   63  H   UNL     1     113.530 147.965 163.925  1.00  0.00     0.217 HD
ENDBRANCH  58  62
BRANCH  59  64
HETATM   64  O   UNL     1     114.011 148.295 161.669  1.00  0.00    -0.356 OA
HETATM   65  H   UNL     1     114.322 148.767 160.873  1.00  0.00     0.218 HD
ENDBRANCH  59  64
BRANCH  60  66
HETATM   66  O   UNL     1     112.349 147.605 159.430  1.00  0.00    -0.272 OA
BRANCH  66  67
HETATM   67  C   UNL     1     112.675 148.638 158.560  1.00  0.00     0.298 C 
HETATM   68  O   UNL     1     113.565 149.443 158.786  1.00  0.00    -0.259 OA
BRANCH  67  69
HETATM   69  C   UNL     1     111.820 148.699 157.340  1.00  0.00     0.045 A 
HETATM   70  C   UNL     1     111.278 147.511 156.824  1.00  0.00     0.057 A 
HETATM   71  C   UNL     1     110.430 147.569 155.724  1.00  0.00     0.102 A 
HETATM   72  C   UNL     1     110.158 148.784 155.112  1.00  0.00     0.132 A 
HETATM   73  C   UNL     1     110.725 149.956 155.609  1.00  0.00     0.102 A 
HETATM   74  C   UNL     1     111.541 149.933 156.740  1.00  0.00     0.057 A 
BRANCH  71  75
HETATM   75  O   UNL     1     109.897 146.400 155.277  1.00  0.00    -0.358 OA
HETATM   76  H   UNL     1     108.922 146.425 155.386  1.00  0.00     0.217 HD
ENDBRANCH  71  75
BRANCH  72  77
HETATM   77  O   UNL     1     109.346 148.827 154.014  1.00  0.00    -0.356 OA
HETATM   78  H   UNL     1     108.434 148.853 154.370  1.00  0.00     0.218 HD
ENDBRANCH  72  77
BRANCH  73  79
HETATM   79  O   UNL     1     110.456 151.118 154.939  1.00  0.00    -0.358 OA
HETATM   80  H   UNL     1     111.224 151.335 154.378  1.00  0.00     0.217 HD
ENDBRANCH  73  79
ENDBRANCH  67  69
ENDBRANCH  66  67
ENDBRANCH  60  66
ENDBRANCH  54  56
ENDBRANCH  53  54
ENDBRANCH  52  53
ENDBRANCH   2  52
BRANCH   3  81
HETATM   81  O   UNL     1     107.185 144.042 163.462  1.00  0.00    -0.285 OA
BRANCH  81  82
HETATM   82  C   UNL     1     106.906 142.967 164.247  1.00  0.00     0.295 C 
HETATM   83  O   UNL     1     106.411 141.954 163.772  1.00  0.00    -0.259 OA
BRANCH  82  84
HETATM   84  C   UNL     1     107.355 143.005 165.665  1.00  0.00     0.045 A 
HETATM   85  C   UNL     1     108.691 143.238 166.017  1.00  0.00     0.057 A 
HETATM   86  C   UNL     1     109.064 143.157 167.357  1.00  0.00     0.102 A 
HETATM   87  C   UNL     1     108.135 142.827 168.338  1.00  0.00     0.132 A 
HETATM   88  C   UNL     1     106.816 142.578 167.992  1.00  0.00     0.102 A 
HETATM   89  C   UNL     1     106.419 142.661 166.660  1.00  0.00     0.057 A 
BRANCH  86  90
HETATM   90  O   UNL     1     110.363 143.382 167.722  1.00  0.00    -0.358 OA
HETATM   91  H   UNL     1     110.545 142.679 168.383  1.00  0.00     0.217 HD
ENDBRANCH  86  90
BRANCH  87  92
HETATM   92  O   UNL     1     108.551 142.732 169.640  1.00  0.00    -0.356 OA
HETATM   93  H   UNL     1     109.380 142.209 169.591  1.00  0.00     0.218 HD
ENDBRANCH  87  92
BRANCH  88  94
HETATM   94  O   UNL     1     105.948 142.234 168.992  1.00  0.00    -0.358 OA
HETATM   95  H   UNL     1     105.148 142.785 168.899  1.00  0.00     0.217 HD
ENDBRANCH  88  94
ENDBRANCH  82  84
ENDBRANCH  81  82
ENDBRANCH   3  81
TORSDOF 38
ENDMDL
MODEL 6
REMARK VINA RESULT:   -11.046      1.707      4.563
REMARK INTER + INTRA:         -27.131
REMARK INTER:                 -27.378
REMARK INTRA:                   0.247
REMARK UNBOUND:                 1.350
REMARK WARNING: 32 MAX_TORS EXCEEDED!!!
REMARK  38 active torsions:
REMARK  status: ('A' for Active; 'I' for Inactive)
REMARK    1  A    between atoms: O_2  and  C_27 
REMARK    2  A    between atoms: O_2  and  C_33 
REMARK    3  A    between atoms: O_3  and  C_28 
REMARK    4  A    between atoms: O_3  and  C_34 
REMARK    5  A    between atoms: O_4  and  C_29 
REMARK    6  A    between atoms: O_4  and  C_35 
REMARK    7  A    between atoms: O_5  and  C_31 
REMARK    8  A    between atoms: O_5  and  C_36 
REMARK    9  A    between atoms: O_6  and  C_32 
REMARK   10  A    between atoms: O_6  and  C_39 
REMARK   11  A    between atoms: O_12  and  C_51 
REMARK   12  A    between atoms: O_13  and  C_52 
REMARK   13  A    between atoms: O_14  and  C_53 
REMARK   14  A    between atoms: O_15  and  C_54 
REMARK   15  A    between atoms: O_16  and  C_55 
REMARK   16  A    between atoms: O_17  and  C_56 
REMARK   17  A    between atoms: O_18  and  C_59 
REMARK   18  A    between atoms: O_19  and  C_60 
REMARK   19  A    between atoms: O_20  and  C_61 
REMARK   20  A    between atoms: O_21  and  C_62 
REMARK   21  A    between atoms: O_22  and  C_63 
REMARK   22  A    between atoms: O_23  and  C_64 
REMARK   23  A    between atoms: O_24  and  C_65 
REMARK   24  A    between atoms: O_24  and  C_86 
REMARK   25  A    between atoms: O_25  and  C_66 
REMARK   26  A    between atoms: O_26  and  C_67 
REMARK   27  A    between atoms: C_28  and  C_30 
REMARK   28  A    between atoms: C_29  and  C_31 
REMARK   29  A    between atoms: C_30  and  C_32 
REMARK   30  A    between atoms: C_33  and  C_37 
REMARK   31  A    between atoms: C_34  and  C_38 
REMARK   32  A    between atoms: C_35  and  C_40 
REMARK   33  A    between atoms: C_36  and  C_41 
REMARK   34  A    between atoms: C_39  and  C_42 
REMARK   35  A    between atoms: O_83  and  C_90 
REMARK   36  A    between atoms: O_84  and  C_91 
REMARK   37  A    between atoms: O_85  and  C_92 
REMARK   38  A    between atoms: C_86  and  C_87 
ROOT
HETATM    1  O   UNL     1     106.611 147.961 161.704  1.00  0.00    -0.348 OA
HETATM    2  C   UNL     1     106.483 146.621 161.907  1.00  0.00     0.201 A 
HETATM    3  C   UNL     1     105.449 147.529 162.292  1.00  0.00     0.282 A 
ENDROOT
BRANCH   2   4
HETATM    4  C   UNL     1     106.496 146.312 162.670  1.00  0.00     0.199 A 
HETATM    5  C   UNL     1     107.556 145.154 162.856  1.00  0.00     0.198 A 
HETATM    6  C   UNL     1     107.897 146.580 162.754  1.00  0.00     0.215 A 
BRANCH   4   7
HETATM    7  O   UNL     1     105.415 145.011 162.237  1.00  0.00    -0.306 OA
BRANCH   7   8
HETATM    8  C   UNL     1     104.621 143.999 162.539  1.00  0.00     0.294 C 
HETATM    9  O   UNL     1     104.468 143.035 161.797  1.00  0.00    -0.259 OA
BRANCH   8  10
HETATM   10  C   UNL     1     103.939 143.961 163.821  1.00  0.00     0.045 A 
HETATM   11  C   UNL     1     103.535 142.714 164.312  1.00  0.00     0.057 A 
HETATM   12  C   UNL     1     103.331 142.575 165.678  1.00  0.00     0.102 A 
HETATM   13  C   UNL     1     103.504 143.666 166.526  1.00  0.00     0.132 A 
HETATM   14  C   UNL     1     103.872 144.908 166.019  1.00  0.00     0.102 A 
HETATM   15  C   UNL     1     104.118 145.060 164.666  1.00  0.00     0.057 A 
BRANCH  12  16
HETATM   16  O   UNL     1     103.036 141.363 166.236  1.00  0.00    -0.358 OA
HETATM   17  H   UNL     1     102.390 140.918 165.656  1.00  0.00     0.217 HD
ENDBRANCH  12  16
BRANCH  13  18
HETATM   18  O   UNL     1     103.388 143.516 167.882  1.00  0.00    -0.356 OA
HETATM   19  H   UNL     1     102.422 143.547 168.042  1.00  0.00     0.218 HD
ENDBRANCH  13  18
BRANCH  14  20
HETATM   20  O   UNL     1     104.072 145.965 166.859  1.00  0.00    -0.358 OA
HETATM   21  H   UNL     1     103.846 146.746 166.312  1.00  0.00     0.217 HD
ENDBRANCH  14  20
ENDBRANCH   8  10
ENDBRANCH   7   8
ENDBRANCH   4   7
BRANCH   5  22
HETATM   22  O   UNL     1     107.513 144.646 164.310  1.00  0.00    -0.306 OA
BRANCH  22  23
HETATM   23  C   UNL     1     107.568 143.300 164.624  1.00  0.00     0.294 C 
HETATM   24  O   UNL     1     107.313 142.346 163.900  1.00  0.00    -0.259 OA
BRANCH  23  25
HETATM   25  C   UNL     1     107.957 143.025 166.004  1.00  0.00     0.045 A 
HETATM   26  C   UNL     1     106.955 142.819 166.967  1.00  0.00     0.057 A 
HETATM   27  C   UNL     1     107.327 142.580 168.282  1.00  0.00     0.102 A 
HETATM   28  C   UNL     1     108.672 142.579 168.629  1.00  0.00     0.132 A 
HETATM   29  C   UNL     1     109.643 142.898 167.687  1.00  0.00     0.102 A 
HETATM   30  C   UNL     1     109.295 143.140 166.370  1.00  0.00     0.057 A 
BRANCH  27  31
HETATM   31  O   UNL     1     106.406 142.346 169.262  1.00  0.00    -0.358 OA
HETATM   32  H   UNL     1     105.597 141.989 168.849  1.00  0.00     0.217 HD
ENDBRANCH  27  31
BRANCH  28  33
HETATM   33  O   UNL     1     109.061 142.271 169.903  1.00  0.00    -0.356 OA
HETATM   34  H   UNL     1     108.530 142.872 170.465  1.00  0.00     0.218 HD
ENDBRANCH  28  33
BRANCH  29  35
HETATM   35  O   UNL     1     110.954 142.976 168.047  1.00  0.00    -0.358 OA
HETATM   36  H   UNL     1     111.003 142.528 168.914  1.00  0.00     0.217 HD
ENDBRANCH  29  35
ENDBRANCH  23  25
ENDBRANCH  22  23
ENDBRANCH   5  22
BRANCH   6  37
HETATM   37  O   UNL     1     109.409 146.880 163.331  1.00  0.00    -0.304 OA
BRANCH  37  38
HETATM   38  C   UNL     1     110.130 148.015 163.129  1.00  0.00     0.294 C 
HETATM   39  O   UNL     1     110.347 148.907 163.923  1.00  0.00    -0.259 OA
BRANCH  38  40
HETATM   40  C   UNL     1     110.580 148.007 161.735  1.00  0.00     0.045 A 
HETATM   41  C   UNL     1     110.239 149.111 160.952  1.00  0.00     0.057 A 
HETATM   42  C   UNL     1     110.666 149.164 159.641  1.00  0.00     0.102 A 
HETATM   43  C   UNL     1     111.440 148.140 159.117  1.00  0.00     0.132 A 
HETATM   44  C   UNL     1     111.803 147.053 159.911  1.00  0.00     0.102 A 
HETATM   45  C   UNL     1     111.375 146.972 161.231  1.00  0.00     0.057 A 
BRANCH  42  46
HETATM   46  O   UNL     1     110.330 150.247 158.890  1.00  0.00    -0.358 OA
HETATM   47  H   UNL     1     111.115 150.433 158.338  1.00  0.00     0.217 HD
ENDBRANCH  42  46
BRANCH  43  48
HETATM   48  O   UNL     1     111.861 148.228 157.819  1.00  0.00    -0.356 OA
HETATM   49  H   UNL     1     111.804 149.183 157.612  1.00  0.00     0.218 HD
ENDBRANCH  43  48
BRANCH  44  50
HETATM   50  O   UNL     1     112.607 146.101 159.350  1.00  0.00    -0.358 OA
HETATM   51  H   UNL     1     112.805 145.431 160.029  1.00  0.00     0.217 HD
ENDBRANCH  44  50
ENDBRANCH  38  40
ENDBRANCH  37  38
ENDBRANCH   6  37
ENDBRANCH   2   4
BRANCH   2  52
HETATM   52  C   UNL     1     106.541 145.296 160.914  1.00  0.00     0.216 C 
BRANCH  52  53
HETATM   53  O   UNL     1     106.368 145.797 159.592  1.00  0.00    -0.315 OA
BRANCH  53  54
HETATM   54  C   UNL     1     107.478 146.333 159.065  1.00  0.00     0.293 C 
HETATM   55  O   UNL     1     108.624 146.015 159.316  1.00  0.00    -0.259 OA
BRANCH  54  56
HETATM   56  C   UNL     1     107.038 147.432 158.189  1.00  0.00     0.045 C 
HETATM   57  C   UNL     1     107.939 148.132 157.363  1.00  0.00     0.057 C 
HETATM   58  C   UNL     1     107.466 149.103 156.499  1.00  0.00     0.102 C 
HETATM   59  C   UNL     1     106.101 149.276 156.342  1.00  0.00     0.133 C 
HETATM   60  C   UNL     1     105.224 148.479 157.081  1.00  0.00     0.116 C 
HETATM   61  C   UNL     1     105.673 147.665 158.113  1.00  0.00     0.058 C 
BRANCH  58  62
HETATM   62  O   UNL     1     108.340 149.815 155.729  1.00  0.00    -0.358 OA
HETATM   63  H   UNL     1     109.189 149.760 156.216  1.00  0.00     0.217 HD
ENDBRANCH  58  62
BRANCH  59  64
HETATM   64  O   UNL     1     105.684 150.152 155.381  1.00  0.00    -0.356 OA
HETATM   65  H   UNL     1     105.515 149.641 154.565  1.00  0.00     0.218 HD
ENDBRANCH  59  64
BRANCH  60  66
HETATM   66  O   UNL     1     103.918 148.268 156.639  1.00  0.00    -0.272 OA
BRANCH  66  67
HETATM   67  C   UNL     1     103.128 149.149 157.367  1.00  0.00     0.298 C 
HETATM   68  O   UNL     1     103.466 150.295 157.616  1.00  0.00    -0.259 OA
BRANCH  67  69
HETATM   69  C   UNL     1     101.845 148.561 157.848  1.00  0.00     0.045 A 
HETATM   70  C   UNL     1     101.168 147.638 157.035  1.00  0.00     0.057 A 
HETATM   71  C   UNL     1     100.004 147.041 157.504  1.00  0.00     0.102 A 
HETATM   72  C   UNL     1      99.489 147.387 158.745  1.00  0.00     0.132 A 
HETATM   73  C   UNL     1     100.148 148.328 159.533  1.00  0.00     0.102 A 
HETATM   74  C   UNL     1     101.343 148.908 159.108  1.00  0.00     0.057 A 
BRANCH  71  75
HETATM   75  O   UNL     1      99.398 146.124 156.701  1.00  0.00    -0.358 OA
HETATM   76  H   UNL     1      99.597 145.222 157.031  1.00  0.00     0.217 HD
ENDBRANCH  71  75
BRANCH  72  77
HETATM   77  O   UNL     1      98.329 146.815 159.185  1.00  0.00    -0.356 OA
HETATM   78  H   UNL     1      97.757 147.564 159.451  1.00  0.00     0.218 HD
ENDBRANCH  72  77
BRANCH  73  79
HETATM   79  O   UNL     1      99.571 148.663 160.728  1.00  0.00    -0.358 OA
HETATM   80  H   UNL     1      98.759 149.170 160.546  1.00  0.00     0.217 HD
ENDBRANCH  73  79
ENDBRANCH  67  69
ENDBRANCH  66  67
ENDBRANCH  60  66
ENDBRANCH  54  56
ENDBRANCH  53  54
ENDBRANCH  52  53
ENDBRANCH   2  52
BRANCH   3  81
HETATM   81  O   UNL     1     104.238 147.087 161.410  1.00  0.00    -0.285 OA
BRANCH  81  82
HETATM   82  C   UNL     1     102.966 147.143 161.888  1.00  0.00     0.295 C 
HETATM   83  O   UNL     1     102.575 148.115 162.520  1.00  0.00    -0.259 OA
BRANCH  82  84
HETATM   84  C   UNL     1     102.024 146.061 161.492  1.00  0.00     0.045 A 
HETATM   85  C   UNL     1     102.145 145.377 160.276  1.00  0.00     0.057 A 
HETATM   86  C   UNL     1     101.170 144.446 159.920  1.00  0.00     0.102 A 
HETATM   87  C   UNL     1     100.076 144.209 160.744  1.00  0.00     0.132 A 
HETATM   88  C   UNL     1      99.943 144.897 161.941  1.00  0.00     0.102 A 
HETATM   89  C   UNL     1     100.909 145.825 162.320  1.00  0.00     0.057 A 
BRANCH  86  90
HETATM   90  O   UNL     1     101.270 143.768 158.737  1.00  0.00    -0.358 OA
HETATM   91  H   UNL     1     101.065 144.448 158.059  1.00  0.00     0.217 HD
ENDBRANCH  86  90
BRANCH  87  92
HETATM   92  O   UNL     1      99.127 143.306 160.343  1.00  0.00    -0.356 OA
HETATM   93  H   UNL     1      99.320 142.502 160.871  1.00  0.00     0.218 HD
ENDBRANCH  87  92
BRANCH  88  94
HETATM   94  O   UNL     1      98.836 144.643 162.703  1.00  0.00    -0.358 OA
HETATM   95  H   UNL     1      98.398 143.849 162.343  1.00  0.00     0.217 HD
ENDBRANCH  88  94
ENDBRANCH  82  84
ENDBRANCH  81  82
ENDBRANCH   3  81
TORSDOF 38
ENDMDL
MODEL 7
REMARK VINA RESULT:   -11.031      0.888      2.190
REMARK INTER + INTRA:         -27.093
REMARK INTER:                 -29.361
REMARK INTRA:                   2.268
REMARK UNBOUND:                 1.350
REMARK WARNING: 32 MAX_TORS EXCEEDED!!!
REMARK  38 active torsions:
REMARK  status: ('A' for Active; 'I' for Inactive)
REMARK    1  A    between atoms: O_2  and  C_27 
REMARK    2  A    between atoms: O_2  and  C_33 
REMARK    3  A    between atoms: O_3  and  C_28 
REMARK    4  A    between atoms: O_3  and  C_34 
REMARK    5  A    between atoms: O_4  and  C_29 
REMARK    6  A    between atoms: O_4  and  C_35 
REMARK    7  A    between atoms: O_5  and  C_31 
REMARK    8  A    between atoms: O_5  and  C_36 
REMARK    9  A    between atoms: O_6  and  C_32 
REMARK   10  A    between atoms: O_6  and  C_39 
REMARK   11  A    between atoms: O_12  and  C_51 
REMARK   12  A    between atoms: O_13  and  C_52 
REMARK   13  A    between atoms: O_14  and  C_53 
REMARK   14  A    between atoms: O_15  and  C_54 
REMARK   15  A    between atoms: O_16  and  C_55 
REMARK   16  A    between atoms: O_17  and  C_56 
REMARK   17  A    between atoms: O_18  and  C_59 
REMARK   18  A    between atoms: O_19  and  C_60 
REMARK   19  A    between atoms: O_20  and  C_61 
REMARK   20  A    between atoms: O_21  and  C_62 
REMARK   21  A    between atoms: O_22  and  C_63 
REMARK   22  A    between atoms: O_23  and  C_64 
REMARK   23  A    between atoms: O_24  and  C_65 
REMARK   24  A    between atoms: O_24  and  C_86 
REMARK   25  A    between atoms: O_25  and  C_66 
REMARK   26  A    between atoms: O_26  and  C_67 
REMARK   27  A    between atoms: C_28  and  C_30 
REMARK   28  A    between atoms: C_29  and  C_31 
REMARK   29  A    between atoms: C_30  and  C_32 
REMARK   30  A    between atoms: C_33  and  C_37 
REMARK   31  A    between atoms: C_34  and  C_38 
REMARK   32  A    between atoms: C_35  and  C_40 
REMARK   33  A    between atoms: C_36  and  C_41 
REMARK   34  A    between atoms: C_39  and  C_42 
REMARK   35  A    between atoms: O_83  and  C_90 
REMARK   36  A    between atoms: O_84  and  C_91 
REMARK   37  A    between atoms: O_85  and  C_92 
REMARK   38  A    between atoms: C_86  and  C_87 
ROOT
HETATM    1  O   UNL     1     105.806 148.055 161.699  1.00  0.00    -0.348 OA
HETATM    2  C   UNL     1     105.949 146.714 161.881  1.00  0.00     0.201 A 
HETATM    3  C   UNL     1     104.869 147.431 162.483  1.00  0.00     0.282 A 
ENDROOT
BRANCH   2   4
HETATM    4  C   UNL     1     106.161 146.414 162.619  1.00  0.00     0.199 A 
HETATM    5  C   UNL     1     107.458 145.512 162.574  1.00  0.00     0.198 A 
HETATM    6  C   UNL     1     107.466 146.977 162.472  1.00  0.00     0.215 A 
BRANCH   4   7
HETATM    7  O   UNL     1     105.322 144.912 162.325  1.00  0.00    -0.306 OA
BRANCH   7   8
HETATM    8  C   UNL     1     104.680 143.830 162.733  1.00  0.00     0.294 C 
HETATM    9  O   UNL     1     104.689 142.780 162.100  1.00  0.00    -0.259 OA
BRANCH   8  10
HETATM   10  C   UNL     1     103.983 143.828 164.006  1.00  0.00     0.045 A 
HETATM   11  C   UNL     1     103.587 142.594 164.536  1.00  0.00     0.057 A 
HETATM   12  C   UNL     1     103.368 142.500 165.903  1.00  0.00     0.102 A 
HETATM   13  C   UNL     1     103.519 143.621 166.715  1.00  0.00     0.132 A 
HETATM   14  C   UNL     1     103.880 144.849 166.170  1.00  0.00     0.102 A 
HETATM   15  C   UNL     1     104.141 144.957 164.815  1.00  0.00     0.057 A 
BRANCH  12  16
HETATM   16  O   UNL     1     103.079 141.304 166.499  1.00  0.00    -0.358 OA
HETATM   17  H   UNL     1     102.411 140.852 165.950  1.00  0.00     0.217 HD
ENDBRANCH  12  16
BRANCH  13  18
HETATM   18  O   UNL     1     103.388 143.516 168.074  1.00  0.00    -0.356 OA
HETATM   19  H   UNL     1     103.223 144.435 168.368  1.00  0.00     0.218 HD
ENDBRANCH  13  18
BRANCH  14  20
HETATM   20  O   UNL     1     104.059 145.936 166.976  1.00  0.00    -0.358 OA
HETATM   21  H   UNL     1     104.646 145.605 167.689  1.00  0.00     0.217 HD
ENDBRANCH  14  20
ENDBRANCH   8  10
ENDBRANCH   7   8
ENDBRANCH   4   7
BRANCH   5  22
HETATM   22  O   UNL     1     107.780 145.004 163.994  1.00  0.00    -0.306 OA
BRANCH  22  23
HETATM   23  C   UNL     1     107.913 143.659 164.284  1.00  0.00     0.294 C 
HETATM   24  O   UNL     1     107.841 142.710 163.512  1.00  0.00    -0.259 OA
BRANCH  23  25
HETATM   25  C   UNL     1     108.141 143.373 165.697  1.00  0.00     0.045 A 
HETATM   26  C   UNL     1     109.460 143.316 166.178  1.00  0.00     0.057 A 
HETATM   27  C   UNL     1     109.675 143.023 167.517  1.00  0.00     0.102 A 
HETATM   28  C   UNL     1     108.593 142.761 168.347  1.00  0.00     0.132 A 
HETATM   29  C   UNL     1     107.304 142.709 167.830  1.00  0.00     0.102 A 
HETATM   30  C   UNL     1     107.067 142.998 166.498  1.00  0.00     0.057 A 
BRANCH  27  31
HETATM   31  O   UNL     1     110.929 142.977 168.054  1.00  0.00    -0.358 OA
HETATM   32  H   UNL     1     111.386 143.814 167.846  1.00  0.00     0.217 HD
ENDBRANCH  27  31
BRANCH  28  33
HETATM   33  O   UNL     1     108.780 142.544 169.684  1.00  0.00    -0.356 OA
HETATM   34  H   UNL     1     109.656 142.110 169.734  1.00  0.00     0.218 HD
ENDBRANCH  28  33
BRANCH  29  35
HETATM   35  O   UNL     1     106.254 142.372 168.629  1.00  0.00    -0.358 OA
HETATM   36  H   UNL     1     106.198 141.398 168.572  1.00  0.00     0.217 HD
ENDBRANCH  29  35
ENDBRANCH  23  25
ENDBRANCH  22  23
ENDBRANCH   5  22
BRANCH   6  37
HETATM   37  O   UNL     1     108.957 147.595 162.793  1.00  0.00    -0.304 OA
BRANCH  37  38
HETATM   38  C   UNL     1     109.620 148.514 162.041  1.00  0.00     0.294 C 
HETATM   39  O   UNL     1     109.199 149.138 161.089  1.00  0.00    -0.259 OA
BRANCH  38  40
HETATM   40  C   UNL     1     110.988 148.598 162.558  1.00  0.00     0.045 A 
HETATM   41  C   UNL     1     111.138 148.934 163.905  1.00  0.00     0.057 A 
HETATM   42  C   UNL     1     112.405 148.995 164.447  1.00  0.00     0.102 A 
HETATM   43  C   UNL     1     113.514 148.707 163.665  1.00  0.00     0.132 A 
HETATM   44  C   UNL     1     113.358 148.342 162.328  1.00  0.00     0.102 A 
HETATM   45  C   UNL     1     112.092 148.286 161.756  1.00  0.00     0.057 A 
BRANCH  42  46
HETATM   46  O   UNL     1     112.537 149.319 165.761  1.00  0.00    -0.358 OA
HETATM   47  H   UNL     1     111.713 149.012 166.187  1.00  0.00     0.217 HD
ENDBRANCH  42  46
BRANCH  43  48
HETATM   48  O   UNL     1     114.755 148.760 164.234  1.00  0.00    -0.356 OA
HETATM   49  H   UNL     1     114.621 149.274 165.056  1.00  0.00     0.218 HD
ENDBRANCH  43  48
BRANCH  44  50
HETATM   50  O   UNL     1     114.486 148.024 161.625  1.00  0.00    -0.358 OA
HETATM   51  H   UNL     1     115.121 148.757 161.721  1.00  0.00     0.217 HD
ENDBRANCH  44  50
ENDBRANCH  38  40
ENDBRANCH  37  38
ENDBRANCH   6  37
ENDBRANCH   2   4
BRANCH   2  52
HETATM   52  C   UNL     1     106.040 145.416 160.856  1.00  0.00     0.216 C 
BRANCH  52  53
HETATM   53  O   UNL     1     105.654 145.909 159.576  1.00  0.00    -0.315 OA
BRANCH  53  54
HETATM   54  C   UNL     1     106.670 146.404 158.855  1.00  0.00     0.293 C 
HETATM   55  O   UNL     1     107.846 146.118 158.971  1.00  0.00    -0.259 OA
BRANCH  54  56
HETATM   56  C   UNL     1     106.093 147.417 157.956  1.00  0.00     0.045 C 
HETATM   57  C   UNL     1     104.977 148.192 158.327  1.00  0.00     0.057 C 
HETATM   58  C   UNL     1     104.520 149.187 157.481  1.00  0.00     0.102 C 
HETATM   59  C   UNL     1     105.248 149.514 156.350  1.00  0.00     0.133 C 
HETATM   60  C   UNL     1     106.424 148.814 156.070  1.00  0.00     0.116 C 
HETATM   61  C   UNL     1     106.775 147.669 156.775  1.00  0.00     0.058 C 
BRANCH  58  62
HETATM   62  O   UNL     1     103.411 149.910 157.816  1.00  0.00    -0.358 OA
HETATM   63  H   UNL     1     102.761 149.691 157.117  1.00  0.00     0.217 HD
ENDBRANCH  58  62
BRANCH  59  64
HETATM   64  O   UNL     1     104.828 150.589 155.620  1.00  0.00    -0.356 OA
HETATM   65  H   UNL     1     104.509 151.268 156.246  1.00  0.00     0.218 HD
ENDBRANCH  59  64
BRANCH  60  66
HETATM   66  O   UNL     1     107.411 149.382 155.266  1.00  0.00    -0.272 OA
BRANCH  66  67
HETATM   67  C   UNL     1     108.110 150.255 156.089  1.00  0.00     0.298 C 
HETATM   68  O   UNL     1     107.627 151.288 156.527  1.00  0.00    -0.259 OA
BRANCH  67  69
HETATM   69  C   UNL     1     109.515 149.839 156.365  1.00  0.00     0.045 A 
HETATM   70  C   UNL     1     109.750 148.644 157.064  1.00  0.00     0.057 A 
HETATM   71  C   UNL     1     111.058 148.220 157.270  1.00  0.00     0.102 A 
HETATM   72  C   UNL     1     112.123 148.992 156.830  1.00  0.00     0.132 A 
HETATM   73  C   UNL     1     111.883 150.194 156.165  1.00  0.00     0.102 A 
HETATM   74  C   UNL     1     110.582 150.620 155.903  1.00  0.00     0.057 A 
BRANCH  71  75
HETATM   75  O   UNL     1     111.242 147.039 157.918  1.00  0.00    -0.358 OA
HETATM   76  H   UNL     1     111.095 147.169 158.879  1.00  0.00     0.217 HD
ENDBRANCH  71  75
BRANCH  72  77
HETATM   77  O   UNL     1     113.405 148.581 157.062  1.00  0.00    -0.356 OA
HETATM   78  H   UNL     1     113.600 148.855 157.981  1.00  0.00     0.218 HD
ENDBRANCH  72  77
BRANCH  73  79
HETATM   79  O   UNL     1     112.972 150.935 155.793  1.00  0.00    -0.358 OA
HETATM   80  H   UNL     1     113.681 150.790 156.447  1.00  0.00     0.217 HD
ENDBRANCH  73  79
ENDBRANCH  67  69
ENDBRANCH  66  67
ENDBRANCH  60  66
ENDBRANCH  54  56
ENDBRANCH  53  54
ENDBRANCH  52  53
ENDBRANCH   2  52
BRANCH   3  81
HETATM   81  O   UNL     1     103.605 146.783 161.834  1.00  0.00    -0.285 OA
BRANCH  81  82
HETATM   82  C   UNL     1     102.359 147.042 162.316  1.00  0.00     0.295 C 
HETATM   83  O   UNL     1     102.006 148.188 162.561  1.00  0.00    -0.259 OA
BRANCH  82  84
HETATM   84  C   UNL     1     101.394 145.913 162.393  1.00  0.00     0.045 A 
HETATM   85  C   UNL     1     100.724 145.585 163.580  1.00  0.00     0.057 A 
HETATM   86  C   UNL     1      99.912 144.453 163.612  1.00  0.00     0.102 A 
HETATM   87  C   UNL     1      99.780 143.638 162.492  1.00  0.00     0.132 A 
HETATM   88  C   UNL     1     100.455 143.949 161.321  1.00  0.00     0.102 A 
HETATM   89  C   UNL     1     101.265 145.079 161.265  1.00  0.00     0.057 A 
BRANCH  86  90
HETATM   90  O   UNL     1      99.250 144.116 164.759  1.00  0.00    -0.358 OA
HETATM   91  H   UNL     1      98.621 143.420 164.471  1.00  0.00     0.217 HD
ENDBRANCH  86  90
BRANCH  87  92
HETATM   92  O   UNL     1      98.994 142.520 162.576  1.00  0.00    -0.356 OA
HETATM   93  H   UNL     1      98.685 142.372 161.657  1.00  0.00     0.218 HD
ENDBRANCH  87  92
BRANCH  88  94
HETATM   94  O   UNL     1     100.309 143.102 160.257  1.00  0.00    -0.358 OA
HETATM   95  H   UNL     1     100.364 142.187 160.591  1.00  0.00     0.217 HD
ENDBRANCH  88  94
ENDBRANCH  82  84
ENDBRANCH  81  82
ENDBRANCH   3  81
TORSDOF 38
ENDMDL
MODEL 8
REMARK VINA RESULT:   -11.021      1.589      2.416
REMARK INTER + INTRA:         -27.068
REMARK INTER:                 -28.230
REMARK INTRA:                   1.162
REMARK UNBOUND:                 1.350
REMARK WARNING: 32 MAX_TORS EXCEEDED!!!
REMARK  38 active torsions:
REMARK  status: ('A' for Active; 'I' for Inactive)
REMARK    1  A    between atoms: O_2  and  C_27 
REMARK    2  A    between atoms: O_2  and  C_33 
REMARK    3  A    between atoms: O_3  and  C_28 
REMARK    4  A    between atoms: O_3  and  C_34 
REMARK    5  A    between atoms: O_4  and  C_29 
REMARK    6  A    between atoms: O_4  and  C_35 
REMARK    7  A    between atoms: O_5  and  C_31 
REMARK    8  A    between atoms: O_5  and  C_36 
REMARK    9  A    between atoms: O_6  and  C_32 
REMARK   10  A    between atoms: O_6  and  C_39 
REMARK   11  A    between atoms: O_12  and  C_51 
REMARK   12  A    between atoms: O_13  and  C_52 
REMARK   13  A    between atoms: O_14  and  C_53 
REMARK   14  A    between atoms: O_15  and  C_54 
REMARK   15  A    between atoms: O_16  and  C_55 
REMARK   16  A    between atoms: O_17  and  C_56 
REMARK   17  A    between atoms: O_18  and  C_59 
REMARK   18  A    between atoms: O_19  and  C_60 
REMARK   19  A    between atoms: O_20  and  C_61 
REMARK   20  A    between atoms: O_21  and  C_62 
REMARK   21  A    between atoms: O_22  and  C_63 
REMARK   22  A    between atoms: O_23  and  C_64 
REMARK   23  A    between atoms: O_24  and  C_65 
REMARK   24  A    between atoms: O_24  and  C_86 
REMARK   25  A    between atoms: O_25  and  C_66 
REMARK   26  A    between atoms: O_26  and  C_67 
REMARK   27  A    between atoms: C_28  and  C_30 
REMARK   28  A    between atoms: C_29  and  C_31 
REMARK   29  A    between atoms: C_30  and  C_32 
REMARK   30  A    between atoms: C_33  and  C_37 
REMARK   31  A    between atoms: C_34  and  C_38 
REMARK   32  A    between atoms: C_35  and  C_40 
REMARK   33  A    between atoms: C_36  and  C_41 
REMARK   34  A    between atoms: C_39  and  C_42 
REMARK   35  A    between atoms: O_83  and  C_90 
REMARK   36  A    between atoms: O_84  and  C_91 
REMARK   37  A    between atoms: O_85  and  C_92 
REMARK   38  A    between atoms: C_86  and  C_87 
ROOT
HETATM    1  O   UNL     1     104.824 148.240 161.266  1.00  0.00    -0.348 OA
HETATM    2  C   UNL     1     105.194 146.946 161.473  1.00  0.00     0.201 A 
HETATM    3  C   UNL     1     104.068 147.510 162.148  1.00  0.00     0.282 A 
ENDROOT
BRANCH   2   4
HETATM    4  C   UNL     1     105.512 146.715 162.197  1.00  0.00     0.199 A 
HETATM    5  C   UNL     1     106.888 145.950 162.057  1.00  0.00     0.198 A 
HETATM    6  C   UNL     1     106.726 147.400 161.882  1.00  0.00     0.215 A 
BRANCH   4   7
HETATM    7  O   UNL     1     104.815 145.120 162.071  1.00  0.00    -0.306 OA
BRANCH   7   8
HETATM    8  C   UNL     1     104.428 143.967 162.590  1.00  0.00     0.294 C 
HETATM    9  O   UNL     1     104.634 142.892 162.037  1.00  0.00    -0.259 OA
BRANCH   8  10
HETATM   10  C   UNL     1     103.791 143.928 163.895  1.00  0.00     0.045 A 
HETATM   11  C   UNL     1     103.380 142.684 164.387  1.00  0.00     0.057 A 
HETATM   12  C   UNL     1     103.221 142.533 165.757  1.00  0.00     0.102 A 
HETATM   13  C   UNL     1     103.447 143.610 166.611  1.00  0.00     0.132 A 
HETATM   14  C   UNL     1     103.823 144.850 166.104  1.00  0.00     0.102 A 
HETATM   15  C   UNL     1     104.024 145.013 164.745  1.00  0.00     0.057 A 
BRANCH  12  16
HETATM   16  O   UNL     1     102.921 141.320 166.313  1.00  0.00    -0.358 OA
HETATM   17  H   UNL     1     103.756 140.917 166.614  1.00  0.00     0.217 HD
ENDBRANCH  12  16
BRANCH  13  18
HETATM   18  O   UNL     1     103.376 143.447 167.968  1.00  0.00    -0.356 OA
HETATM   19  H   UNL     1     102.502 143.818 168.207  1.00  0.00     0.218 HD
ENDBRANCH  13  18
BRANCH  14  20
HETATM   20  O   UNL     1     104.075 145.893 166.949  1.00  0.00    -0.358 OA
HETATM   21  H   UNL     1     103.480 146.604 166.628  1.00  0.00     0.217 HD
ENDBRANCH  14  20
ENDBRANCH   8  10
ENDBRANCH   7   8
ENDBRANCH   4   7
BRANCH   5  22
HETATM   22  O   UNL     1     107.407 145.565 163.456  1.00  0.00    -0.306 OA
BRANCH  22  23
HETATM   23  C   UNL     1     108.342 144.565 163.648  1.00  0.00     0.294 C 
HETATM   24  O   UNL     1     109.380 144.374 163.026  1.00  0.00    -0.259 OA
BRANCH  23  25
HETATM   25  C   UNL     1     108.003 143.627 164.713  1.00  0.00     0.045 A 
HETATM   26  C   UNL     1     108.631 143.758 165.964  1.00  0.00     0.057 A 
HETATM   27  C   UNL     1     108.324 142.852 166.968  1.00  0.00     0.102 A 
HETATM   28  C   UNL     1     107.431 141.819 166.715  1.00  0.00     0.132 A 
HETATM   29  C   UNL     1     106.907 141.637 165.441  1.00  0.00     0.102 A 
HETATM   30  C   UNL     1     107.200 142.528 164.424  1.00  0.00     0.057 A 
BRANCH  27  31
HETATM   31  O   UNL     1     108.878 142.937 168.213  1.00  0.00    -0.358 OA
HETATM   32  H   UNL     1     108.604 142.155 168.728  1.00  0.00     0.217 HD
ENDBRANCH  27  31
BRANCH  28  33
HETATM   33  O   UNL     1     107.059 140.962 167.713  1.00  0.00    -0.356 OA
HETATM   34  H   UNL     1     106.741 141.552 168.427  1.00  0.00     0.218 HD
ENDBRANCH  28  33
BRANCH  29  35
HETATM   35  O   UNL     1     106.096 140.576 165.174  1.00  0.00    -0.358 OA
HETATM   36  H   UNL     1     106.115 140.034 165.987  1.00  0.00     0.217 HD
ENDBRANCH  29  35
ENDBRANCH  23  25
ENDBRANCH  22  23
ENDBRANCH   5  22
BRANCH   6  37
HETATM   37  O   UNL     1     108.166 148.186 162.007  1.00  0.00    -0.304 OA
BRANCH  37  38
HETATM   38  C   UNL     1     108.890 148.698 160.976  1.00  0.00     0.294 C 
HETATM   39  O   UNL     1     108.549 149.548 160.180  1.00  0.00    -0.259 OA
BRANCH  38  40
HETATM   40  C   UNL     1     110.176 147.998 160.954  1.00  0.00     0.045 A 
HETATM   41  C   UNL     1     111.328 148.784 161.040  1.00  0.00     0.057 A 
HETATM   42  C   UNL     1     112.563 148.168 161.054  1.00  0.00     0.102 A 
HETATM   43  C   UNL     1     112.655 146.786 161.003  1.00  0.00     0.132 A 
HETATM   44  C   UNL     1     111.502 146.004 160.949  1.00  0.00     0.102 A 
HETATM   45  C   UNL     1     110.247 146.602 160.920  1.00  0.00     0.057 A 
BRANCH  42  46
HETATM   46  O   UNL     1     113.676 148.945 161.142  1.00  0.00    -0.358 OA
HETATM   47  H   UNL     1     114.335 148.400 161.614  1.00  0.00     0.217 HD
ENDBRANCH  42  46
BRANCH  43  48
HETATM   48  O   UNL     1     113.892 146.205 161.035  1.00  0.00    -0.356 OA
HETATM   49  H   UNL     1     113.706 145.245 161.064  1.00  0.00     0.218 HD
ENDBRANCH  43  48
BRANCH  44  50
HETATM   50  O   UNL     1     111.659 144.646 160.949  1.00  0.00    -0.358 OA
HETATM   51  H   UNL     1     112.504 144.438 161.387  1.00  0.00     0.217 HD
ENDBRANCH  44  50
ENDBRANCH  38  40
ENDBRANCH  37  38
ENDBRANCH   6  37
ENDBRANCH   2   4
BRANCH   2  52
HETATM   52  C   UNL     1     105.405 145.636 160.482  1.00  0.00     0.216 C 
BRANCH  52  53
HETATM   53  O   UNL     1     105.116 146.098 159.165  1.00  0.00    -0.315 OA
BRANCH  53  54
HETATM   54  C   UNL     1     106.198 146.496 158.480  1.00  0.00     0.293 C 
HETATM   55  O   UNL     1     107.320 146.038 158.571  1.00  0.00    -0.259 OA
BRANCH  54  56
HETATM   56  C   UNL     1     105.777 147.645 157.661  1.00  0.00     0.045 C 
HETATM   57  C   UNL     1     104.671 148.444 158.011  1.00  0.00     0.057 C 
HETATM   58  C   UNL     1     104.362 149.559 157.254  1.00  0.00     0.102 C 
HETATM   59  C   UNL     1     105.225 149.969 156.252  1.00  0.00     0.133 C 
HETATM   60  C   UNL     1     106.385 149.230 156.007  1.00  0.00     0.116 C 
HETATM   61  C   UNL     1     106.596 147.989 156.595  1.00  0.00     0.058 C 
BRANCH  58  62
HETATM   62  O   UNL     1     103.265 150.310 157.563  1.00  0.00    -0.358 OA
HETATM   63  H   UNL     1     103.578 151.236 157.490  1.00  0.00     0.217 HD
ENDBRANCH  58  62
BRANCH  59  64
HETATM   64  O   UNL     1     104.946 151.149 155.624  1.00  0.00    -0.356 OA
HETATM   65  H   UNL     1     105.783 151.644 155.534  1.00  0.00     0.218 HD
ENDBRANCH  59  64
BRANCH  60  66
HETATM   66  O   UNL     1     107.483 149.822 155.384  1.00  0.00    -0.272 OA
BRANCH  66  67
HETATM   67  C   UNL     1     108.220 150.412 156.402  1.00  0.00     0.298 C 
HETATM   68  O   UNL     1     107.775 151.293 157.122  1.00  0.00    -0.259 OA
BRANCH  67  69
HETATM   69  C   UNL     1     109.615 149.901 156.519  1.00  0.00     0.045 A 
HETATM   70  C   UNL     1     110.679 150.710 156.090  1.00  0.00     0.057 A 
HETATM   71  C   UNL     1     111.986 150.263 156.252  1.00  0.00     0.102 A 
HETATM   72  C   UNL     1     112.236 149.009 156.791  1.00  0.00     0.132 A 
HETATM   73  C   UNL     1     111.174 148.197 157.185  1.00  0.00     0.102 A 
HETATM   74  C   UNL     1     109.856 148.639 157.077  1.00  0.00     0.057 A 
BRANCH  71  75
HETATM   75  O   UNL     1     112.989 151.093 155.858  1.00  0.00    -0.358 OA
HETATM   76  H   UNL     1     113.848 150.627 155.941  1.00  0.00     0.217 HD
ENDBRANCH  71  75
BRANCH  72  77
HETATM   77  O   UNL     1     113.522 148.568 156.921  1.00  0.00    -0.356 OA
HETATM   78  H   UNL     1     113.587 148.231 157.838  1.00  0.00     0.218 HD
ENDBRANCH  72  77
BRANCH  73  79
HETATM   79  O   UNL     1     111.479 146.954 157.668  1.00  0.00    -0.358 OA
HETATM   80  H   UNL     1     110.824 146.320 157.322  1.00  0.00     0.217 HD
ENDBRANCH  73  79
ENDBRANCH  67  69
ENDBRANCH  66  67
ENDBRANCH  60  66
ENDBRANCH  54  56
ENDBRANCH  53  54
ENDBRANCH  52  53
ENDBRANCH   2  52
BRANCH   3  81
HETATM   81  O   UNL     1     102.873 146.645 161.634  1.00  0.00    -0.285 OA
BRANCH  81  82
HETATM   82  C   UNL     1     101.603 146.881 162.060  1.00  0.00     0.295 C 
HETATM   83  O   UNL     1     101.164 148.021 162.127  1.00  0.00    -0.259 OA
BRANCH  82  84
HETATM   84  C   UNL     1     100.720 145.707 162.298  1.00  0.00     0.045 A 
HETATM   85  C   UNL     1      99.952 145.133 161.276  1.00  0.00     0.057 A 
HETATM   86  C   UNL     1      99.068 144.102 161.588  1.00  0.00     0.102 A 
HETATM   87  C   UNL     1      98.924 143.657 162.898  1.00  0.00     0.132 A 
HETATM   88  C   UNL     1      99.669 144.235 163.916  1.00  0.00     0.102 A 
HETATM   89  C   UNL     1     100.564 145.260 163.625  1.00  0.00     0.057 A 
BRANCH  86  90
HETATM   90  O   UNL     1      98.310 143.528 160.606  1.00  0.00    -0.358 OA
HETATM   91  H   UNL     1      98.892 143.554 159.816  1.00  0.00     0.217 HD
ENDBRANCH  86  90
BRANCH  87  92
HETATM   92  O   UNL     1      98.023 142.660 163.164  1.00  0.00    -0.356 OA
HETATM   93  H   UNL     1      97.866 142.238 162.294  1.00  0.00     0.218 HD
ENDBRANCH  87  92
BRANCH  88  94
HETATM   94  O   UNL     1      99.472 143.776 165.189  1.00  0.00    -0.358 OA
HETATM   95  H   UNL     1      98.866 144.393 165.641  1.00  0.00     0.217 HD
ENDBRANCH  88  94
ENDBRANCH  82  84
ENDBRANCH  81  82
ENDBRANCH   3  81
TORSDOF 38
ENDMDL
MODEL 9
REMARK VINA RESULT:   -11.015     19.765     25.220
REMARK INTER + INTRA:         -27.050
REMARK INTER:                 -27.172
REMARK INTRA:                   0.122
REMARK UNBOUND:                 1.350
REMARK WARNING: 32 MAX_TORS EXCEEDED!!!
REMARK  38 active torsions:
REMARK  status: ('A' for Active; 'I' for Inactive)
REMARK    1  A    between atoms: O_2  and  C_27 
REMARK    2  A    between atoms: O_2  and  C_33 
REMARK    3  A    between atoms: O_3  and  C_28 
REMARK    4  A    between atoms: O_3  and  C_34 
REMARK    5  A    between atoms: O_4  and  C_29 
REMARK    6  A    between atoms: O_4  and  C_35 
REMARK    7  A    between atoms: O_5  and  C_31 
REMARK    8  A    between atoms: O_5  and  C_36 
REMARK    9  A    between atoms: O_6  and  C_32 
REMARK   10  A    between atoms: O_6  and  C_39 
REMARK   11  A    between atoms: O_12  and  C_51 
REMARK   12  A    between atoms: O_13  and  C_52 
REMARK   13  A    between atoms: O_14  and  C_53 
REMARK   14  A    between atoms: O_15  and  C_54 
REMARK   15  A    between atoms: O_16  and  C_55 
REMARK   16  A    between atoms: O_17  and  C_56 
REMARK   17  A    between atoms: O_18  and  C_59 
REMARK   18  A    between atoms: O_19  and  C_60 
REMARK   19  A    between atoms: O_20  and  C_61 
REMARK   20  A    between atoms: O_21  and  C_62 
REMARK   21  A    between atoms: O_22  and  C_63 
REMARK   22  A    between atoms: O_23  and  C_64 
REMARK   23  A    between atoms: O_24  and  C_65 
REMARK   24  A    between atoms: O_24  and  C_86 
REMARK   25  A    between atoms: O_25  and  C_66 
REMARK   26  A    between atoms: O_26  and  C_67 
REMARK   27  A    between atoms: C_28  and  C_30 
REMARK   28  A    between atoms: C_29  and  C_31 
REMARK   29  A    between atoms: C_30  and  C_32 
REMARK   30  A    between atoms: C_33  and  C_37 
REMARK   31  A    between atoms: C_34  and  C_38 
REMARK   32  A    between atoms: C_35  and  C_40 
REMARK   33  A    between atoms: C_36  and  C_41 
REMARK   34  A    between atoms: C_39  and  C_42 
REMARK   35  A    between atoms: O_83  and  C_90 
REMARK   36  A    between atoms: O_84  and  C_91 
REMARK   37  A    between atoms: O_85  and  C_92 
REMARK   38  A    between atoms: C_86  and  C_87 
ROOT
HETATM    1  O   UNL     1     122.781 149.165 144.687  1.00  0.00    -0.348 OA
HETATM    2  C   UNL     1     122.319 149.848 145.770  1.00  0.00     0.201 A 
HETATM    3  C   UNL     1     122.961 148.580 145.915  1.00  0.00     0.282 A 
ENDROOT
BRANCH   2   4
HETATM    4  C   UNL     1     121.670 149.568 146.194  1.00  0.00     0.199 A 
HETATM    5  C   UNL     1     120.495 150.619 146.300  1.00  0.00     0.198 A 
HETATM    6  C   UNL     1     120.819 149.861 145.084  1.00  0.00     0.215 A 
BRANCH   4   7
HETATM    7  O   UNL     1     122.229 150.309 147.672  1.00  0.00    -0.306 OA
BRANCH   7   8
HETATM    8  C   UNL     1     122.375 150.337 148.986  1.00  0.00     0.294 C 
HETATM    9  O   UNL     1     121.948 151.255 149.678  1.00  0.00    -0.259 OA
BRANCH   8  10
HETATM   10  C   UNL     1     123.000 149.223 149.677  1.00  0.00     0.045 A 
HETATM   11  C   UNL     1     122.526 147.934 149.406  1.00  0.00     0.057 A 
HETATM   12  C   UNL     1     123.365 146.855 149.651  1.00  0.00     0.102 A 
HETATM   13  C   UNL     1     124.637 147.064 150.177  1.00  0.00     0.132 A 
HETATM   14  C   UNL     1     125.081 148.348 150.474  1.00  0.00     0.102 A 
HETATM   15  C   UNL     1     124.277 149.441 150.201  1.00  0.00     0.057 A 
BRANCH  12  16
HETATM   16  O   UNL     1     123.005 145.580 149.315  1.00  0.00    -0.358 OA
HETATM   17  H   UNL     1     123.608 144.970 149.780  1.00  0.00     0.217 HD
ENDBRANCH  12  16
BRANCH  13  18
HETATM   18  O   UNL     1     125.501 146.014 150.342  1.00  0.00    -0.356 OA
HETATM   19  H   UNL     1     126.291 146.273 149.825  1.00  0.00     0.218 HD
ENDBRANCH  13  18
BRANCH  14  20
HETATM   20  O   UNL     1     126.342 148.548 150.958  1.00  0.00    -0.358 OA
HETATM   21  H   UNL     1     126.909 148.014 150.363  1.00  0.00     0.217 HD
ENDBRANCH  14  20
ENDBRANCH   8  10
ENDBRANCH   7   8
ENDBRANCH   4   7
BRANCH   5  22
HETATM   22  O   UNL     1     119.328 150.006 147.100  1.00  0.00    -0.306 OA
BRANCH  22  23
HETATM   23  C   UNL     1     118.070 150.578 147.126  1.00  0.00     0.294 C 
HETATM   24  O   UNL     1     117.713 151.591 147.715  1.00  0.00    -0.259 OA
BRANCH  23  25
HETATM   25  C   UNL     1     117.064 149.841 146.367  1.00  0.00     0.045 A 
HETATM   26  C   UNL     1     117.086 148.436 146.390  1.00  0.00     0.057 A 
HETATM   27  C   UNL     1     116.143 147.737 145.650  1.00  0.00     0.102 A 
HETATM   28  C   UNL     1     115.219 148.432 144.880  1.00  0.00     0.132 A 
HETATM   29  C   UNL     1     115.284 149.816 144.778  1.00  0.00     0.102 A 
HETATM   30  C   UNL     1     116.216 150.533 145.507  1.00  0.00     0.057 A 
BRANCH  27  31
HETATM   31  O   UNL     1     116.092 146.373 145.648  1.00  0.00    -0.358 OA
HETATM   32  H   UNL     1     116.751 146.039 145.011  1.00  0.00     0.217 HD
ENDBRANCH  27  31
BRANCH  28  33
HETATM   33  O   UNL     1     114.236 147.763 144.203  1.00  0.00    -0.356 OA
HETATM   34  H   UNL     1     114.336 148.068 143.278  1.00  0.00     0.218 HD
ENDBRANCH  28  33
BRANCH  29  35
HETATM   35  O   UNL     1     114.430 150.489 143.959  1.00  0.00    -0.358 OA
HETATM   36  H   UNL     1     114.087 151.224 144.504  1.00  0.00     0.217 HD
ENDBRANCH  29  35
ENDBRANCH  23  25
ENDBRANCH  22  23
ENDBRANCH   5  22
BRANCH   6  37
HETATM   37  O   UNL     1     119.561 149.857 144.024  1.00  0.00    -0.304 OA
BRANCH  37  38
HETATM   38  C   UNL     1     119.526 150.495 142.823  1.00  0.00     0.294 C 
HETATM   39  O   UNL     1     120.242 150.308 141.861  1.00  0.00    -0.259 OA
BRANCH  38  40
HETATM   40  C   UNL     1     118.475 151.513 142.899  1.00  0.00     0.045 A 
HETATM   41  C   UNL     1     117.515 151.510 141.884  1.00  0.00     0.057 A 
HETATM   42  C   UNL     1     116.487 152.429 141.928  1.00  0.00     0.102 A 
HETATM   43  C   UNL     1     116.400 153.330 142.978  1.00  0.00     0.132 A 
HETATM   44  C   UNL     1     117.343 153.309 144.005  1.00  0.00     0.102 A 
HETATM   45  C   UNL     1     118.395 152.401 143.976  1.00  0.00     0.057 A 
BRANCH  42  46
HETATM   46  O   UNL     1     115.557 152.414 140.935  1.00  0.00    -0.358 OA
HETATM   47  H   UNL     1     115.132 151.536 140.993  1.00  0.00     0.217 HD
ENDBRANCH  42  46
BRANCH  43  48
HETATM   48  O   UNL     1     115.361 154.218 143.002  1.00  0.00    -0.356 OA
HETATM   49  H   UNL     1     114.991 154.180 142.096  1.00  0.00     0.218 HD
ENDBRANCH  43  48
BRANCH  44  50
HETATM   50  O   UNL     1     117.174 154.191 145.036  1.00  0.00    -0.358 OA
HETATM   51  H   UNL     1     116.604 154.918 144.724  1.00  0.00     0.217 HD
ENDBRANCH  44  50
ENDBRANCH  38  40
ENDBRANCH  37  38
ENDBRANCH   6  37
ENDBRANCH   2   4
BRANCH   2  52
HETATM   52  C   UNL     1     122.603 151.360 146.384  1.00  0.00     0.216 C 
BRANCH  52  53
HETATM   53  O   UNL     1     123.691 151.884 145.629  1.00  0.00    -0.315 OA
BRANCH  53  54
HETATM   54  C   UNL     1     124.545 152.625 146.351  1.00  0.00     0.293 C 
HETATM   55  O   UNL     1     124.516 152.795 147.554  1.00  0.00    -0.259 OA
BRANCH  54  56
HETATM   56  C   UNL     1     125.471 153.252 145.392  1.00  0.00     0.045 C 
HETATM   57  C   UNL     1     125.825 154.612 145.480  1.00  0.00     0.057 C 
HETATM   58  C   UNL     1     126.759 155.137 144.605  1.00  0.00     0.102 C 
HETATM   59  C   UNL     1     127.450 154.293 143.752  1.00  0.00     0.133 C 
HETATM   60  C   UNL     1     127.171 152.924 143.774  1.00  0.00     0.116 C 
HETATM   61  C   UNL     1     126.085 152.413 144.474  1.00  0.00     0.058 C 
BRANCH  58  62
HETATM   62  O   UNL     1     127.071 156.465 144.657  1.00  0.00    -0.358 OA
HETATM   63  H   UNL     1     126.238 156.897 144.939  1.00  0.00     0.217 HD
ENDBRANCH  58  62
BRANCH  59  64
HETATM   64  O   UNL     1     128.454 154.838 143.005  1.00  0.00    -0.356 OA
HETATM   65  H   UNL     1     128.065 155.542 142.450  1.00  0.00     0.218 HD
ENDBRANCH  59  64
BRANCH  60  66
HETATM   66  O   UNL     1     128.116 152.003 143.323  1.00  0.00    -0.272 OA
BRANCH  66  67
HETATM   67  C   UNL     1     128.932 151.736 144.415  1.00  0.00     0.298 C 
HETATM   68  O   UNL     1     129.323 152.604 145.180  1.00  0.00    -0.259 OA
BRANCH  67  69
HETATM   69  C   UNL     1     129.317 150.303 144.551  1.00  0.00     0.045 A 
HETATM   70  C   UNL     1     128.423 149.310 144.118  1.00  0.00     0.057 A 
HETATM   71  C   UNL     1     128.802 147.974 144.187  1.00  0.00     0.102 A 
HETATM   72  C   UNL     1     130.033 147.620 144.720  1.00  0.00     0.132 A 
HETATM   73  C   UNL     1     130.902 148.609 145.178  1.00  0.00     0.102 A 
HETATM   74  C   UNL     1     130.568 149.959 145.079  1.00  0.00     0.057 A 
BRANCH  71  75
HETATM   75  O   UNL     1     127.923 147.046 143.723  1.00  0.00    -0.358 OA
HETATM   76  H   UNL     1     127.209 147.495 143.222  1.00  0.00     0.217 HD
ENDBRANCH  71  75
BRANCH  72  77
HETATM   77  O   UNL     1     130.384 146.303 144.808  1.00  0.00    -0.356 OA
HETATM   78  H   UNL     1     129.701 145.892 145.377  1.00  0.00     0.218 HD
ENDBRANCH  72  77
BRANCH  73  79
HETATM   79  O   UNL     1     132.083 148.199 145.734  1.00  0.00    -0.358 OA
HETATM   80  H   UNL     1     132.696 148.958 145.750  1.00  0.00     0.217 HD
ENDBRANCH  73  79
ENDBRANCH  67  69
ENDBRANCH  66  67
ENDBRANCH  60  66
ENDBRANCH  54  56
ENDBRANCH  53  54
ENDBRANCH  52  53
ENDBRANCH   2  52
BRANCH   3  81
HETATM   81  O   UNL     1     124.226 148.916 146.769  1.00  0.00    -0.285 OA
BRANCH  81  82
HETATM   82  C   UNL     1     125.430 148.349 146.490  1.00  0.00     0.295 C 
HETATM   83  O   UNL     1     125.544 147.525 145.593  1.00  0.00    -0.259 OA
BRANCH  82  84
HETATM   84  C   UNL     1     126.627 148.869 147.206  1.00  0.00     0.045 A 
HETATM   85  C   UNL     1     126.884 150.240 147.329  1.00  0.00     0.057 A 
HETATM   86  C   UNL     1     128.074 150.659 147.921  1.00  0.00     0.102 A 
HETATM   87  C   UNL     1     129.013 149.734 148.366  1.00  0.00     0.132 A 
HETATM   88  C   UNL     1     128.771 148.375 148.230  1.00  0.00     0.102 A 
HETATM   89  C   UNL     1     127.585 147.935 147.649  1.00  0.00     0.057 A 
BRANCH  86  90
HETATM   90  O   UNL     1     128.344 151.992 148.051  1.00  0.00    -0.358 OA
HETATM   91  H   UNL     1     127.466 152.392 148.234  1.00  0.00     0.217 HD
ENDBRANCH  86  90
BRANCH  87  92
HETATM   92  O   UNL     1     130.182 150.189 148.917  1.00  0.00    -0.356 OA
HETATM   93  H   UNL     1     130.643 150.633 148.173  1.00  0.00     0.218 HD
ENDBRANCH  87  92
BRANCH  88  94
HETATM   94  O   UNL     1     129.737 147.509 148.662  1.00  0.00    -0.358 OA
HETATM   95  H   UNL     1     130.511 148.035 148.939  1.00  0.00     0.217 HD
ENDBRANCH  88  94
ENDBRANCH  82  84
ENDBRANCH  81  82
ENDBRANCH   3  81
TORSDOF 38
ENDMDL
MODEL 10
REMARK VINA RESULT:   -10.992     17.674     25.217
REMARK INTER + INTRA:         -26.991
REMARK INTER:                 -28.153
REMARK INTRA:                   1.162
REMARK UNBOUND:                 1.350
REMARK WARNING: 32 MAX_TORS EXCEEDED!!!
REMARK  38 active torsions:
REMARK  status: ('A' for Active; 'I' for Inactive)
REMARK    1  A    between atoms: O_2  and  C_27 
REMARK    2  A    between atoms: O_2  and  C_33 
REMARK    3  A    between atoms: O_3  and  C_28 
REMARK    4  A    between atoms: O_3  and  C_34 
REMARK    5  A    between atoms: O_4  and  C_29 
REMARK    6  A    between atoms: O_4  and  C_35 
REMARK    7  A    between atoms: O_5  and  C_31 
REMARK    8  A    between atoms: O_5  and  C_36 
REMARK    9  A    between atoms: O_6  and  C_32 
REMARK   10  A    between atoms: O_6  and  C_39 
REMARK   11  A    between atoms: O_12  and  C_51 
REMARK   12  A    between atoms: O_13  and  C_52 
REMARK   13  A    between atoms: O_14  and  C_53 
REMARK   14  A    between atoms: O_15  and  C_54 
REMARK   15  A    between atoms: O_16  and  C_55 
REMARK   16  A    between atoms: O_17  and  C_56 
REMARK   17  A    between atoms: O_18  and  C_59 
REMARK   18  A    between atoms: O_19  and  C_60 
REMARK   19  A    between atoms: O_20  and  C_61 
REMARK   20  A    between atoms: O_21  and  C_62 
REMARK   21  A    between atoms: O_22  and  C_63 
REMARK   22  A    between atoms: O_23  and  C_64 
REMARK   23  A    between atoms: O_24  and  C_65 
REMARK   24  A    between atoms: O_24  and  C_86 
REMARK   25  A    between atoms: O_25  and  C_66 
REMARK   26  A    between atoms: O_26  and  C_67 
REMARK   27  A    between atoms: C_28  and  C_30 
REMARK   28  A    between atoms: C_29  and  C_31 
REMARK   29  A    between atoms: C_30  and  C_32 
REMARK   30  A    between atoms: C_33  and  C_37 
REMARK   31  A    between atoms: C_34  and  C_38 
REMARK   32  A    between atoms: C_35  and  C_40 
REMARK   33  A    between atoms: C_36  and  C_41 
REMARK   34  A    between atoms: C_39  and  C_42 
REMARK   35  A    between atoms: O_83  and  C_90 
REMARK   36  A    between atoms: O_84  and  C_91 
REMARK   37  A    between atoms: O_85  and  C_92 
REMARK   38  A    between atoms: C_86  and  C_87 
ROOT
HETATM    1  O   UNL     1     120.629 149.339 148.602  1.00  0.00    -0.348 OA
HETATM    2  C   UNL     1     121.058 149.527 147.323  1.00  0.00     0.201 A 
HETATM    3  C   UNL     1     121.274 150.519 148.329  1.00  0.00     0.282 A 
ENDROOT
BRANCH   2   4
HETATM    4  C   UNL     1     120.700 150.092 146.842  1.00  0.00     0.199 A 
HETATM    5  C   UNL     1     120.306 149.536 145.416  1.00  0.00     0.198 A 
HETATM    6  C   UNL     1     119.581 149.223 146.655  1.00  0.00     0.215 A 
BRANCH   4   7
HETATM    7  O   UNL     1     122.213 150.495 146.072  1.00  0.00    -0.306 OA
BRANCH   7   8
HETATM    8  C   UNL     1     122.991 151.299 145.367  1.00  0.00     0.294 C 
HETATM    9  O   UNL     1     122.615 151.841 144.333  1.00  0.00    -0.259 OA
BRANCH   8  10
HETATM   10  C   UNL     1     124.323 151.630 145.840  1.00  0.00     0.045 A 
HETATM   11  C   UNL     1     125.349 150.704 145.611  1.00  0.00     0.057 A 
HETATM   12  C   UNL     1     126.660 151.157 145.604  1.00  0.00     0.102 A 
HETATM   13  C   UNL     1     126.938 152.501 145.843  1.00  0.00     0.132 A 
HETATM   14  C   UNL     1     125.911 153.402 146.103  1.00  0.00     0.102 A 
HETATM   15  C   UNL     1     124.593 152.980 146.077  1.00  0.00     0.057 A 
BRANCH  12  16
HETATM   16  O   UNL     1     127.701 150.329 145.287  1.00  0.00    -0.358 OA
HETATM   17  H   UNL     1     127.704 149.597 145.932  1.00  0.00     0.217 HD
ENDBRANCH  12  16
BRANCH  13  18
HETATM   18  O   UNL     1     128.220 152.971 145.753  1.00  0.00    -0.356 OA
HETATM   19  H   UNL     1     128.201 153.812 146.255  1.00  0.00     0.218 HD
ENDBRANCH  13  18
BRANCH  14  20
HETATM   20  O   UNL     1     126.187 154.724 146.304  1.00  0.00    -0.358 OA
HETATM   21  H   UNL     1     125.449 155.035 146.870  1.00  0.00     0.217 HD
ENDBRANCH  14  20
ENDBRANCH   8  10
ENDBRANCH   7   8
ENDBRANCH   4   7
BRANCH   5  22
HETATM   22  O   UNL     1     119.640 150.657 144.594  1.00  0.00    -0.306 OA
BRANCH  22  23
HETATM   23  C   UNL     1     119.540 150.603 143.216  1.00  0.00     0.294 C 
HETATM   24  O   UNL     1     120.393 150.247 142.412  1.00  0.00    -0.259 OA
BRANCH  23  25
HETATM   25  C   UNL     1     118.256 151.057 142.692  1.00  0.00     0.045 A 
HETATM   26  C   UNL     1     117.095 150.848 143.456  1.00  0.00     0.057 A 
HETATM   27  C   UNL     1     115.873 151.261 142.946  1.00  0.00     0.102 A 
HETATM   28  C   UNL     1     115.812 151.842 141.686  1.00  0.00     0.132 A 
HETATM   29  C   UNL     1     116.952 151.937 140.898  1.00  0.00     0.102 A 
HETATM   30  C   UNL     1     118.182 151.531 141.386  1.00  0.00     0.057 A 
BRANCH  27  31
HETATM   31  O   UNL     1     114.710 151.111 143.646  1.00  0.00    -0.358 OA
HETATM   32  H   UNL     1     114.894 150.576 144.441  1.00  0.00     0.217 HD
ENDBRANCH  27  31
BRANCH  28  33
HETATM   33  O   UNL     1     114.628 152.323 141.199  1.00  0.00    -0.356 OA
HETATM   34  H   UNL     1     114.765 152.354 140.229  1.00  0.00     0.218 HD
ENDBRANCH  28  33
BRANCH  29  35
HETATM   35  O   UNL     1     116.877 152.432 139.632  1.00  0.00    -0.358 OA
HETATM   36  H   UNL     1     117.411 151.818 139.091  1.00  0.00     0.217 HD
ENDBRANCH  29  35
ENDBRANCH  23  25
ENDBRANCH  22  23
ENDBRANCH   5  22
BRANCH   6  37
HETATM   37  O   UNL     1     118.072 148.648 146.340  1.00  0.00    -0.304 OA
BRANCH  37  38
HETATM   38  C   UNL     1     117.735 147.792 145.339  1.00  0.00     0.294 C 
HETATM   39  O   UNL     1     118.383 147.512 144.352  1.00  0.00    -0.259 OA
BRANCH  38  40
HETATM   40  C   UNL     1     116.395 147.278 145.634  1.00  0.00     0.045 A 
HETATM   41  C   UNL     1     115.535 147.091 144.551  1.00  0.00     0.057 A 
HETATM   42  C   UNL     1     114.272 146.581 144.774  1.00  0.00     0.102 A 
HETATM   43  C   UNL     1     113.873 146.241 146.058  1.00  0.00     0.132 A 
HETATM   44  C   UNL     1     114.747 146.402 147.133  1.00  0.00     0.102 A 
HETATM   45  C   UNL     1     116.019 146.926 146.934  1.00  0.00     0.057 A 
BRANCH  42  46
HETATM   46  O   UNL     1     113.445 146.399 143.710  1.00  0.00    -0.358 OA
HETATM   47  H   UNL     1     114.022 146.450 142.922  1.00  0.00     0.217 HD
ENDBRANCH  42  46
BRANCH  43  48
HETATM   48  O   UNL     1     112.622 145.723 146.246  1.00  0.00    -0.356 OA
HETATM   49  H   UNL     1     112.080 146.493 146.511  1.00  0.00     0.218 HD
ENDBRANCH  43  48
BRANCH  44  50
HETATM   50  O   UNL     1     114.311 146.003 148.366  1.00  0.00    -0.358 OA
HETATM   51  H   UNL     1     115.086 145.731 148.889  1.00  0.00     0.217 HD
ENDBRANCH  44  50
ENDBRANCH  38  40
ENDBRANCH  37  38
ENDBRANCH   6  37
ENDBRANCH   2   4
BRANCH   2  52
HETATM   52  C   UNL     1     122.055 148.679 146.308  1.00  0.00     0.216 C 
BRANCH  52  53
HETATM   53  O   UNL     1     122.711 147.716 147.127  1.00  0.00    -0.315 OA
BRANCH  53  54
HETATM   54  C   UNL     1     123.958 147.423 146.728  1.00  0.00     0.293 C 
HETATM   55  O   UNL     1     124.304 147.115 145.605  1.00  0.00    -0.259 OA
BRANCH  54  56
HETATM   56  C   UNL     1     124.805 147.468 147.932  1.00  0.00     0.045 C 
HETATM   57  C   UNL     1     124.353 146.993 149.179  1.00  0.00     0.057 C 
HETATM   58  C   UNL     1     125.212 146.982 150.263  1.00  0.00     0.102 C 
HETATM   59  C   UNL     1     126.548 147.296 150.082  1.00  0.00     0.133 C 
HETATM   60  C   UNL     1     127.001 147.642 148.806  1.00  0.00     0.116 C 
HETATM   61  C   UNL     1     126.118 147.880 147.760  1.00  0.00     0.058 C 
BRANCH  58  62
HETATM   62  O   UNL     1     124.765 146.565 151.483  1.00  0.00    -0.358 OA
HETATM   63  H   UNL     1     123.844 146.896 151.528  1.00  0.00     0.217 HD
ENDBRANCH  58  62
BRANCH  59  64
HETATM   64  O   UNL     1     127.382 147.142 151.152  1.00  0.00    -0.356 OA
HETATM   65  H   UNL     1     126.827 147.011 151.946  1.00  0.00     0.218 HD
ENDBRANCH  59  64
BRANCH  60  66
HETATM   66  O   UNL     1     128.347 147.499 148.470  1.00  0.00    -0.272 OA
BRANCH  66  67
HETATM   67  C   UNL     1     128.910 148.759 148.633  1.00  0.00     0.298 C 
HETATM   68  O   UNL     1     128.629 149.498 149.564  1.00  0.00    -0.259 OA
BRANCH  67  69
HETATM   69  C   UNL     1     129.862 149.143 147.553  1.00  0.00     0.045 A 
HETATM   70  C   UNL     1     130.203 148.198 146.572  1.00  0.00     0.057 A 
HETATM   71  C   UNL     1     131.042 148.571 145.528  1.00  0.00     0.102 A 
HETATM   72  C   UNL     1     131.577 149.850 145.479  1.00  0.00     0.132 A 
HETATM   73  C   UNL     1     131.261 150.774 146.474  1.00  0.00     0.102 A 
HETATM   74  C   UNL     1     130.384 150.442 147.507  1.00  0.00     0.057 A 
BRANCH  71  75
HETATM   75  O   UNL     1     131.318 147.637 144.578  1.00  0.00    -0.358 OA
HETATM   76  H   UNL     1     131.200 148.034 143.688  1.00  0.00     0.217 HD
ENDBRANCH  71  75
BRANCH  72  77
HETATM   77  O   UNL     1     132.423 150.197 144.465  1.00  0.00    -0.356 OA
HETATM   78  H   UNL     1     132.724 151.104 144.680  1.00  0.00     0.218 HD
ENDBRANCH  72  77
BRANCH  73  79
HETATM   79  O   UNL     1     131.851 152.006 146.399  1.00  0.00    -0.358 OA
HETATM   80  H   UNL     1     132.034 152.316 147.306  1.00  0.00     0.217 HD
ENDBRANCH  73  79
ENDBRANCH  67  69
ENDBRANCH  66  67
ENDBRANCH  60  66
ENDBRANCH  54  56
ENDBRANCH  53  54
ENDBRANCH  52  53
ENDBRANCH   2  52
BRANCH   3  81
HETATM   81  O   UNL     1     122.832 150.604 148.418  1.00  0.00    -0.285 OA
BRANCH  81  82
HETATM   82  C   UNL     1     123.458 150.745 149.616  1.00  0.00     0.295 C 
HETATM   83  O   UNL     1     123.273 149.941 150.520  1.00  0.00    -0.259 OA
BRANCH  82  84
HETATM   84  C   UNL     1     124.485 151.814 149.744  1.00  0.00     0.045 A 
HETATM   85  C   UNL     1     124.152 153.127 150.105  1.00  0.00     0.057 A 
HETATM   86  C   UNL     1     125.146 154.104 150.105  1.00  0.00     0.102 A 
HETATM   87  C   UNL     1     126.450 153.795 149.733  1.00  0.00     0.132 A 
HETATM   88  C   UNL     1     126.780 152.502 149.358  1.00  0.00     0.102 A 
HETATM   89  C   UNL     1     125.805 151.508 149.358  1.00  0.00     0.057 A 
BRANCH  86  90
HETATM   90  O   UNL     1     124.842 155.390 150.454  1.00  0.00    -0.358 OA
HETATM   91  H   UNL     1     124.292 155.291 151.261  1.00  0.00     0.217 HD
ENDBRANCH  86  90
BRANCH  87  92
HETATM   92  O   UNL     1     127.389 154.792 149.721  1.00  0.00    -0.356 OA
HETATM   93  H   UNL     1     127.340 155.161 148.814  1.00  0.00     0.218 HD
ENDBRANCH  87  92
BRANCH  88  94
HETATM   94  O   UNL     1     128.071 152.257 148.978  1.00  0.00    -0.358 OA
HETATM   95  H   UNL     1     128.606 153.039 149.211  1.00  0.00     0.217 HD
ENDBRANCH  88  94
ENDBRANCH  82  84
ENDBRANCH  81  82
ENDBRANCH   3  81
TORSDOF 38
ENDMDL
