MODEL 1
REMARK VINA RESULT:      -6.9      0.000      0.000
REMARK  5 active torsions:
REMARK  status: ('A' for Active; 'I' for Inactive)
REMARK    1  A    between atoms: O_2  and  C_13 
REMARK    2  A    between atoms: O_4  and  C_16 
REMARK    3  A    between atoms: O_5  and  C_19 
REMARK    4  A    between atoms: O_6  and  C_21 
REMARK    5  A    between atoms: C_9  and  C_10 
ROOT
HETATM    1  O   UNK     0     184.026 181.884 172.819  0.00  0.00    -0.309 OA
HETATM    2  O   UNK     0     180.005 182.443 173.159  0.00  0.00    -0.287 OA
HETATM    3  C   UNK     0     181.782 180.968 172.658  0.00  0.00     0.081 A 
HETATM    4  C   UNK     0     183.166 180.846 172.562  0.00  0.00     0.095 A 
HETATM    5  C   UNK     0     183.490 183.111 173.181  0.00  0.00     0.090 A 
HETATM    6  C   UNK     0     181.210 182.265 173.052  0.00  0.00     0.190 A 
HETATM    7  C   UNK     0     182.176 183.352 173.314  0.00  0.00     0.094 A 
HETATM    8  C   UNK     0     180.956 179.876 172.386  0.00  0.00     0.085 A 
HETATM    9  C   UNK     0     183.735 179.627 172.193  0.00  0.00     0.075 A 
HETATM   10  C   UNK     0     182.913 178.533 171.920  0.00  0.00     0.071 A 
HETATM   11  C   UNK     0     181.527 178.658 172.016  0.00  0.00     0.074 A 
ENDROOT
BRANCH   5  12
HETATM   12  C   UNK     0     184.501 184.155 173.439  0.00  0.00     0.001 A 
HETATM   13  C   UNK     0     185.851 183.814 173.549  0.00  0.00     0.053 A 
HETATM   14  C   UNK     0     186.806 184.800 173.793  0.00  0.00     0.099 A 
HETATM   15  C   UNK     0     186.415 186.132 173.927  0.00  0.00     0.098 A 
HETATM   16  C   UNK     0     185.068 186.477 173.819  0.00  0.00     0.040 A 
HETATM   17  C   UNK     0     184.112 185.490 173.575  0.00  0.00     0.017 A 
BRANCH  14  18
HETATM   18  O   UNK     0     188.119 184.451 173.899  0.00  0.00    -0.358 OA
HETATM   19  H   UNK     0     188.294 183.725 173.276  0.00  0.00     0.217 HD
ENDBRANCH  14  18
BRANCH  15  20
HETATM   20  O   UNK     0     187.338 187.105 174.164  0.00  0.00    -0.358 OA
HETATM   21  H   UNK     0     187.905 186.829 174.904  0.00  0.00     0.217 HD
ENDBRANCH  15  20
ENDBRANCH   5  12
BRANCH   8  22
HETATM   22  O   UNK     0     179.598 179.945 172.466  0.00  0.00    -0.360 OA
HETATM   23  H   UNK     0     179.217 179.058 172.558  0.00  0.00     0.217 HD
ENDBRANCH   8  22
BRANCH  10  24
HETATM   24  O   UNK     0     183.465 177.341 171.559  0.00  0.00    -0.361 OA
HETATM   25  H   UNK     0     183.220 177.146 170.639  0.00  0.00     0.217 HD
ENDBRANCH  10  24
TORSDOF 5
ENDMDL
MODEL 2
REMARK VINA RESULT:      -6.7      3.318      8.614
REMARK  5 active torsions:
REMARK  status: ('A' for Active; 'I' for Inactive)
REMARK    1  A    between atoms: O_2  and  C_13 
REMARK    2  A    between atoms: O_4  and  C_16 
REMARK    3  A    between atoms: O_5  and  C_19 
REMARK    4  A    between atoms: O_6  and  C_21 
REMARK    5  A    between atoms: C_9  and  C_10 
ROOT
HETATM    1  O   UNK     0     179.253 181.075 172.322  0.00  0.00    -0.309 OA
HETATM    2  O   UNK     0     182.605 178.771 172.545  0.00  0.00    -0.287 OA
HETATM    3  C   UNK     0     181.652 180.928 172.679  0.00  0.00     0.081 A 
HETATM    4  C   UNK     0     180.467 181.656 172.590  0.00  0.00     0.095 A 
HETATM    5  C   UNK     0     179.207 179.703 172.123  0.00  0.00     0.090 A 
HETATM    6  C   UNK     0     181.606 179.471 172.478  0.00  0.00     0.190 A 
HETATM    7  C   UNK     0     180.276 178.894 172.190  0.00  0.00     0.094 A 
HETATM    8  C   UNK     0     182.858 181.574 172.955  0.00  0.00     0.085 A 
HETATM    9  C   UNK     0     180.482 183.038 172.778  0.00  0.00     0.075 A 
HETATM   10  C   UNK     0     181.686 183.687 173.054  0.00  0.00     0.071 A 
HETATM   11  C   UNK     0     182.871 182.956 173.143  0.00  0.00     0.074 A 
ENDROOT
BRANCH   5  12
HETATM   12  C   UNK     0     177.854 179.182 171.848  0.00  0.00     0.001 A 
HETATM   13  C   UNK     0     177.141 179.632 170.735  0.00  0.00     0.053 A 
HETATM   14  C   UNK     0     175.863 179.139 170.474  0.00  0.00     0.099 A 
HETATM   15  C   UNK     0     175.293 178.193 171.326  0.00  0.00     0.098 A 
HETATM   16  C   UNK     0     176.001 177.741 172.439  0.00  0.00     0.040 A 
HETATM   17  C   UNK     0     177.280 178.234 172.700  0.00  0.00     0.017 A 
BRANCH  14  18
HETATM   18  O   UNK     0     175.179 179.589 169.385  0.00  0.00    -0.358 OA
HETATM   19  H   UNK     0     174.457 180.163 169.692  0.00  0.00     0.217 HD
ENDBRANCH  14  18
BRANCH  15  20
HETATM   20  O   UNK     0     174.046 177.704 171.082  0.00  0.00    -0.358 OA
HETATM   21  H   UNK     0     173.491 177.844 171.868  0.00  0.00     0.217 HD
ENDBRANCH  15  20
ENDBRANCH   5  12
BRANCH   8  22
HETATM   22  O   UNK     0     184.042 180.906 173.053  0.00  0.00    -0.360 OA
HETATM   23  H   UNK     0     184.785 181.530 173.049  0.00  0.00     0.217 HD
ENDBRANCH   8  22
BRANCH  10  24
HETATM   24  O   UNK     0     181.704 185.036 173.239  0.00  0.00    -0.361 OA
HETATM   25  H   UNK     0     180.792 185.352 173.351  0.00  0.00     0.217 HD
ENDBRANCH  10  24
TORSDOF 5
ENDMDL
MODEL 3
REMARK VINA RESULT:      -6.6      4.842      7.150
REMARK  5 active torsions:
REMARK  status: ('A' for Active; 'I' for Inactive)
REMARK    1  A    between atoms: O_2  and  C_13 
REMARK    2  A    between atoms: O_4  and  C_16 
REMARK    3  A    between atoms: O_5  and  C_19 
REMARK    4  A    between atoms: O_6  and  C_21 
REMARK    5  A    between atoms: C_9  and  C_10 
ROOT
HETATM    1  O   UNK     0     185.462 187.558 171.676  0.00  0.00    -0.309 OA
HETATM    2  O   UNK     0     181.986 186.105 170.124  0.00  0.00    -0.287 OA
HETATM    3  C   UNK     0     183.614 187.818 170.120  0.00  0.00     0.081 A 
HETATM    4  C   UNK     0     184.806 188.256 170.694  0.00  0.00     0.095 A 
HETATM    5  C   UNK     0     184.908 186.367 172.122  0.00  0.00     0.090 A 
HETATM    6  C   UNK     0     183.028 186.551 170.584  0.00  0.00     0.190 A 
HETATM    7  C   UNK     0     183.770 185.838 171.645  0.00  0.00     0.094 A 
HETATM    8  C   UNK     0     182.991 188.571 169.123  0.00  0.00     0.085 A 
HETATM    9  C   UNK     0     185.384 189.453 170.271  0.00  0.00     0.075 A 
HETATM   10  C   UNK     0     184.765 190.208 169.274  0.00  0.00     0.071 A 
HETATM   11  C   UNK     0     183.572 189.768 168.702  0.00  0.00     0.074 A 
ENDROOT
BRANCH   5  12
HETATM   12  C   UNK     0     185.695 185.696 173.174  0.00  0.00     0.001 A 
HETATM   13  C   UNK     0     185.636 186.150 174.494  0.00  0.00     0.053 A 
HETATM   14  C   UNK     0     186.381 185.516 175.488  0.00  0.00     0.099 A 
HETATM   15  C   UNK     0     187.186 184.423 175.166  0.00  0.00     0.098 A 
HETATM   16  C   UNK     0     187.248 183.967 173.850  0.00  0.00     0.040 A 
HETATM   17  C   UNK     0     186.504 184.602 172.855  0.00  0.00     0.017 A 
BRANCH  14  18
HETATM   18  O   UNK     0     186.313 185.971 176.770  0.00  0.00    -0.358 OA
HETATM   19  H   UNK     0     185.407 185.836 177.095  0.00  0.00     0.217 HD
ENDBRANCH  14  18
BRANCH  15  20
HETATM   20  O   UNK     0     187.917 183.794 176.128  0.00  0.00    -0.358 OA
HETATM   21  H   UNK     0     187.414 183.797 176.960  0.00  0.00     0.217 HD
ENDBRANCH  15  20
ENDBRANCH   5  12
BRANCH   8  22
HETATM   22  O   UNK     0     181.826 188.185 168.532  0.00  0.00    -0.360 OA
HETATM   23  H   UNK     0     181.099 188.768 168.801  0.00  0.00     0.217 HD
ENDBRANCH   8  22
BRANCH  10  24
HETATM   24  O   UNK     0     185.327 191.377 168.859  0.00  0.00    -0.361 OA
HETATM   25  H   UNK     0     186.150 191.179 168.380  0.00  0.00     0.217 HD
ENDBRANCH  10  24
TORSDOF 5
ENDMDL
MODEL 4
REMARK VINA RESULT:      -6.6      8.002     10.458
REMARK  5 active torsions:
REMARK  status: ('A' for Active; 'I' for Inactive)
REMARK    1  A    between atoms: O_2  and  C_13 
REMARK    2  A    between atoms: O_4  and  C_16 
REMARK    3  A    between atoms: O_5  and  C_19 
REMARK    4  A    between atoms: O_6  and  C_21 
REMARK    5  A    between atoms: C_9  and  C_10 
ROOT
HETATM    1  O   UNK     0     178.050 175.735 170.596  0.00  0.00    -0.309 OA
HETATM    2  O   UNK     0     175.802 172.993 168.589  0.00  0.00    -0.287 OA
HETATM    3  C   UNK     0     175.877 175.048 169.753  0.00  0.00     0.081 A 
HETATM    4  C   UNK     0     176.704 175.944 170.428  0.00  0.00     0.095 A 
HETATM    5  C   UNK     0     178.608 174.576 170.078  0.00  0.00     0.090 A 
HETATM    6  C   UNK     0     176.467 173.821 169.194  0.00  0.00     0.190 A 
HETATM    7  C   UNK     0     177.919 173.641 169.404  0.00  0.00     0.094 A 
HETATM    8  C   UNK     0     174.514 175.313 169.613  0.00  0.00     0.085 A 
HETATM    9  C   UNK     0     176.171 177.115 170.966  0.00  0.00     0.075 A 
HETATM   10  C   UNK     0     174.809 177.384 170.827  0.00  0.00     0.071 A 
HETATM   11  C   UNK     0     173.983 176.486 170.153  0.00  0.00     0.074 A 
ENDROOT
BRANCH   5  12
HETATM   12  C   UNK     0     180.060 174.454 170.309  0.00  0.00     0.001 A 
HETATM   13  C   UNK     0     180.776 175.519 170.862  0.00  0.00     0.053 A 
HETATM   14  C   UNK     0     182.148 175.403 171.080  0.00  0.00     0.099 A 
HETATM   15  C   UNK     0     182.811 174.221 170.747  0.00  0.00     0.098 A 
HETATM   16  C   UNK     0     182.100 173.156 170.195  0.00  0.00     0.040 A 
HETATM   17  C   UNK     0     180.727 173.272 169.976  0.00  0.00     0.017 A 
BRANCH  14  18
HETATM   18  O   UNK     0     182.833 176.451 171.620  0.00  0.00    -0.358 OA
HETATM   19  H   UNK     0     183.417 176.108 172.317  0.00  0.00     0.217 HD
ENDBRANCH  14  18
BRANCH  15  20
HETATM   20  O   UNK     0     184.151 174.096 170.957  0.00  0.00    -0.358 OA
HETATM   21  H   UNK     0     184.572 174.964 170.837  0.00  0.00     0.217 HD
ENDBRANCH  15  20
ENDBRANCH   5  12
BRANCH   8  22
HETATM   22  O   UNK     0     173.665 174.469 168.963  0.00  0.00    -0.360 OA
HETATM   23  H   UNK     0     173.105 173.996 169.597  0.00  0.00     0.217 HD
ENDBRANCH   8  22
BRANCH  10  24
HETATM   24  O   UNK     0     174.285 178.527 171.351  0.00  0.00    -0.361 OA
HETATM   25  H   UNK     0     174.163 178.408 172.309  0.00  0.00     0.217 HD
ENDBRANCH  10  24
TORSDOF 5
ENDMDL
MODEL 5
REMARK VINA RESULT:      -6.5      4.345      5.797
REMARK  5 active torsions:
REMARK  status: ('A' for Active; 'I' for Inactive)
REMARK    1  A    between atoms: O_2  and  C_13 
REMARK    2  A    between atoms: O_4  and  C_16 
REMARK    3  A    between atoms: O_5  and  C_19 
REMARK    4  A    between atoms: O_6  and  C_21 
REMARK    5  A    between atoms: C_9  and  C_10 
ROOT
HETATM    1  O   UNK     0     183.037 185.604 172.656  0.00  0.00    -0.309 OA
HETATM    2  O   UNK     0     184.085 187.820 169.402  0.00  0.00    -0.287 OA
HETATM    3  C   UNK     0     182.357 186.826 170.670  0.00  0.00     0.081 A 
HETATM    4  C   UNK     0     182.069 186.064 171.801  0.00  0.00     0.095 A 
HETATM    5  C   UNK     0     184.362 185.904 172.377  0.00  0.00     0.090 A 
HETATM    6  C   UNK     0     183.761 187.154 170.375  0.00  0.00     0.190 A 
HETATM    7  C   UNK     0     184.766 186.633 171.324  0.00  0.00     0.094 A 
HETATM    8  C   UNK     0     181.329 187.268 169.835  0.00  0.00     0.085 A 
HETATM    9  C   UNK     0     180.747 185.740 172.105  0.00  0.00     0.075 A 
HETATM   10  C   UNK     0     179.716 186.181 171.273  0.00  0.00     0.071 A 
HETATM   11  C   UNK     0     180.007 186.942 170.141  0.00  0.00     0.074 A 
ENDROOT
BRANCH   5  12
HETATM   12  C   UNK     0     185.320 185.365 173.362  0.00  0.00     0.001 A 
HETATM   13  C   UNK     0     185.390 185.912 174.646  0.00  0.00     0.053 A 
HETATM   14  C   UNK     0     186.295 185.404 175.576  0.00  0.00     0.099 A 
HETATM   15  C   UNK     0     187.135 184.346 175.227  0.00  0.00     0.098 A 
HETATM   16  C   UNK     0     187.069 183.798 173.946  0.00  0.00     0.040 A 
HETATM   17  C   UNK     0     186.163 184.307 173.015  0.00  0.00     0.017 A 
BRANCH  14  18
HETATM   18  O   UNK     0     186.352 185.948 176.825  0.00  0.00    -0.358 OA
HETATM   19  H   UNK     0     185.542 185.699 177.303  0.00  0.00     0.217 HD
ENDBRANCH  14  18
BRANCH  15  20
HETATM   20  O   UNK     0     188.023 183.840 176.127  0.00  0.00    -0.358 OA
HETATM   21  H   UNK     0     187.575 183.170 176.671  0.00  0.00     0.217 HD
ENDBRANCH  15  20
ENDBRANCH   5  12
BRANCH   8  22
HETATM   22  O   UNK     0     181.560 188.014 168.719  0.00  0.00    -0.360 OA
HETATM   23  H   UNK     0     181.487 188.960 168.922  0.00  0.00     0.217 HD
ENDBRANCH   8  22
BRANCH  10  24
HETATM   24  O   UNK     0     178.424 185.866 171.567  0.00  0.00    -0.361 OA
HETATM   25  H   UNK     0     178.016 185.448 170.790  0.00  0.00     0.217 HD
ENDBRANCH  10  24
TORSDOF 5
ENDMDL
MODEL 6
REMARK VINA RESULT:      -6.5      3.726      7.412
REMARK  5 active torsions:
REMARK  status: ('A' for Active; 'I' for Inactive)
REMARK    1  A    between atoms: O_2  and  C_13 
REMARK    2  A    between atoms: O_4  and  C_16 
REMARK    3  A    between atoms: O_5  and  C_19 
REMARK    4  A    between atoms: O_6  and  C_21 
REMARK    5  A    between atoms: C_9  and  C_10 
ROOT
HETATM    1  O   UNK     0     183.885 186.219 171.569  0.00  0.00    -0.309 OA
HETATM    2  O   UNK     0     187.696 187.647 171.366  0.00  0.00    -0.287 OA
HETATM    3  C   UNK     0     185.472 187.768 170.577  0.00  0.00     0.081 A 
HETATM    4  C   UNK     0     184.191 187.234 170.698  0.00  0.00     0.095 A 
HETATM    5  C   UNK     0     184.900 185.698 172.358  0.00  0.00     0.090 A 
HETATM    6  C   UNK     0     186.549 187.224 171.418  0.00  0.00     0.190 A 
HETATM    7  C   UNK     0     186.170 186.131 172.338  0.00  0.00     0.094 A 
HETATM    8  C   UNK     0     185.724 188.801 169.672  0.00  0.00     0.085 A 
HETATM    9  C   UNK     0     183.151 187.732 169.913  0.00  0.00     0.075 A 
HETATM   10  C   UNK     0     183.398 188.765 169.008  0.00  0.00     0.071 A 
HETATM   11  C   UNK     0     184.682 189.297 168.888  0.00  0.00     0.074 A 
ENDROOT
BRANCH   5  12
HETATM   12  C   UNK     0     184.462 184.617 173.262  0.00  0.00     0.001 A 
HETATM   13  C   UNK     0     185.403 183.892 173.998  0.00  0.00     0.053 A 
HETATM   14  C   UNK     0     184.990 182.871 174.852  0.00  0.00     0.099 A 
HETATM   15  C   UNK     0     183.633 182.569 174.974  0.00  0.00     0.098 A 
HETATM   16  C   UNK     0     182.691 183.289 174.240  0.00  0.00     0.040 A 
HETATM   17  C   UNK     0     183.105 184.311 173.385  0.00  0.00     0.017 A 
BRANCH  14  18
HETATM   18  O   UNK     0     185.920 182.173 175.563  0.00  0.00    -0.358 OA
HETATM   19  H   UNK     0     185.510 181.348 175.875  0.00  0.00     0.217 HD
ENDBRANCH  14  18
BRANCH  15  20
HETATM   20  O   UNK     0     183.217 181.574 175.805  0.00  0.00    -0.358 OA
HETATM   21  H   UNK     0     183.246 180.728 175.326  0.00  0.00     0.217 HD
ENDBRANCH  15  20
ENDBRANCH   5  12
BRANCH   8  22
HETATM   22  O   UNK     0     186.958 189.356 169.517  0.00  0.00    -0.360 OA
HETATM   23  H   UNK     0     187.297 189.188 168.624  0.00  0.00     0.217 HD
ENDBRANCH   8  22
BRANCH  10  24
HETATM   24  O   UNK     0     182.385 189.254 168.241  0.00  0.00    -0.361 OA
HETATM   25  H   UNK     0     182.765 189.755 167.499  0.00  0.00     0.217 HD
ENDBRANCH  10  24
TORSDOF 5
ENDMDL
MODEL 7
REMARK VINA RESULT:      -6.5     13.193     15.304
REMARK  5 active torsions:
REMARK  status: ('A' for Active; 'I' for Inactive)
REMARK    1  A    between atoms: O_2  and  C_13 
REMARK    2  A    between atoms: O_4  and  C_16 
REMARK    3  A    between atoms: O_5  and  C_19 
REMARK    4  A    between atoms: O_6  and  C_21 
REMARK    5  A    between atoms: C_9  and  C_10 
ROOT
HETATM    1  O   UNK     0     176.679 170.679 175.341  0.00  0.00    -0.309 OA
HETATM    2  O   UNK     0     174.359 167.571 174.095  0.00  0.00    -0.287 OA
HETATM    3  C   UNK     0     175.394 169.628 173.568  0.00  0.00     0.081 A 
HETATM    4  C   UNK     0     176.193 170.659 174.058  0.00  0.00     0.095 A 
HETATM    5  C   UNK     0     176.353 169.630 176.187  0.00  0.00     0.090 A 
HETATM    6  C   UNK     0     175.053 168.509 174.460  0.00  0.00     0.190 A 
HETATM    7  C   UNK     0     175.598 168.579 175.831  0.00  0.00     0.094 A 
HETATM    8  C   UNK     0     174.928 169.661 172.252  0.00  0.00     0.085 A 
HETATM    9  C   UNK     0     176.532 171.731 173.233  0.00  0.00     0.075 A 
HETATM   10  C   UNK     0     176.069 171.767 171.917  0.00  0.00     0.071 A 
HETATM   11  C   UNK     0     175.268 170.735 171.428  0.00  0.00     0.074 A 
ENDROOT
BRANCH   5  12
HETATM   12  C   UNK     0     176.932 169.748 177.540  0.00  0.00     0.001 A 
HETATM   13  C   UNK     0     177.983 168.915 177.930  0.00  0.00     0.053 A 
HETATM   14  C   UNK     0     178.530 169.027 179.208  0.00  0.00     0.099 A 
HETATM   15  C   UNK     0     178.027 169.973 180.101  0.00  0.00     0.098 A 
HETATM   16  C   UNK     0     176.976 170.806 179.717  0.00  0.00     0.040 A 
HETATM   17  C   UNK     0     176.430 170.694 178.438  0.00  0.00     0.017 A 
BRANCH  14  18
HETATM   18  O   UNK     0     179.555 168.207 179.573  0.00  0.00    -0.358 OA
HETATM   19  H   UNK     0     180.355 168.748 179.683  0.00  0.00     0.217 HD
ENDBRANCH  14  18
BRANCH  15  20
HETATM   20  O   UNK     0     178.553 170.092 181.352  0.00  0.00    -0.358 OA
HETATM   21  H   UNK     0     178.088 170.804 181.824  0.00  0.00     0.217 HD
ENDBRANCH  15  20
ENDBRANCH   5  12
BRANCH   8  22
HETATM   22  O   UNK     0     174.144 168.678 171.726  0.00  0.00    -0.360 OA
HETATM   23  H   UNK     0     173.560 169.039 171.041  0.00  0.00     0.217 HD
ENDBRANCH   8  22
BRANCH  10  24
HETATM   24  O   UNK     0     176.399 172.812 171.109  0.00  0.00    -0.361 OA
HETATM   25  H   UNK     0     175.615 173.374 170.983  0.00  0.00     0.217 HD
ENDBRANCH  10  24
TORSDOF 5
ENDMDL
MODEL 8
REMARK VINA RESULT:      -6.5      5.041      9.906
REMARK  5 active torsions:
REMARK  status: ('A' for Active; 'I' for Inactive)
REMARK    1  A    between atoms: O_2  and  C_13 
REMARK    2  A    between atoms: O_4  and  C_16 
REMARK    3  A    between atoms: O_5  and  C_19 
REMARK    4  A    between atoms: O_6  and  C_21 
REMARK    5  A    between atoms: C_9  and  C_10 
ROOT
HETATM    1  O   UNK     0     179.526 177.593 170.999  0.00  0.00    -0.309 OA
HETATM    2  O   UNK     0     181.877 174.798 169.196  0.00  0.00    -0.287 OA
HETATM    3  C   UNK     0     181.751 176.729 170.551  0.00  0.00     0.081 A 
HETATM    4  C   UNK     0     180.889 177.651 171.140  0.00  0.00     0.095 A 
HETATM    5  C   UNK     0     178.984 176.576 170.228  0.00  0.00     0.090 A 
HETATM    6  C   UNK     0     181.180 175.642 169.739  0.00  0.00     0.190 A 
HETATM    7  C   UNK     0     179.708 175.625 169.615  0.00  0.00     0.094 A 
HETATM    8  C   UNK     0     183.132 176.838 170.730  0.00  0.00     0.085 A 
HETATM    9  C   UNK     0     181.404 178.690 171.916  0.00  0.00     0.075 A 
HETATM   10  C   UNK     0     182.783 178.802 172.097  0.00  0.00     0.071 A 
HETATM   11  C   UNK     0     183.644 177.878 171.506  0.00  0.00     0.074 A 
ENDROOT
BRANCH   5  12
HETATM   12  C   UNK     0     177.511 176.603 170.146  0.00  0.00     0.001 A 
HETATM   13  C   UNK     0     176.791 177.623 170.775  0.00  0.00     0.053 A 
HETATM   14  C   UNK     0     175.399 177.648 170.698  0.00  0.00     0.099 A 
HETATM   15  C   UNK     0     174.721 176.654 169.992  0.00  0.00     0.098 A 
HETATM   16  C   UNK     0     175.435 175.635 169.364  0.00  0.00     0.040 A 
HETATM   17  C   UNK     0     176.828 175.609 169.441  0.00  0.00     0.017 A 
BRANCH  14  18
HETATM   18  O   UNK     0     174.711 178.649 171.316  0.00  0.00    -0.358 OA
HETATM   19  H   UNK     0     174.515 178.367 172.226  0.00  0.00     0.217 HD
ENDBRANCH  14  18
BRANCH  15  20
HETATM   20  O   UNK     0     173.362 176.669 169.909  0.00  0.00    -0.358 OA
HETATM   21  H   UNK     0     173.082 177.473 169.438  0.00  0.00     0.217 HD
ENDBRANCH  15  20
ENDBRANCH   5  12
BRANCH   8  22
HETATM   22  O   UNK     0     184.015 175.962 170.175  0.00  0.00    -0.360 OA
HETATM   23  H   UNK     0     184.906 176.108 170.527  0.00  0.00     0.217 HD
ENDBRANCH   8  22
BRANCH  10  24
HETATM   24  O   UNK     0     183.289 179.815 172.854  0.00  0.00    -0.361 OA
HETATM   25  H   UNK     0     183.359 180.615 172.305  0.00  0.00     0.217 HD
ENDBRANCH  10  24
TORSDOF 5
ENDMDL
MODEL 9
REMARK VINA RESULT:      -6.5      1.599      6.806
REMARK  5 active torsions:
REMARK  status: ('A' for Active; 'I' for Inactive)
REMARK    1  A    between atoms: O_2  and  C_13 
REMARK    2  A    between atoms: O_4  and  C_16 
REMARK    3  A    between atoms: O_5  and  C_19 
REMARK    4  A    between atoms: O_6  and  C_21 
REMARK    5  A    between atoms: C_9  and  C_10 
ROOT
HETATM    1  O   UNK     0     184.477 183.300 172.477  0.00  0.00    -0.309 OA
HETATM    2  O   UNK     0     184.431 185.598 175.841  0.00  0.00    -0.287 OA
HETATM    3  C   UNK     0     185.546 184.998 173.847  0.00  0.00     0.081 A 
HETATM    4  C   UNK     0     185.499 184.184 172.717  0.00  0.00     0.095 A 
HETATM    5  C   UNK     0     183.451 183.210 173.406  0.00  0.00     0.090 A 
HETATM    6  C   UNK     0     184.455 184.912 174.830  0.00  0.00     0.190 A 
HETATM    7  C   UNK     0     183.380 183.944 174.528  0.00  0.00     0.094 A 
HETATM    8  C   UNK     0     186.613 185.880 174.038  0.00  0.00     0.085 A 
HETATM    9  C   UNK     0     186.520 184.247 171.769  0.00  0.00     0.075 A 
HETATM   10  C   UNK     0     187.586 185.126 171.956  0.00  0.00     0.071 A 
HETATM   11  C   UNK     0     187.633 185.940 173.088  0.00  0.00     0.074 A 
ENDROOT
BRANCH   5  12
HETATM   12  C   UNK     0     182.402 182.235 173.049  0.00  0.00     0.001 A 
HETATM   13  C   UNK     0     182.711 180.877 172.945  0.00  0.00     0.053 A 
HETATM   14  C   UNK     0     181.720 179.956 172.607  0.00  0.00     0.099 A 
HETATM   15  C   UNK     0     180.415 180.390 172.372  0.00  0.00     0.098 A 
HETATM   16  C   UNK     0     180.103 181.745 172.473  0.00  0.00     0.040 A 
HETATM   17  C   UNK     0     181.094 182.666 172.811  0.00  0.00     0.017 A 
BRANCH  14  18
HETATM   18  O   UNK     0     182.037 178.634 172.510  0.00  0.00    -0.358 OA
HETATM   19  H   UNK     0     182.572 178.506 171.707  0.00  0.00     0.217 HD
ENDBRANCH  14  18
BRANCH  15  20
HETATM   20  O   UNK     0     179.439 179.500 172.042  0.00  0.00    -0.358 OA
HETATM   21  H   UNK     0     178.577 179.860 172.313  0.00  0.00     0.217 HD
ENDBRANCH  15  20
ENDBRANCH   5  12
BRANCH   8  22
HETATM   22  O   UNK     0     186.704 186.696 175.125  0.00  0.00    -0.360 OA
HETATM   23  H   UNK     0     186.445 187.601 174.893  0.00  0.00     0.217 HD
ENDBRANCH   8  22
BRANCH  10  24
HETATM   24  O   UNK     0     188.585 185.191 171.032  0.00  0.00    -0.361 OA
HETATM   25  H   UNK     0     189.407 184.858 171.431  0.00  0.00     0.217 HD
ENDBRANCH  10  24
TORSDOF 5
ENDMDL
MODEL 10
REMARK VINA RESULT:      -6.5      6.480     11.755
REMARK  5 active torsions:
REMARK  status: ('A' for Active; 'I' for Inactive)
REMARK    1  A    between atoms: O_2  and  C_13 
REMARK    2  A    between atoms: O_4  and  C_16 
REMARK    3  A    between atoms: O_5  and  C_19 
REMARK    4  A    between atoms: O_6  and  C_21 
REMARK    5  A    between atoms: C_9  and  C_10 
ROOT
HETATM    1  O   UNK     0     178.384 175.626 170.689  0.00  0.00    -0.309 OA
HETATM    2  O   UNK     0     181.413 172.963 170.117  0.00  0.00    -0.287 OA
HETATM    3  C   UNK     0     180.722 175.044 170.996  0.00  0.00     0.081 A 
HETATM    4  C   UNK     0     179.642 175.909 171.158  0.00  0.00     0.095 A 
HETATM    5  C   UNK     0     178.183 174.430 170.017  0.00  0.00     0.090 A 
HETATM    6  C   UNK     0     180.511 173.769 170.292  0.00  0.00     0.190 A 
HETATM    7  C   UNK     0     179.140 173.513 169.804  0.00  0.00     0.094 A 
HETATM    8  C   UNK     0     181.981 175.384 171.496  0.00  0.00     0.085 A 
HETATM    9  C   UNK     0     179.814 177.123 171.823  0.00  0.00     0.075 A 
HETATM   10  C   UNK     0     181.070 177.466 172.325  0.00  0.00     0.071 A 
HETATM   11  C   UNK     0     182.151 176.599 172.161  0.00  0.00     0.074 A 
ENDROOT
BRANCH   5  12
HETATM   12  C   UNK     0     176.795 174.224 169.560  0.00  0.00     0.001 A 
HETATM   13  C   UNK     0     175.856 175.251 169.680  0.00  0.00     0.053 A 
HETATM   14  C   UNK     0     174.544 175.056 169.248  0.00  0.00     0.099 A 
HETATM   15  C   UNK     0     174.167 173.833 168.694  0.00  0.00     0.098 A 
HETATM   16  C   UNK     0     175.100 172.804 168.574  0.00  0.00     0.040 A 
HETATM   17  C   UNK     0     176.413 173.000 169.006  0.00  0.00     0.017 A 
BRANCH  14  18
HETATM   18  O   UNK     0     173.640 176.068 169.372  0.00  0.00    -0.358 OA
HETATM   19  H   UNK     0     172.978 175.974 168.666  0.00  0.00     0.217 HD
ENDBRANCH  14  18
BRANCH  15  20
HETATM   20  O   UNK     0     172.889 173.631 168.268  0.00  0.00    -0.358 OA
HETATM   21  H   UNK     0     172.312 173.515 169.042  0.00  0.00     0.217 HD
ENDBRANCH  15  20
ENDBRANCH   5  12
BRANCH   8  22
HETATM   22  O   UNK     0     183.067 174.573 171.363  0.00  0.00    -0.360 OA
HETATM   23  H   UNK     0     182.793 173.645 171.298  0.00  0.00     0.217 HD
ENDBRANCH   8  22
BRANCH  10  24
HETATM   24  O   UNK     0     181.242 178.651 172.975  0.00  0.00    -0.361 OA
HETATM   25  H   UNK     0     180.570 178.727 173.674  0.00  0.00     0.217 HD
ENDBRANCH  10  24
TORSDOF 5
ENDMDL
