REMARK VINA RESULT:      -6.7      3.318      8.614
REMARK  5 active torsions:
REMARK  status: ('A' for Active; 'I' for Inactive)
REMARK    1  A    between atoms: O_2  and  C_13 
REMARK    2  A    between atoms: O_4  and  C_16 
REMARK    3  A    between atoms: O_5  and  C_19 
REMARK    4  A    between atoms: O_6  and  C_21 
REMARK    5  A    between atoms: C_9  and  C_10 
ROOT
HETATM    1  O   UNK     0     179.253 181.075 172.322  0.00  0.00    -0.309 OA
HETATM    2  O   UNK     0     182.605 178.771 172.545  0.00  0.00    -0.287 OA
HETATM    3  C   UNK     0     181.652 180.928 172.679  0.00  0.00     0.081 A 
HETATM    4  C   UNK     0     180.467 181.656 172.590  0.00  0.00     0.095 A 
HETATM    5  C   UNK     0     179.207 179.703 172.123  0.00  0.00     0.090 A 
HETATM    6  C   UNK     0     181.606 179.471 172.478  0.00  0.00     0.190 A 
HETATM    7  C   UNK     0     180.276 178.894 172.190  0.00  0.00     0.094 A 
HETATM    8  C   UNK     0     182.858 181.574 172.955  0.00  0.00     0.085 A 
HETATM    9  C   UNK     0     180.482 183.038 172.778  0.00  0.00     0.075 A 
HETATM   10  C   UNK     0     181.686 183.687 173.054  0.00  0.00     0.071 A 
HETATM   11  C   UNK     0     182.871 182.956 173.143  0.00  0.00     0.074 A 
ENDROOT
BRANCH   5  12
HETATM   12  C   UNK     0     177.854 179.182 171.848  0.00  0.00     0.001 A 
HETATM   13  C   UNK     0     177.141 179.632 170.735  0.00  0.00     0.053 A 
HETATM   14  C   UNK     0     175.863 179.139 170.474  0.00  0.00     0.099 A 
HETATM   15  C   UNK     0     175.293 178.193 171.326  0.00  0.00     0.098 A 
HETATM   16  C   UNK     0     176.001 177.741 172.439  0.00  0.00     0.040 A 
HETATM   17  C   UNK     0     177.280 178.234 172.700  0.00  0.00     0.017 A 
BRANCH  14  18
HETATM   18  O   UNK     0     175.179 179.589 169.385  0.00  0.00    -0.358 OA
HETATM   19  H   UNK     0     174.457 180.163 169.692  0.00  0.00     0.217 HD
ENDBRANCH  14  18
BRANCH  15  20
HETATM   20  O   UNK     0     174.046 177.704 171.082  0.00  0.00    -0.358 OA
HETATM   21  H   UNK     0     173.491 177.844 171.868  0.00  0.00     0.217 HD
ENDBRANCH  15  20
ENDBRANCH   5  12
BRANCH   8  22
HETATM   22  O   UNK     0     184.042 180.906 173.053  0.00  0.00    -0.360 OA
HETATM   23  H   UNK     0     184.785 181.530 173.049  0.00  0.00     0.217 HD
ENDBRANCH   8  22
BRANCH  10  24
HETATM   24  O   UNK     0     181.704 185.036 173.239  0.00  0.00    -0.361 OA
HETATM   25  H   UNK     0     180.792 185.352 173.351  0.00  0.00     0.217 HD
ENDBRANCH  10  24
TORSDOF 5
