REMARK VINA RESULT:      -6.9      0.000      0.000
REMARK  5 active torsions:
REMARK  status: ('A' for Active; 'I' for Inactive)
REMARK    1  A    between atoms: O_2  and  C_13 
REMARK    2  A    between atoms: O_4  and  C_16 
REMARK    3  A    between atoms: O_5  and  C_19 
REMARK    4  A    between atoms: O_6  and  C_21 
REMARK    5  A    between atoms: C_9  and  C_10 
ROOT
HETATM    1  O   UNK     0     184.026 181.884 172.819  0.00  0.00    -0.309 OA
HETATM    2  O   UNK     0     180.005 182.443 173.159  0.00  0.00    -0.287 OA
HETATM    3  C   UNK     0     181.782 180.968 172.658  0.00  0.00     0.081 A 
HETATM    4  C   UNK     0     183.166 180.846 172.562  0.00  0.00     0.095 A 
HETATM    5  C   UNK     0     183.490 183.111 173.181  0.00  0.00     0.090 A 
HETATM    6  C   UNK     0     181.210 182.265 173.052  0.00  0.00     0.190 A 
HETATM    7  C   UNK     0     182.176 183.352 173.314  0.00  0.00     0.094 A 
HETATM    8  C   UNK     0     180.956 179.876 172.386  0.00  0.00     0.085 A 
HETATM    9  C   UNK     0     183.735 179.627 172.193  0.00  0.00     0.075 A 
HETATM   10  C   UNK     0     182.913 178.533 171.920  0.00  0.00     0.071 A 
HETATM   11  C   UNK     0     181.527 178.658 172.016  0.00  0.00     0.074 A 
ENDROOT
BRANCH   5  12
HETATM   12  C   UNK     0     184.501 184.155 173.439  0.00  0.00     0.001 A 
HETATM   13  C   UNK     0     185.851 183.814 173.549  0.00  0.00     0.053 A 
HETATM   14  C   UNK     0     186.806 184.800 173.793  0.00  0.00     0.099 A 
HETATM   15  C   UNK     0     186.415 186.132 173.927  0.00  0.00     0.098 A 
HETATM   16  C   UNK     0     185.068 186.477 173.819  0.00  0.00     0.040 A 
HETATM   17  C   UNK     0     184.112 185.490 173.575  0.00  0.00     0.017 A 
BRANCH  14  18
HETATM   18  O   UNK     0     188.119 184.451 173.899  0.00  0.00    -0.358 OA
HETATM   19  H   UNK     0     188.294 183.725 173.276  0.00  0.00     0.217 HD
ENDBRANCH  14  18
BRANCH  15  20
HETATM   20  O   UNK     0     187.338 187.105 174.164  0.00  0.00    -0.358 OA
HETATM   21  H   UNK     0     187.905 186.829 174.904  0.00  0.00     0.217 HD
ENDBRANCH  15  20
ENDBRANCH   5  12
BRANCH   8  22
HETATM   22  O   UNK     0     179.598 179.945 172.466  0.00  0.00    -0.360 OA
HETATM   23  H   UNK     0     179.217 179.058 172.558  0.00  0.00     0.217 HD
ENDBRANCH   8  22
BRANCH  10  24
HETATM   24  O   UNK     0     183.465 177.341 171.559  0.00  0.00    -0.361 OA
HETATM   25  H   UNK     0     183.220 177.146 170.639  0.00  0.00     0.217 HD
ENDBRANCH  10  24
TORSDOF 5
