MODEL 1
REMARK VINA RESULT:      -8.8      0.000      0.000
REMARK  6 active torsions:
REMARK  status: ('A' for Active; 'I' for Inactive)
REMARK    1  A    between atoms: O_2  and  C_9 
REMARK    2  A    between atoms: O_4  and  C_14 
REMARK    3  A    between atoms: O_5  and  C_19 
REMARK    4  A    between atoms: O_6  and  C_20 
REMARK    5  A    between atoms: O_7  and  C_22 
REMARK    6  A    between atoms: C_8  and  C_10 
ROOT
HETATM    1  O   UNK     0     187.751 176.933 179.322  0.00  0.00    -0.337 OA
HETATM    2  O   UNK     0     189.086 173.655 177.244  0.00  0.00    -0.289 OA
HETATM    3  C   UNK     0     187.050 176.446 178.168  0.00  0.00     0.198 C 
HETATM    4  C   UNK     0     187.193 174.930 178.030  0.00  0.00     0.227 C 
HETATM    5  C   UNK     0     188.663 174.589 177.916  0.00  0.00     0.196 C 
HETATM    6  C   UNK     0     189.577 175.438 178.704  0.00  0.00     0.079 A 
HETATM    7  C   UNK     0     189.065 176.551 179.375  0.00  0.00     0.089 A 
HETATM    8  C   UNK     0     190.933 175.116 178.803  0.00  0.00     0.085 A 
HETATM    9  C   UNK     0     189.908 177.324 180.175  0.00  0.00     0.074 A 
HETATM   10  C   UNK     0     191.774 175.903 179.589  0.00  0.00     0.074 A 
HETATM   11  C   UNK     0     191.262 177.003 180.278  0.00  0.00     0.071 A 
ENDROOT
BRANCH   3  12
HETATM   12  C   UNK     0     185.599 176.864 178.315  0.00  0.00    -0.023 A 
HETATM   13  C   UNK     0     184.970 177.562 177.286  0.00  0.00     0.049 A 
HETATM   14  C   UNK     0     183.636 177.947 177.420  0.00  0.00     0.099 A 
HETATM   15  C   UNK     0     182.934 177.632 178.584  0.00  0.00     0.098 A 
HETATM   16  C   UNK     0     183.565 176.932 179.612  0.00  0.00     0.040 A 
HETATM   17  C   UNK     0     184.899 176.548 179.478  0.00  0.00     0.013 A 
BRANCH  14  18
HETATM   18  O   UNK     0     183.029 178.629 176.410  0.00  0.00    -0.358 OA
HETATM   19  H   UNK     0     182.298 178.085 176.070  0.00  0.00     0.217 HD
ENDBRANCH  14  18
BRANCH  15  20
HETATM   20  O   UNK     0     181.629 178.001 178.727  0.00  0.00    -0.358 OA
HETATM   21  H   UNK     0     181.080 177.457 178.136  0.00  0.00     0.217 HD
ENDBRANCH  15  20
ENDBRANCH   3  12
BRANCH   4  22
HETATM   22  O   UNK     0     186.543 174.482 176.853  0.00  0.00    -0.385 OA
HETATM   23  H   UNK     0     186.661 175.168 176.174  0.00  0.00     0.210 HD
ENDBRANCH   4  22
BRANCH   8  24
HETATM   24  O   UNK     0     191.484 174.044 178.167  0.00  0.00    -0.360 OA
HETATM   25  H   UNK     0     190.853 173.655 177.543  0.00  0.00     0.217 HD
ENDBRANCH   8  24
BRANCH  11  26
HETATM   26  O   UNK     0     192.084 177.764 181.051  0.00  0.00    -0.361 OA
HETATM   27  H   UNK     0     191.869 177.612 181.987  0.00  0.00     0.217 HD
ENDBRANCH  11  26
TORSDOF 6
ENDMDL
MODEL 2
REMARK VINA RESULT:      -8.7      1.873      7.141
REMARK  6 active torsions:
REMARK  status: ('A' for Active; 'I' for Inactive)
REMARK    1  A    between atoms: O_2  and  C_9 
REMARK    2  A    between atoms: O_4  and  C_14 
REMARK    3  A    between atoms: O_5  and  C_19 
REMARK    4  A    between atoms: O_6  and  C_20 
REMARK    5  A    between atoms: O_7  and  C_22 
REMARK    6  A    between atoms: C_8  and  C_10 
ROOT
HETATM    1  O   UNK     0     186.106 176.731 178.006  0.00  0.00    -0.337 OA
HETATM    2  O   UNK     0     184.764 177.716 181.758  0.00  0.00    -0.289 OA
HETATM    3  C   UNK     0     187.017 176.897 179.104  0.00  0.00     0.198 C 
HETATM    4  C   UNK     0     186.368 176.495 180.429  0.00  0.00     0.227 C 
HETATM    5  C   UNK     0     185.141 177.354 180.650  0.00  0.00     0.196 C 
HETATM    6  C   UNK     0     184.386 177.710 179.432  0.00  0.00     0.079 A 
HETATM    7  C   UNK     0     184.904 177.364 178.183  0.00  0.00     0.089 A 
HETATM    8  C   UNK     0     183.153 178.360 179.530  0.00  0.00     0.085 A 
HETATM    9  C   UNK     0     184.168 177.638 177.029  0.00  0.00     0.074 A 
HETATM   10  C   UNK     0     182.431 178.648 178.372  0.00  0.00     0.074 A 
HETATM   11  C   UNK     0     182.935 178.284 177.124  0.00  0.00     0.071 A 
ENDROOT
BRANCH   3  12
HETATM   12  C   UNK     0     188.243 176.057 178.801  0.00  0.00    -0.023 A 
HETATM   13  C   UNK     0     188.234 174.691 179.076  0.00  0.00     0.049 A 
HETATM   14  C   UNK     0     189.361 173.918 178.798  0.00  0.00     0.099 A 
HETATM   15  C   UNK     0     190.495 174.513 178.246  0.00  0.00     0.098 A 
HETATM   16  C   UNK     0     190.502 175.881 177.970  0.00  0.00     0.040 A 
HETATM   17  C   UNK     0     189.375 176.653 178.249  0.00  0.00     0.013 A 
BRANCH  14  18
HETATM   18  O   UNK     0     189.343 172.584 179.070  0.00  0.00    -0.358 OA
HETATM   19  H   UNK     0     189.386 172.467 180.035  0.00  0.00     0.217 HD
ENDBRANCH  14  18
BRANCH  15  20
HETATM   20  O   UNK     0     191.602 173.768 177.968  0.00  0.00    -0.358 OA
HETATM   21  H   UNK     0     192.284 174.346 177.583  0.00  0.00     0.217 HD
ENDBRANCH  15  20
ENDBRANCH   3  12
BRANCH   4  22
HETATM   22  O   UNK     0     187.265 176.724 181.502  0.00  0.00    -0.385 OA
HETATM   23  H   UNK     0     187.864 177.441 181.236  0.00  0.00     0.210 HD
ENDBRANCH   4  22
BRANCH   8  24
HETATM   24  O   UNK     0     182.604 178.723 180.723  0.00  0.00    -0.360 OA
HETATM   25  H   UNK     0     183.242 178.607 181.443  0.00  0.00     0.217 HD
ENDBRANCH   8  24
BRANCH  11  26
HETATM   26  O   UNK     0     182.224 178.559 175.996  0.00  0.00    -0.361 OA
HETATM   27  H   UNK     0     181.486 177.929 175.926  0.00  0.00     0.217 HD
ENDBRANCH  11  26
TORSDOF 6
ENDMDL
MODEL 3
REMARK VINA RESULT:      -8.4      1.496      3.146
REMARK  6 active torsions:
REMARK  status: ('A' for Active; 'I' for Inactive)
REMARK    1  A    between atoms: O_2  and  C_9 
REMARK    2  A    between atoms: O_4  and  C_14 
REMARK    3  A    between atoms: O_5  and  C_19 
REMARK    4  A    between atoms: O_6  and  C_20 
REMARK    5  A    between atoms: O_7  and  C_22 
REMARK    6  A    between atoms: C_8  and  C_10 
ROOT
HETATM    1  O   UNK     0     187.657 176.134 179.187  0.00  0.00    -0.337 OA
HETATM    2  O   UNK     0     189.807 178.414 181.837  0.00  0.00    -0.289 OA
HETATM    3  C   UNK     0     187.020 176.788 180.295  0.00  0.00     0.198 C 
HETATM    4  C   UNK     0     187.729 178.095 180.650  0.00  0.00     0.227 C 
HETATM    5  C   UNK     0     189.169 177.788 180.998  0.00  0.00     0.196 C 
HETATM    6  C   UNK     0     189.791 176.692 180.228  0.00  0.00     0.079 A 
HETATM    7  C   UNK     0     189.002 175.940 179.356  0.00  0.00     0.089 A 
HETATM    8  C   UNK     0     191.158 176.430 180.349  0.00  0.00     0.085 A 
HETATM    9  C   UNK     0     189.591 174.944 178.575  0.00  0.00     0.074 A 
HETATM   10  C   UNK     0     191.737 175.420 179.581  0.00  0.00     0.074 A 
HETATM   11  C   UNK     0     190.956 174.682 178.691  0.00  0.00     0.071 A 
ENDROOT
BRANCH   3  12
HETATM   12  C   UNK     0     185.572 177.021 179.908  0.00  0.00    -0.023 A 
HETATM   13  C   UNK     0     185.181 178.256 179.396  0.00  0.00     0.049 A 
HETATM   14  C   UNK     0     183.849 178.471 179.039  0.00  0.00     0.099 A 
HETATM   15  C   UNK     0     182.912 177.450 179.198  0.00  0.00     0.098 A 
HETATM   16  C   UNK     0     183.306 176.214 179.711  0.00  0.00     0.040 A 
HETATM   17  C   UNK     0     184.637 176.000 180.067  0.00  0.00     0.013 A 
BRANCH  14  18
HETATM   18  O   UNK     0     183.476 179.681 178.538  0.00  0.00    -0.358 OA
HETATM   19  H   UNK     0     182.837 180.082 179.152  0.00  0.00     0.217 HD
ENDBRANCH  14  18
BRANCH  15  20
HETATM   20  O   UNK     0     181.608 177.647 178.852  0.00  0.00    -0.358 OA
HETATM   21  H   UNK     0     181.329 178.527 179.158  0.00  0.00     0.217 HD
ENDBRANCH  15  20
ENDBRANCH   3  12
BRANCH   4  22
HETATM   22  O   UNK     0     187.119 178.691 181.783  0.00  0.00    -0.385 OA
HETATM   23  H   UNK     0     186.651 179.486 181.480  0.00  0.00     0.210 HD
ENDBRANCH   4  22
BRANCH   8  24
HETATM   24  O   UNK     0     191.971 177.131 181.188  0.00  0.00    -0.360 OA
HETATM   25  H   UNK     0     191.619 178.020 181.343  0.00  0.00     0.217 HD
ENDBRANCH   8  24
BRANCH  11  26
HETATM   26  O   UNK     0     191.527 173.703 177.937  0.00  0.00    -0.361 OA
HETATM   27  H   UNK     0     191.479 172.861 178.423  0.00  0.00     0.217 HD
ENDBRANCH  11  26
TORSDOF 6
ENDMDL
MODEL 4
REMARK VINA RESULT:      -8.1      2.210      3.505
REMARK  6 active torsions:
REMARK  status: ('A' for Active; 'I' for Inactive)
REMARK    1  A    between atoms: O_2  and  C_9 
REMARK    2  A    between atoms: O_4  and  C_14 
REMARK    3  A    between atoms: O_5  and  C_19 
REMARK    4  A    between atoms: O_6  and  C_20 
REMARK    5  A    between atoms: O_7  and  C_22 
REMARK    6  A    between atoms: C_8  and  C_10 
ROOT
HETATM    1  O   UNK     0     186.534 175.320 179.185  0.00  0.00    -0.337 OA
HETATM    2  O   UNK     0     188.161 178.962 178.221  0.00  0.00    -0.289 OA
HETATM    3  C   UNK     0     186.091 176.527 179.825  0.00  0.00     0.198 C 
HETATM    4  C   UNK     0     186.196 177.726 178.882  0.00  0.00     0.227 C 
HETATM    5  C   UNK     0     187.637 177.878 178.447  0.00  0.00     0.196 C 
HETATM    6  C   UNK     0     188.385 176.617 178.269  0.00  0.00     0.079 A 
HETATM    7  C   UNK     0     187.784 175.411 178.634  0.00  0.00     0.089 A 
HETATM    8  C   UNK     0     189.669 176.628 177.716  0.00  0.00     0.085 A 
HETATM    9  C   UNK     0     188.456 174.208 178.411  0.00  0.00     0.074 A 
HETATM   10  C   UNK     0     190.343 175.425 177.514  0.00  0.00     0.074 A 
HETATM   11  C   UNK     0     189.736 174.216 177.855  0.00  0.00     0.071 A 
ENDROOT
BRANCH   3  12
HETATM   12  C   UNK     0     184.664 176.295 180.284  0.00  0.00    -0.023 A 
HETATM   13  C   UNK     0     183.692 175.913 179.362  0.00  0.00     0.049 A 
HETATM   14  C   UNK     0     182.379 175.700 179.783  0.00  0.00     0.099 A 
HETATM   15  C   UNK     0     182.042 175.870 181.125  0.00  0.00     0.098 A 
HETATM   16  C   UNK     0     183.017 176.252 182.047  0.00  0.00     0.040 A 
HETATM   17  C   UNK     0     184.329 176.465 181.626  0.00  0.00     0.013 A 
BRANCH  14  18
HETATM   18  O   UNK     0     181.436 175.326 178.874  0.00  0.00    -0.358 OA
HETATM   19  H   UNK     0     181.738 174.511 178.438  0.00  0.00     0.217 HD
ENDBRANCH  14  18
BRANCH  15  20
HETATM   20  O   UNK     0     180.763 175.663 181.550  0.00  0.00    -0.358 OA
HETATM   21  H   UNK     0     180.228 175.351 180.800  0.00  0.00     0.217 HD
ENDBRANCH  15  20
ENDBRANCH   3  12
BRANCH   4  22
HETATM   22  O   UNK     0     185.811 178.913 179.555  0.00  0.00    -0.385 OA
HETATM   23  H   UNK     0     185.035 179.273 179.093  0.00  0.00     0.210 HD
ENDBRANCH   4  22
BRANCH   8  24
HETATM   24  O   UNK     0     190.302 177.777 177.347  0.00  0.00    -0.360 OA
HETATM   25  H   UNK     0     190.815 177.640 176.536  0.00  0.00     0.217 HD
ENDBRANCH   8  24
BRANCH  11  26
HETATM   26  O   UNK     0     190.394 173.042 177.649  0.00  0.00    -0.361 OA
HETATM   27  H   UNK     0     189.798 172.304 177.861  0.00  0.00     0.217 HD
ENDBRANCH  11  26
TORSDOF 6
ENDMDL
MODEL 5
REMARK VINA RESULT:      -8.0     37.870     42.630
REMARK  6 active torsions:
REMARK  status: ('A' for Active; 'I' for Inactive)
REMARK    1  A    between atoms: O_2  and  C_9 
REMARK    2  A    between atoms: O_4  and  C_14 
REMARK    3  A    between atoms: O_5  and  C_19 
REMARK    4  A    between atoms: O_6  and  C_20 
REMARK    5  A    between atoms: O_7  and  C_22 
REMARK    6  A    between atoms: C_8  and  C_10 
ROOT
HETATM    1  O   UNK     0     154.071 187.993 155.775  0.00  0.00    -0.337 OA
HETATM    2  O   UNK     0     150.429 189.756 156.465  0.00  0.00    -0.289 OA
HETATM    3  C   UNK     0     153.659 188.358 157.101  0.00  0.00     0.198 C 
HETATM    4  C   UNK     0     152.142 188.252 157.259  0.00  0.00     0.227 C 
HETATM    5  C   UNK     0     151.482 189.166 156.250  0.00  0.00     0.196 C 
HETATM    6  C   UNK     0     152.172 189.284 154.951  0.00  0.00     0.079 A 
HETATM    7  C   UNK     0     153.419 188.677 154.784  0.00  0.00     0.089 A 
HETATM    8  C   UNK     0     151.573 189.970 153.891  0.00  0.00     0.085 A 
HETATM    9  C   UNK     0     154.051 188.727 153.540  0.00  0.00     0.074 A 
HETATM   10  C   UNK     0     152.218 190.033 152.657  0.00  0.00     0.074 A 
HETATM   11  C   UNK     0     153.453 189.408 152.479  0.00  0.00     0.071 A 
ENDROOT
BRANCH   3  12
HETATM   12  C   UNK     0     154.391 187.445 158.066  0.00  0.00    -0.023 A 
HETATM   13  C   UNK     0     154.556 186.097 157.755  0.00  0.00     0.049 A 
HETATM   14  C   UNK     0     155.229 185.255 158.642  0.00  0.00     0.099 A 
HETATM   15  C   UNK     0     155.734 185.765 159.838  0.00  0.00     0.098 A 
HETATM   16  C   UNK     0     155.568 187.116 160.147  0.00  0.00     0.040 A 
HETATM   17  C   UNK     0     154.895 187.955 159.260  0.00  0.00     0.013 A 
BRANCH  14  18
HETATM   18  O   UNK     0     155.386 183.940 158.330  0.00  0.00    -0.358 OA
HETATM   19  H   UNK     0     156.337 183.733 158.344  0.00  0.00     0.217 HD
ENDBRANCH  14  18
BRANCH  15  20
HETATM   20  O   UNK     0     156.394 184.954 160.712  0.00  0.00    -0.358 OA
HETATM   21  H   UNK     0     155.750 184.376 161.156  0.00  0.00     0.217 HD
ENDBRANCH  15  20
ENDBRANCH   3  12
BRANCH   4  22
HETATM   22  O   UNK     0     151.754 188.673 158.556  0.00  0.00    -0.385 OA
HETATM   23  H   UNK     0     151.546 189.621 158.506  0.00  0.00     0.210 HD
ENDBRANCH   4  22
BRANCH   8  24
HETATM   24  O   UNK     0     150.360 190.582 154.002  0.00  0.00    -0.360 OA
HETATM   25  H   UNK     0     150.029 190.846 153.130  0.00  0.00     0.217 HD
ENDBRANCH   8  24
BRANCH  11  26
HETATM   26  O   UNK     0     154.076 189.465 151.271  0.00  0.00    -0.361 OA
HETATM   27  H   UNK     0     153.675 188.807 150.677  0.00  0.00     0.217 HD
ENDBRANCH  11  26
TORSDOF 6
ENDMDL
MODEL 6
REMARK VINA RESULT:      -7.9     32.452     36.362
REMARK  6 active torsions:
REMARK  status: ('A' for Active; 'I' for Inactive)
REMARK    1  A    between atoms: O_2  and  C_9 
REMARK    2  A    between atoms: O_4  and  C_14 
REMARK    3  A    between atoms: O_5  and  C_19 
REMARK    4  A    between atoms: O_6  and  C_20 
REMARK    5  A    between atoms: O_7  and  C_22 
REMARK    6  A    between atoms: C_8  and  C_10 
ROOT
HETATM    1  O   UNK     0     158.746 188.112 159.811  0.00  0.00    -0.337 OA
HETATM    2  O   UNK     0     162.608 187.580 158.528  0.00  0.00    -0.289 OA
HETATM    3  C   UNK     0     159.120 188.365 158.448  0.00  0.00     0.198 C 
HETATM    4  C   UNK     0     160.255 187.442 158.004  0.00  0.00     0.227 C 
HETATM    5  C   UNK     0     161.446 187.667 158.910  0.00  0.00     0.196 C 
HETATM    6  C   UNK     0     161.127 187.967 160.320  0.00  0.00     0.079 A 
HETATM    7  C   UNK     0     159.794 188.156 160.691  0.00  0.00     0.089 A 
HETATM    8  C   UNK     0     162.143 188.032 161.277  0.00  0.00     0.085 A 
HETATM    9  C   UNK     0     159.474 188.376 162.032  0.00  0.00     0.074 A 
HETATM   10  C   UNK     0     161.818 188.271 162.612  0.00  0.00     0.074 A 
HETATM   11  C   UNK     0     160.486 188.438 162.990  0.00  0.00     0.071 A 
ENDROOT
BRANCH   3  12
HETATM   12  C   UNK     0     157.877 188.176 157.599  0.00  0.00    -0.023 A 
HETATM   13  C   UNK     0     157.302 186.913 157.481  0.00  0.00     0.049 A 
HETATM   14  C   UNK     0     156.159 186.738 156.700  0.00  0.00     0.099 A 
HETATM   15  C   UNK     0     155.595 187.828 156.038  0.00  0.00     0.098 A 
HETATM   16  C   UNK     0     156.172 189.093 156.157  0.00  0.00     0.040 A 
HETATM   17  C   UNK     0     157.314 189.267 156.938  0.00  0.00     0.013 A 
BRANCH  14  18
HETATM   18  O   UNK     0     155.604 185.499 156.592  0.00  0.00    -0.358 OA
HETATM   19  H   UNK     0     156.215 184.855 156.989  0.00  0.00     0.217 HD
ENDBRANCH  14  18
BRANCH  15  20
HETATM   20  O   UNK     0     154.478 187.671 155.273  0.00  0.00    -0.358 OA
HETATM   21  H   UNK     0     153.692 187.780 155.835  0.00  0.00     0.217 HD
ENDBRANCH  15  20
ENDBRANCH   3  12
BRANCH   4  22
HETATM   22  O   UNK     0     160.646 187.751 156.677  0.00  0.00    -0.385 OA
HETATM   23  H   UNK     0     160.050 187.273 156.077  0.00  0.00     0.210 HD
ENDBRANCH   4  22
BRANCH   8  24
HETATM   24  O   UNK     0     163.459 187.858 160.968  0.00  0.00    -0.360 OA
HETATM   25  H   UNK     0     163.583 187.828 160.007  0.00  0.00     0.217 HD
ENDBRANCH   8  24
BRANCH  11  26
HETATM   26  O   UNK     0     160.173 188.663 164.296  0.00  0.00    -0.361 OA
HETATM   27  H   UNK     0     160.838 188.230 164.859  0.00  0.00     0.217 HD
ENDBRANCH  11  26
TORSDOF 6
ENDMDL
MODEL 7
REMARK VINA RESULT:      -7.8     40.675     43.633
REMARK  6 active torsions:
REMARK  status: ('A' for Active; 'I' for Inactive)
REMARK    1  A    between atoms: O_2  and  C_9 
REMARK    2  A    between atoms: O_4  and  C_14 
REMARK    3  A    between atoms: O_5  and  C_19 
REMARK    4  A    between atoms: O_6  and  C_20 
REMARK    5  A    between atoms: O_7  and  C_22 
REMARK    6  A    between atoms: C_8  and  C_10 
ROOT
HETATM    1  O   UNK     0     154.166 175.377 151.011  0.00  0.00    -0.337 OA
HETATM    2  O   UNK     0     156.624 173.114 148.627  0.00  0.00    -0.289 OA
HETATM    3  C   UNK     0     153.630 174.487 150.019  0.00  0.00     0.198 C 
HETATM    4  C   UNK     0     154.532 173.268 149.822  0.00  0.00     0.227 C 
HETATM    5  C   UNK     0     155.904 173.743 149.393  0.00  0.00     0.196 C 
HETATM    6  C   UNK     0     156.352 175.017 149.990  0.00  0.00     0.079 A 
HETATM    7  C   UNK     0     155.462 175.751 150.777  0.00  0.00     0.089 A 
HETATM    8  C   UNK     0     157.660 175.468 149.794  0.00  0.00     0.085 A 
HETATM    9  C   UNK     0     155.894 176.924 151.399  0.00  0.00     0.074 A 
HETATM   10  C   UNK     0     158.080 176.650 150.402  0.00  0.00     0.074 A 
HETATM   11  C   UNK     0     157.201 177.375 151.208  0.00  0.00     0.071 A 
ENDROOT
BRANCH   3  12
HETATM   12  C   UNK     0     152.240 174.089 150.477  0.00  0.00    -0.023 A 
HETATM   13  C   UNK     0     152.071 173.437 151.697  0.00  0.00     0.049 A 
HETATM   14  C   UNK     0     150.793 173.070 152.119  0.00  0.00     0.099 A 
HETATM   15  C   UNK     0     149.686 173.356 151.319  0.00  0.00     0.098 A 
HETATM   16  C   UNK     0     149.857 174.009 150.098  0.00  0.00     0.040 A 
HETATM   17  C   UNK     0     151.135 174.375 149.677  0.00  0.00     0.013 A 
BRANCH  14  18
HETATM   18  O   UNK     0     150.638 172.434 153.313  0.00  0.00    -0.358 OA
HETATM   19  H   UNK     0     149.687 172.386 153.513  0.00  0.00     0.217 HD
ENDBRANCH  14  18
BRANCH  15  20
HETATM   20  O   UNK     0     148.432 173.004 151.721  0.00  0.00    -0.358 OA
HETATM   21  H   UNK     0     148.411 172.047 151.889  0.00  0.00     0.217 HD
ENDBRANCH  15  20
ENDBRANCH   3  12
BRANCH   4  22
HETATM   22  O   UNK     0     154.014 172.436 148.798  0.00  0.00    -0.385 OA
HETATM   23  H   UNK     0     154.143 171.514 149.076  0.00  0.00     0.210 HD
ENDBRANCH   4  22
BRANCH   8  24
HETATM   24  O   UNK     0     158.566 174.792 149.033  0.00  0.00    -0.360 OA
HETATM   25  H   UNK     0     159.139 174.243 149.590  0.00  0.00     0.217 HD
ENDBRANCH   8  24
BRANCH  11  26
HETATM   26  O   UNK     0     157.618 178.524 151.806  0.00  0.00    -0.361 OA
HETATM   27  H   UNK     0     157.860 178.330 152.728  0.00  0.00     0.217 HD
ENDBRANCH  11  26
TORSDOF 6
ENDMDL
MODEL 8
REMARK VINA RESULT:      -7.6     39.710     42.963
REMARK  6 active torsions:
REMARK  status: ('A' for Active; 'I' for Inactive)
REMARK    1  A    between atoms: O_2  and  C_9 
REMARK    2  A    between atoms: O_4  and  C_14 
REMARK    3  A    between atoms: O_5  and  C_19 
REMARK    4  A    between atoms: O_6  and  C_20 
REMARK    5  A    between atoms: O_7  and  C_22 
REMARK    6  A    between atoms: C_8  and  C_10 
ROOT
HETATM    1  O   UNK     0     152.065 198.935 167.910  0.00  0.00    -0.337 OA
HETATM    2  O   UNK     0     155.139 201.619 168.349  0.00  0.00    -0.289 OA
HETATM    3  C   UNK     0     153.376 198.657 167.396  0.00  0.00     0.198 C 
HETATM    4  C   UNK     0     154.459 199.304 168.259  0.00  0.00     0.227 C 
HETATM    5  C   UNK     0     154.229 200.800 168.288  0.00  0.00     0.196 C 
HETATM    6  C   UNK     0     152.817 201.227 168.274  0.00  0.00     0.079 A 
HETATM    7  C   UNK     0     151.816 200.268 168.102  0.00  0.00     0.089 A 
HETATM    8  C   UNK     0     152.482 202.571 168.461  0.00  0.00     0.085 A 
HETATM    9  C   UNK     0     150.475 200.651 168.152  0.00  0.00     0.074 A 
HETATM   10  C   UNK     0     151.141 202.950 168.490  0.00  0.00     0.074 A 
HETATM   11  C   UNK     0     150.138 201.992 168.341  0.00  0.00     0.071 A 
ENDROOT
BRANCH   3  12
HETATM   12  C   UNK     0     153.527 197.148 167.342  0.00  0.00    -0.023 A 
HETATM   13  C   UNK     0     153.598 196.502 166.110  0.00  0.00     0.049 A 
HETATM   14  C   UNK     0     153.736 195.114 166.059  0.00  0.00     0.099 A 
HETATM   15  C   UNK     0     153.802 194.377 167.241  0.00  0.00     0.098 A 
HETATM   16  C   UNK     0     153.731 195.027 168.474  0.00  0.00     0.040 A 
HETATM   17  C   UNK     0     153.593 196.413 168.524  0.00  0.00     0.013 A 
BRANCH  14  18
HETATM   18  O   UNK     0     153.805 194.491 164.850  0.00  0.00    -0.358 OA
HETATM   19  H   UNK     0     153.486 195.109 164.169  0.00  0.00     0.217 HD
ENDBRANCH  14  18
BRANCH  15  20
HETATM   20  O   UNK     0     153.938 193.022 167.205  0.00  0.00    -0.358 OA
HETATM   21  H   UNK     0     154.022 192.737 166.279  0.00  0.00     0.217 HD
ENDBRANCH  15  20
ENDBRANCH   3  12
BRANCH   4  22
HETATM   22  O   UNK     0     155.740 199.065 167.699  0.00  0.00    -0.385 OA
HETATM   23  H   UNK     0     156.395 199.498 168.272  0.00  0.00     0.210 HD
ENDBRANCH   4  22
BRANCH   8  24
HETATM   24  O   UNK     0     153.419 203.546 168.629  0.00  0.00    -0.360 OA
HETATM   25  H   UNK     0     153.456 204.124 167.852  0.00  0.00     0.217 HD
ENDBRANCH   8  24
BRANCH  11  26
HETATM   26  O   UNK     0     148.830 202.366 168.379  0.00  0.00    -0.361 OA
HETATM   27  H   UNK     0     148.346 201.764 168.971  0.00  0.00     0.217 HD
ENDBRANCH  11  26
TORSDOF 6
ENDMDL
MODEL 9
REMARK VINA RESULT:      -7.6     37.391     42.167
REMARK  6 active torsions:
REMARK  status: ('A' for Active; 'I' for Inactive)
REMARK    1  A    between atoms: O_2  and  C_9 
REMARK    2  A    between atoms: O_4  and  C_14 
REMARK    3  A    between atoms: O_5  and  C_19 
REMARK    4  A    between atoms: O_6  and  C_20 
REMARK    5  A    between atoms: O_7  and  C_22 
REMARK    6  A    between atoms: C_8  and  C_10 
ROOT
HETATM    1  O   UNK     0     152.822 187.855 157.325  0.00  0.00    -0.337 OA
HETATM    2  O   UNK     0     154.731 189.061 153.898  0.00  0.00    -0.289 OA
HETATM    3  C   UNK     0     154.026 187.212 156.876  0.00  0.00     0.198 C 
HETATM    4  C   UNK     0     154.938 188.195 156.141  0.00  0.00     0.227 C 
HETATM    5  C   UNK     0     154.188 188.760 154.954  0.00  0.00     0.196 C 
HETATM    6  C   UNK     0     152.740 188.967 155.155  0.00  0.00     0.079 A 
HETATM    7  C   UNK     0     152.145 188.517 156.336  0.00  0.00     0.089 A 
HETATM    8  C   UNK     0     151.980 189.631 154.189  0.00  0.00     0.085 A 
HETATM    9  C   UNK     0     150.791 188.764 156.565  0.00  0.00     0.074 A 
HETATM   10  C   UNK     0     150.623 189.858 154.416  0.00  0.00     0.074 A 
HETATM   11  C   UNK     0     150.030 189.430 155.604  0.00  0.00     0.071 A 
ENDROOT
BRANCH   3  12
HETATM   12  C   UNK     0     154.703 186.623 158.099  0.00  0.00    -0.023 A 
HETATM   13  C   UNK     0     154.913 185.248 158.181  0.00  0.00     0.049 A 
HETATM   14  C   UNK     0     155.535 184.705 159.305  0.00  0.00     0.099 A 
HETATM   15  C   UNK     0     155.945 185.538 160.345  0.00  0.00     0.098 A 
HETATM   16  C   UNK     0     155.735 186.915 160.261  0.00  0.00     0.040 A 
HETATM   17  C   UNK     0     155.112 187.457 159.137  0.00  0.00     0.013 A 
BRANCH  14  18
HETATM   18  O   UNK     0     155.737 183.360 159.375  0.00  0.00    -0.358 OA
HETATM   19  H   UNK     0     155.177 183.004 160.087  0.00  0.00     0.217 HD
ENDBRANCH  14  18
BRANCH  15  20
HETATM   20  O   UNK     0     156.556 185.020 161.448  0.00  0.00    -0.358 OA
HETATM   21  H   UNK     0     157.336 184.512 161.168  0.00  0.00     0.217 HD
ENDBRANCH  15  20
ENDBRANCH   3  12
BRANCH   4  22
HETATM   22  O   UNK     0     156.089 187.525 155.657  0.00  0.00    -0.385 OA
HETATM   23  H   UNK     0     155.995 187.439 154.693  0.00  0.00     0.210 HD
ENDBRANCH   4  22
BRANCH   8  24
HETATM   24  O   UNK     0     152.510 190.087 153.020  0.00  0.00    -0.360 OA
HETATM   25  H   UNK     0     152.072 190.905 152.741  0.00  0.00     0.217 HD
ENDBRANCH   8  24
BRANCH  11  26
HETATM   26  O   UNK     0     148.707 189.661 155.824  0.00  0.00    -0.361 OA
HETATM   27  H   UNK     0     148.300 188.853 156.182  0.00  0.00     0.217 HD
ENDBRANCH  11  26
TORSDOF 6
ENDMDL
