MODEL 1
REMARK VINA RESULT:    -9.893      0.000      0.000
REMARK INTER + INTRA:         -15.121
REMARK INTER:                 -14.520
REMARK INTRA:                  -0.601
REMARK UNBOUND:                -0.601
REMARK  Name = 74978140
REMARK  12 active torsions:
REMARK  status: ('A' for Active; 'I' for Inactive)
REMARK    1  A    between atoms: O_2  and  C_16
REMARK    2  A    between atoms: O_2  and  C_18
REMARK    3  A    between atoms: O_3  and  C_12
REMARK    4  A    between atoms: O_4  and  C_13
REMARK    5  A    between atoms: O_5  and  C_14
REMARK    6  A    between atoms: O_6  and  C_17
REMARK    7  A    between atoms: O_9  and  C_24
REMARK    8  A    between atoms: O_10  and  C_29
REMARK    9  A    between atoms: O_11  and  C_32
REMARK   10  A    between atoms: O_11  and  C_33
REMARK   11  A    between atoms: C_15  and  C_17
REMARK   12  A    between atoms: C_19  and  C_23
REMARK                            x       y       z     vdW  Elec       q    Type
REMARK                         _______ _______ _______ _____ _____    ______ ____
ROOT
ATOM      1  O   UNL     1      77.687  93.273 107.665  0.00  0.00    +0.000 OA
ATOM      2  O   UNL     1      75.047  90.746 109.465  0.00  0.00    +0.000 OA
ATOM      3  C   UNL     1      77.047  92.002 109.621  0.00  0.00    +0.000 A 
ATOM      4  C   UNL     1      77.880  92.830 108.964  0.00  0.00    +0.000 A 
ATOM      5  C   UNL     1      75.840  91.501 108.920  0.00  0.00    +0.000 A 
ATOM      6  C   UNL     1      75.646  91.964 107.538  0.00  0.00    +0.000 A 
ATOM      7  C   UNL     1      76.585  92.830 106.980  0.00  0.00    +0.000 A 
ATOM      8  C   UNL     1      74.542  91.547 106.793  0.00  0.00    +0.000 A 
ATOM      9  C   UNL     1      76.424  93.284 105.671  0.00  0.00    +0.000 A 
ATOM     10  C   UNL     1      74.383  92.002 105.483  0.00  0.00    +0.000 A 
ATOM     11  C   UNL     1      75.322  92.869 104.924  0.00  0.00    +0.000 A 
ENDROOT
BRANCH   4  12
ATOM     12  C   UNL     1      79.098  93.383 109.584  0.00  0.00    +0.000 A 
ATOM     13  C   UNL     1      80.012  92.531 110.205  0.00  0.00    +0.000 A 
ATOM     14  C   UNL     1      79.337  94.756 109.548  0.00  0.00    +0.000 A 
ATOM     15  C   UNL     1      81.166  93.054 110.790  0.00  0.00    +0.000 A 
ATOM     16  C   UNL     1      80.490  95.279 110.134  0.00  0.00    +0.000 A 
ATOM     17  C   UNL     1      81.405  94.428 110.755  0.00  0.00    +0.000 A 
BRANCH  17  18
ATOM     18  O   UNL     1      82.530  94.939 111.325  0.00  0.00    +0.000 OA
ATOM     19  C   UNL     1      83.573  94.017 111.639  0.00  0.00    +0.000 C 
ENDBRANCH  17  18
ENDBRANCH   4  12
BRANCH   8  20
ATOM     20  O   UNL     1      73.595  90.703 107.290  0.00  0.00    +0.000 OA
ATOM     21  H   UNL     1      72.931  91.197 107.796  0.00  0.00    +0.000 HD
ENDBRANCH   8  20
BRANCH  11  22
ATOM     22  O   UNL     1      75.162  93.311 103.646  0.00  0.00    +0.000 OA
ATOM     23  H   UNL     1      75.820  94.005 103.467  0.00  0.00    +0.000 HD
ENDBRANCH  11  22
BRANCH   3  24
ATOM     24  O   UNL     1      77.251  91.608 110.924  0.00  0.00    +0.000 OA
BRANCH  24  30
ATOM     25  O   UNL     1      75.436  93.014 111.410  0.00  0.00    +0.000 OA
ATOM     26  C   UNL     1      75.983  92.852 114.223  0.00  0.00    +0.000 C 
ATOM     27  C   UNL     1      74.680  93.455 113.691  0.00  0.00    +0.000 C 
ATOM     28  C   UNL     1      76.580  91.871 113.214  0.00  0.00    +0.000 C 
ATOM     29  C   UNL     1      74.885  94.012 112.276  0.00  0.00    +0.000 C 
ATOM     30  C   UNL     1      76.714  92.547 111.850  0.00  0.00    +0.000 C 
BRANCH  26  31
ATOM     31  O   UNL     1      75.724  92.188 115.456  0.00  0.00    +0.000 OA
ATOM     32  H   UNL     1      75.513  92.869 116.117  0.00  0.00    +0.000 HD
ENDBRANCH  26  31
BRANCH  27  33
ATOM     33  O   UNL     1      74.261  94.510 114.553  0.00  0.00    +0.000 OA
ATOM     34  H   UNL     1      74.590  94.317 115.447  0.00  0.00    +0.000 HD
ENDBRANCH  27  33
BRANCH  28  35
ATOM     35  O   UNL     1      75.712  90.743 113.071  0.00  0.00    +0.000 OA
ATOM     36  H   UNL     1      74.915  90.899 113.605  0.00  0.00    +0.000 HD
ENDBRANCH  28  35
BRANCH  29  37
ATOM     37  C   UNL     1      73.569  94.479 111.661  0.00  0.00    +0.000 C 
BRANCH  37  38
ATOM     38  O   UNL     1      73.233  95.736 112.219  0.00  0.00    +0.000 OA
ATOM     39  H   UNL     1      72.318  95.932 111.955  0.00  0.00    +0.000 HD
ENDBRANCH  37  38
ENDBRANCH  29  37
ENDBRANCH  24  30
ENDBRANCH   3  24
TORSDOF 11
ENDMDL
MODEL 2
REMARK VINA RESULT:    -9.738      2.990      7.819
REMARK INTER + INTRA:         -14.894
REMARK INTER:                 -13.747
REMARK INTRA:                  -1.147
REMARK UNBOUND:                -0.601
REMARK  Name = 74978140
REMARK  12 active torsions:
REMARK  status: ('A' for Active; 'I' for Inactive)
REMARK    1  A    between atoms: O_2  and  C_16
REMARK    2  A    between atoms: O_2  and  C_18
REMARK    3  A    between atoms: O_3  and  C_12
REMARK    4  A    between atoms: O_4  and  C_13
REMARK    5  A    between atoms: O_5  and  C_14
REMARK    6  A    between atoms: O_6  and  C_17
REMARK    7  A    between atoms: O_9  and  C_24
REMARK    8  A    between atoms: O_10  and  C_29
REMARK    9  A    between atoms: O_11  and  C_32
REMARK   10  A    between atoms: O_11  and  C_33
REMARK   11  A    between atoms: C_15  and  C_17
REMARK   12  A    between atoms: C_19  and  C_23
REMARK                            x       y       z     vdW  Elec       q    Type
REMARK                         _______ _______ _______ _____ _____    ______ ____
ROOT
ATOM      1  O   UNL     1      80.471  90.389 113.009  0.00  0.00    +0.000 OA
ATOM      2  O   UNL     1      82.622  92.851 110.577  0.00  0.00    +0.000 OA
ATOM      3  C   UNL     1      80.600  92.443 111.738  0.00  0.00    +0.000 A 
ATOM      4  C   UNL     1      79.944  91.581 112.537  0.00  0.00    +0.000 A 
ATOM      5  C   UNL     1      81.977  92.107 111.304  0.00  0.00    +0.000 A 
ATOM      6  C   UNL     1      82.527  90.835 111.796  0.00  0.00    +0.000 A 
ATOM      7  C   UNL     1      81.740  90.039 112.627  0.00  0.00    +0.000 A 
ATOM      8  C   UNL     1      83.814  90.428 111.440  0.00  0.00    +0.000 A 
ATOM      9  C   UNL     1      82.239  88.828 113.107  0.00  0.00    +0.000 A 
ATOM     10  C   UNL     1      84.311  89.216 111.923  0.00  0.00    +0.000 A 
ATOM     11  C   UNL     1      83.525  88.418 112.755  0.00  0.00    +0.000 A 
ENDROOT
BRANCH   4  12
ATOM     12  C   UNL     1      78.576  91.837 113.024  0.00  0.00    +0.000 A 
ATOM     13  C   UNL     1      78.367  92.722 114.080  0.00  0.00    +0.000 A 
ATOM     14  C   UNL     1      77.492  91.194 112.427  0.00  0.00    +0.000 A 
ATOM     15  C   UNL     1      77.072  92.965 114.540  0.00  0.00    +0.000 A 
ATOM     16  C   UNL     1      76.198  91.437 112.886  0.00  0.00    +0.000 A 
ATOM     17  C   UNL     1      75.988  92.323 113.943  0.00  0.00    +0.000 A 
BRANCH  17  18
ATOM     18  O   UNL     1      74.724  92.560 114.390  0.00  0.00    +0.000 OA
ATOM     19  C   UNL     1      73.914  93.438 113.609  0.00  0.00    +0.000 C 
ENDBRANCH  17  18
ENDBRANCH   4  12
BRANCH   8  20
ATOM     20  O   UNL     1      84.623  91.169 110.633  0.00  0.00    +0.000 OA
ATOM     21  H   UNL     1      84.877  90.661 109.847  0.00  0.00    +0.000 HD
ENDBRANCH   8  20
BRANCH  11  22
ATOM     22  O   UNL     1      84.013  87.236 113.222  0.00  0.00    +0.000 OA
ATOM     23  H   UNL     1      84.877  87.067 112.810  0.00  0.00    +0.000 HD
ENDBRANCH  11  22
BRANCH   3  24
ATOM     24  O   UNL     1      80.058  93.637 111.315  0.00  0.00    +0.000 OA
BRANCH  24  30
ATOM     25  O   UNL     1      78.497  92.851 109.748  0.00  0.00    +0.000 OA
ATOM     26  C   UNL     1      79.112  95.011 107.961  0.00  0.00    +0.000 C 
ATOM     27  C   UNL     1      77.899  94.105 107.738  0.00  0.00    +0.000 C 
ATOM     28  C   UNL     1      79.516  95.027 109.435  0.00  0.00    +0.000 C 
ATOM     29  C   UNL     1      78.137  92.726 108.369  0.00  0.00    +0.000 C 
ATOM     30  C   UNL     1      79.703  93.596 109.936  0.00  0.00    +0.000 C 
BRANCH  26  31
ATOM     31  O   UNL     1      78.797  96.331 107.526  0.00  0.00    +0.000 OA
ATOM     32  H   UNL     1      77.905  96.307 107.141  0.00  0.00    +0.000 HD
ENDBRANCH  26  31
BRANCH  27  33
ATOM     33  O   UNL     1      77.677  93.947 106.339  0.00  0.00    +0.000 OA
ATOM     34  H   UNL     1      77.171  93.128 106.205  0.00  0.00    +0.000 HD
ENDBRANCH  27  33
BRANCH  28  35
ATOM     35  O   UNL     1      78.481  95.641 110.209  0.00  0.00    +0.000 OA
ATOM     36  H   UNL     1      77.702  95.759 109.640  0.00  0.00    +0.000 HD
ENDBRANCH  28  35
BRANCH  29  37
ATOM     37  C   UNL     1      76.887  91.853 108.298  0.00  0.00    +0.000 C 
BRANCH  37  38
ATOM     38  O   UNL     1      76.941  91.086 107.109  0.00  0.00    +0.000 OA
ATOM     39  H   UNL     1      76.433  90.273 107.269  0.00  0.00    +0.000 HD
ENDBRANCH  37  38
ENDBRANCH  29  37
ENDBRANCH  24  30
ENDBRANCH   3  24
TORSDOF 11
ENDMDL
MODEL 3
REMARK VINA RESULT:    -9.694      2.501      7.709
REMARK INTER + INTRA:         -14.829
REMARK INTER:                 -13.957
REMARK INTRA:                  -0.872
REMARK UNBOUND:                -0.601
REMARK  Name = 74978140
REMARK  12 active torsions:
REMARK  status: ('A' for Active; 'I' for Inactive)
REMARK    1  A    between atoms: O_2  and  C_16
REMARK    2  A    between atoms: O_2  and  C_18
REMARK    3  A    between atoms: O_3  and  C_12
REMARK    4  A    between atoms: O_4  and  C_13
REMARK    5  A    between atoms: O_5  and  C_14
REMARK    6  A    between atoms: O_6  and  C_17
REMARK    7  A    between atoms: O_9  and  C_24
REMARK    8  A    between atoms: O_10  and  C_29
REMARK    9  A    between atoms: O_11  and  C_32
REMARK   10  A    between atoms: O_11  and  C_33
REMARK   11  A    between atoms: C_15  and  C_17
REMARK   12  A    between atoms: C_19  and  C_23
REMARK                            x       y       z     vdW  Elec       q    Type
REMARK                         _______ _______ _______ _____ _____    ______ ____
ROOT
ATOM      1  O   UNL     1      77.017  91.726 113.727  0.00  0.00    +0.000 OA
ATOM      2  O   UNL     1      79.102  90.767 110.361  0.00  0.00    +0.000 OA
ATOM      3  C   UNL     1      77.089  91.565 111.315  0.00  0.00    +0.000 A 
ATOM      4  C   UNL     1      76.456  91.856 112.467  0.00  0.00    +0.000 A 
ATOM      5  C   UNL     1      78.478  91.050 111.374  0.00  0.00    +0.000 A 
ATOM      6  C   UNL     1      79.064  90.901 112.714  0.00  0.00    +0.000 A 
ATOM      7  C   UNL     1      78.299  91.249 113.826  0.00  0.00    +0.000 A 
ATOM      8  C   UNL     1      80.365  90.421 112.875  0.00  0.00    +0.000 A 
ATOM      9  C   UNL     1      78.833  91.117 115.108  0.00  0.00    +0.000 A 
ATOM     10  C   UNL     1      80.897  90.290 114.159  0.00  0.00    +0.000 A 
ATOM     11  C   UNL     1      80.132  90.638 115.273  0.00  0.00    +0.000 A 
ENDROOT
BRANCH   4  12
ATOM     12  C   UNL     1      75.079  92.381 112.503  0.00  0.00    +0.000 A 
ATOM     13  C   UNL     1      74.045  91.666 111.899  0.00  0.00    +0.000 A 
ATOM     14  C   UNL     1      74.810  93.591 113.142  0.00  0.00    +0.000 A 
ATOM     15  C   UNL     1      72.741  92.161 111.935  0.00  0.00    +0.000 A 
ATOM     16  C   UNL     1      73.507  94.086 113.177  0.00  0.00    +0.000 A 
ATOM     17  C   UNL     1      72.472  93.372 112.574  0.00  0.00    +0.000 A 
BRANCH  17  18
ATOM     18  O   UNL     1      71.201  93.855 112.610  0.00  0.00    +0.000 OA
ATOM     19  C   UNL     1      70.630  94.270 111.369  0.00  0.00    +0.000 C 
ENDBRANCH  17  18
ENDBRANCH   4  12
BRANCH   8  20
ATOM     20  O   UNL     1      81.155  90.068 111.823  0.00  0.00    +0.000 OA
ATOM     21  H   UNL     1      80.619  89.699 111.104  0.00  0.00    +0.000 HD
ENDBRANCH   8  20
BRANCH  11  22
ATOM     22  O   UNL     1      80.655  90.508 116.524  0.00  0.00    +0.000 OA
ATOM     23  H   UNL     1      81.398  91.127 116.621  0.00  0.00    +0.000 HD
ENDBRANCH  11  22
BRANCH   3  24
ATOM     24  O   UNL     1      76.513  91.739 110.076  0.00  0.00    +0.000 OA
BRANCH  24  30
ATOM     25  O   UNL     1      77.948  93.593 110.179  0.00  0.00    +0.000 OA
ATOM     26  C   UNL     1      77.421  94.232 107.430  0.00  0.00    +0.000 C 
ATOM     27  C   UNL     1      78.555  94.904 108.208  0.00  0.00    +0.000 C 
ATOM     28  C   UNL     1      77.078  92.870 108.036  0.00  0.00    +0.000 C 
ATOM     29  C   UNL     1      78.242  94.913 109.711  0.00  0.00    +0.000 C 
ATOM     30  C   UNL     1      76.808  93.022 109.532  0.00  0.00    +0.000 C 
BRANCH  26  31
ATOM     31  O   UNL     1      77.813  94.077 106.070  0.00  0.00    +0.000 OA
ATOM     32  H   UNL     1      77.067  93.676 105.594  0.00  0.00    +0.000 HD
ENDBRANCH  26  31
BRANCH  27  33
ATOM     33  O   UNL     1      78.708  96.246 107.754  0.00  0.00    +0.000 OA
ATOM     34  H   UNL     1      79.107  96.221 106.868  0.00  0.00    +0.000 HD
ENDBRANCH  27  33
BRANCH  28  35
ATOM     35  O   UNL     1      78.186  91.980 107.870  0.00  0.00    +0.000 OA
ATOM     36  H   UNL     1      78.990  92.510 107.740  0.00  0.00    +0.000 HD
ENDBRANCH  28  35
BRANCH  29  37
ATOM     37  C   UNL     1      79.421  95.437 110.525  0.00  0.00    +0.000 C 
BRANCH  37  38
ATOM     38  O   UNL     1      80.610  95.219 109.787  0.00  0.00    +0.000 OA
ATOM     39  H   UNL     1      80.839  94.279 109.883  0.00  0.00    +0.000 HD
ENDBRANCH  37  38
ENDBRANCH  29  37
ENDBRANCH  24  30
ENDBRANCH   3  24
TORSDOF 11
ENDMDL
MODEL 4
REMARK VINA RESULT:    -9.690      0.958      1.352
REMARK INTER + INTRA:         -14.823
REMARK INTER:                 -13.960
REMARK INTRA:                  -0.863
REMARK UNBOUND:                -0.601
REMARK  Name = 74978140
REMARK  12 active torsions:
REMARK  status: ('A' for Active; 'I' for Inactive)
REMARK    1  A    between atoms: O_2  and  C_16
REMARK    2  A    between atoms: O_2  and  C_18
REMARK    3  A    between atoms: O_3  and  C_12
REMARK    4  A    between atoms: O_4  and  C_13
REMARK    5  A    between atoms: O_5  and  C_14
REMARK    6  A    between atoms: O_6  and  C_17
REMARK    7  A    between atoms: O_9  and  C_24
REMARK    8  A    between atoms: O_10  and  C_29
REMARK    9  A    between atoms: O_11  and  C_32
REMARK   10  A    between atoms: O_11  and  C_33
REMARK   11  A    between atoms: C_15  and  C_17
REMARK   12  A    between atoms: C_19  and  C_23
REMARK                            x       y       z     vdW  Elec       q    Type
REMARK                         _______ _______ _______ _____ _____    ______ ____
ROOT
ATOM      1  O   UNL     1      76.429  93.392 107.462  0.00  0.00    +0.000 OA
ATOM      2  O   UNL     1      74.334  90.656 109.636  0.00  0.00    +0.000 OA
ATOM      3  C   UNL     1      76.199  92.107 109.498  0.00  0.00    +0.000 A 
ATOM      4  C   UNL     1      76.845  92.998 108.724  0.00  0.00    +0.000 A 
ATOM      5  C   UNL     1      74.963  91.474 108.979  0.00  0.00    +0.000 A 
ATOM      6  C   UNL     1      74.532  91.886 107.634  0.00  0.00    +0.000 A 
ATOM      7  C   UNL     1      75.292  92.828 106.943  0.00  0.00    +0.000 A 
ATOM      8  C   UNL     1      73.382  91.346 107.056  0.00  0.00    +0.000 A 
ATOM      9  C   UNL     1      74.904  93.236 105.667  0.00  0.00    +0.000 A 
ATOM     10  C   UNL     1      72.996  91.755 105.778  0.00  0.00    +0.000 A 
ATOM     11  C   UNL     1      73.756  92.699 105.086  0.00  0.00    +0.000 A 
ENDROOT
BRANCH   4  12
ATOM     12  C   UNL     1      78.076  93.681 109.162  0.00  0.00    +0.000 A 
ATOM     13  C   UNL     1      78.093  95.069 109.297  0.00  0.00    +0.000 A 
ATOM     14  C   UNL     1      79.223  92.939 109.442  0.00  0.00    +0.000 A 
ATOM     15  C   UNL     1      79.257  95.715 109.713  0.00  0.00    +0.000 A 
ATOM     16  C   UNL     1      80.387  93.585 109.857  0.00  0.00    +0.000 A 
ATOM     17  C   UNL     1      80.405  94.973 109.993  0.00  0.00    +0.000 A 
BRANCH  17  18
ATOM     18  O   UNL     1      81.541  95.602 110.399  0.00  0.00    +0.000 OA
ATOM     19  C   UNL     1      82.582  94.782 110.929  0.00  0.00    +0.000 C 
ENDBRANCH  17  18
ENDBRANCH   4  12
BRANCH   8  20
ATOM     20  O   UNL     1      72.604  90.424 107.688  0.00  0.00    +0.000 OA
ATOM     21  H   UNL     1      72.015  89.984 107.056  0.00  0.00    +0.000 HD
ENDBRANCH   8  20
BRANCH  11  22
ATOM     22  O   UNL     1      73.376  93.094 103.840  0.00  0.00    +0.000 OA
ATOM     23  H   UNL     1      72.884  92.371 103.415  0.00  0.00    +0.000 HD
ENDBRANCH  11  22
BRANCH   3  24
ATOM     24  O   UNL     1      76.623  91.762 110.763  0.00  0.00    +0.000 OA
BRANCH  24  30
ATOM     25  O   UNL     1      74.891  93.217 111.391  0.00  0.00    +0.000 OA
ATOM     26  C   UNL     1      75.604  92.968 114.161  0.00  0.00    +0.000 C 
ATOM     27  C   UNL     1      74.293  93.627 113.725  0.00  0.00    +0.000 C 
ATOM     28  C   UNL     1      76.103  91.992 113.095  0.00  0.00    +0.000 C 
ATOM     29  C   UNL     1      74.431  94.211 112.312  0.00  0.00    +0.000 C 
ATOM     30  C   UNL     1      76.176  92.697 111.741  0.00  0.00    +0.000 C 
BRANCH  26  31
ATOM     31  O   UNL     1      75.397  92.283 115.392  0.00  0.00    +0.000 OA
ATOM     32  H   UNL     1      76.241  92.282 115.873  0.00  0.00    +0.000 HD
ENDBRANCH  26  31
BRANCH  27  33
ATOM     33  O   UNL     1      73.965  94.674 114.634  0.00  0.00    +0.000 OA
ATOM     34  H   UNL     1      72.997  94.727 114.696  0.00  0.00    +0.000 HD
ENDBRANCH  27  33
BRANCH  28  35
ATOM     35  O   UNL     1      75.188  90.898 112.981  0.00  0.00    +0.000 OA
ATOM     36  H   UNL     1      74.319  91.250 112.722  0.00  0.00    +0.000 HD
ENDBRANCH  28  35
BRANCH  29  37
ATOM     37  C   UNL     1      73.097  94.738 111.790  0.00  0.00    +0.000 C 
BRANCH  37  38
ATOM     38  O   UNL     1      72.978  96.101 112.154  0.00  0.00    +0.000 OA
ATOM     39  H   UNL     1      73.067  96.624 111.339  0.00  0.00    +0.000 HD
ENDBRANCH  37  38
ENDBRANCH  29  37
ENDBRANCH  24  30
ENDBRANCH   3  24
TORSDOF 11
ENDMDL
MODEL 5
REMARK VINA RESULT:    -9.660      2.036      5.420
REMARK INTER + INTRA:         -14.778
REMARK INTER:                 -13.833
REMARK INTRA:                  -0.946
REMARK UNBOUND:                -0.601
REMARK  Name = 74978140
REMARK  12 active torsions:
REMARK  status: ('A' for Active; 'I' for Inactive)
REMARK    1  A    between atoms: O_2  and  C_16
REMARK    2  A    between atoms: O_2  and  C_18
REMARK    3  A    between atoms: O_3  and  C_12
REMARK    4  A    between atoms: O_4  and  C_13
REMARK    5  A    between atoms: O_5  and  C_14
REMARK    6  A    between atoms: O_6  and  C_17
REMARK    7  A    between atoms: O_9  and  C_24
REMARK    8  A    between atoms: O_10  and  C_29
REMARK    9  A    between atoms: O_11  and  C_32
REMARK   10  A    between atoms: O_11  and  C_33
REMARK   11  A    between atoms: C_15  and  C_17
REMARK   12  A    between atoms: C_19  and  C_23
REMARK                            x       y       z     vdW  Elec       q    Type
REMARK                         _______ _______ _______ _____ _____    ______ ____
ROOT
ATOM      1  O   UNL     1      74.892  91.939 110.635  0.00  0.00    +0.000 OA
ATOM      2  O   UNL     1      77.323  91.293 107.430  0.00  0.00    +0.000 OA
ATOM      3  C   UNL     1      77.132  91.772 109.741  0.00  0.00    +0.000 A 
ATOM      4  C   UNL     1      76.271  91.982 110.754  0.00  0.00    +0.000 A 
ATOM      5  C   UNL     1      76.590  91.491 108.390  0.00  0.00    +0.000 A 
ATOM      6  C   UNL     1      75.125  91.459 108.267  0.00  0.00    +0.000 A 
ATOM      7  C   UNL     1      74.349  91.686 109.402  0.00  0.00    +0.000 A 
ATOM      8  C   UNL     1      74.517  91.205 107.035  0.00  0.00    +0.000 A 
ATOM      9  C   UNL     1      72.957  91.661 109.311  0.00  0.00    +0.000 A 
ATOM     10  C   UNL     1      73.124  91.180 106.948  0.00  0.00    +0.000 A 
ATOM     11  C   UNL     1      72.346  91.407 108.083  0.00  0.00    +0.000 A 
ENDROOT
BRANCH   4  12
ATOM     12  C   UNL     1      76.721  92.260 112.130  0.00  0.00    +0.000 A 
ATOM     13  C   UNL     1      77.348  91.261 112.874  0.00  0.00    +0.000 A 
ATOM     14  C   UNL     1      76.521  93.523 112.687  0.00  0.00    +0.000 A 
ATOM     15  C   UNL     1      77.775  91.525 114.175  0.00  0.00    +0.000 A 
ATOM     16  C   UNL     1      76.947  93.786 113.988  0.00  0.00    +0.000 A 
ATOM     17  C   UNL     1      77.575  92.788 114.733  0.00  0.00    +0.000 A 
BRANCH  17  18
ATOM     18  O   UNL     1      77.992  93.046 116.002  0.00  0.00    +0.000 OA
ATOM     19  C   UNL     1      78.255  94.410 116.333  0.00  0.00    +0.000 C 
ENDBRANCH  17  18
ENDBRANCH   4  12
BRANCH   8  20
ATOM     20  O   UNL     1      75.228  90.976 105.897  0.00  0.00    +0.000 OA
ATOM     21  H   UNL     1      76.181  91.000 106.080  0.00  0.00    +0.000 HD
ENDBRANCH   8  20
BRANCH  11  22
ATOM     22  O   UNL     1      70.988  91.383 107.993  0.00  0.00    +0.000 OA
ATOM     23  H   UNL     1      70.669  92.278 107.788  0.00  0.00    +0.000 HD
ENDBRANCH  11  22
BRANCH   3  24
ATOM     24  O   UNL     1      78.500  91.789 109.900  0.00  0.00    +0.000 OA
BRANCH  24  30
ATOM     25  O   UNL     1      80.379  93.073 110.476  0.00  0.00    +0.000 OA
ATOM     26  C   UNL     1      79.284  95.377 109.161  0.00  0.00    +0.000 C 
ATOM     27  C   UNL     1      80.740  95.337 109.632  0.00  0.00    +0.000 C 
ATOM     28  C   UNL     1      78.752  93.965 108.918  0.00  0.00    +0.000 C 
ATOM     29  C   UNL     1      80.896  94.365 110.810  0.00  0.00    +0.000 C 
ATOM     30  C   UNL     1      78.985  93.103 110.159  0.00  0.00    +0.000 C 
BRANCH  26  31
ATOM     31  O   UNL     1      79.200  96.143 107.963  0.00  0.00    +0.000 OA
ATOM     32  H   UNL     1      79.659  96.985 108.121  0.00  0.00    +0.000 HD
ENDBRANCH  26  31
BRANCH  27  33
ATOM     33  O   UNL     1      81.139  96.641 110.045  0.00  0.00    +0.000 OA
ATOM     34  H   UNL     1      80.819  96.780 110.952  0.00  0.00    +0.000 HD
ENDBRANCH  27  33
BRANCH  28  35
ATOM     35  O   UNL     1      79.452  93.370 107.822  0.00  0.00    +0.000 OA
ATOM     36  H   UNL     1      79.576  92.425 108.013  0.00  0.00    +0.000 HD
ENDBRANCH  28  35
BRANCH  29  37
ATOM     37  C   UNL     1      82.360  94.187 111.200  0.00  0.00    +0.000 C 
BRANCH  37  38
ATOM     38  O   UNL     1      83.151  94.271 110.028  0.00  0.00    +0.000 OA
ATOM     39  H   UNL     1      82.556  94.508 109.296  0.00  0.00    +0.000 HD
ENDBRANCH  37  38
ENDBRANCH  29  37
ENDBRANCH  24  30
ENDBRANCH   3  24
TORSDOF 11
ENDMDL
MODEL 6
REMARK VINA RESULT:    -9.474      2.855      7.951
REMARK INTER + INTRA:         -14.507
REMARK INTER:                 -13.835
REMARK INTRA:                  -0.672
REMARK UNBOUND:                -0.601
REMARK  Name = 74978140
REMARK  12 active torsions:
REMARK  status: ('A' for Active; 'I' for Inactive)
REMARK    1  A    between atoms: O_2  and  C_16
REMARK    2  A    between atoms: O_2  and  C_18
REMARK    3  A    between atoms: O_3  and  C_12
REMARK    4  A    between atoms: O_4  and  C_13
REMARK    5  A    between atoms: O_5  and  C_14
REMARK    6  A    between atoms: O_6  and  C_17
REMARK    7  A    between atoms: O_9  and  C_24
REMARK    8  A    between atoms: O_10  and  C_29
REMARK    9  A    between atoms: O_11  and  C_32
REMARK   10  A    between atoms: O_11  and  C_33
REMARK   11  A    between atoms: C_15  and  C_17
REMARK   12  A    between atoms: C_19  and  C_23
REMARK                            x       y       z     vdW  Elec       q    Type
REMARK                         _______ _______ _______ _____ _____    ______ ____
ROOT
ATOM      1  O   UNL     1      77.748  91.052 113.870  0.00  0.00    +0.000 OA
ATOM      2  O   UNL     1      80.415  90.759 110.804  0.00  0.00    +0.000 OA
ATOM      3  C   UNL     1      78.282  91.466 111.548  0.00  0.00    +0.000 A 
ATOM      4  C   UNL     1      77.448  91.524 112.602  0.00  0.00    +0.000 A 
ATOM      5  C   UNL     1      79.615  90.842 111.726  0.00  0.00    +0.000 A 
ATOM      6  C   UNL     1      79.924  90.331 113.070  0.00  0.00    +0.000 A 
ATOM      7  C   UNL     1      78.969  90.464 114.077  0.00  0.00    +0.000 A 
ATOM      8  C   UNL     1      81.152  89.723 113.338  0.00  0.00    +0.000 A 
ATOM      9  C   UNL     1      79.239  89.988 115.360  0.00  0.00    +0.000 A 
ATOM     10  C   UNL     1      81.419  89.248 114.623  0.00  0.00    +0.000 A 
ATOM     11  C   UNL     1      80.464  89.381 115.631  0.00  0.00    +0.000 A 
ENDROOT
BRANCH   4  12
ATOM     12  C   UNL     1      76.108  92.133 112.519  0.00  0.00    +0.000 A 
ATOM     13  C   UNL     1      75.046  91.411 111.975  0.00  0.00    +0.000 A 
ATOM     14  C   UNL     1      75.902  93.431 112.986  0.00  0.00    +0.000 A 
ATOM     15  C   UNL     1      73.778  91.987 111.898  0.00  0.00    +0.000 A 
ATOM     16  C   UNL     1      74.634  94.007 112.908  0.00  0.00    +0.000 A 
ATOM     17  C   UNL     1      73.572  93.285 112.364  0.00  0.00    +0.000 A 
BRANCH  17  18
ATOM     18  O   UNL     1      72.335  93.848 112.290  0.00  0.00    +0.000 OA
ATOM     19  C   UNL     1      71.521  93.481 111.176  0.00  0.00    +0.000 C 
ENDBRANCH  17  18
ENDBRANCH   4  12
BRANCH   8  20
ATOM     20  O   UNL     1      82.119  89.570 112.391  0.00  0.00    +0.000 OA
ATOM     21  H   UNL     1      82.204  88.637 112.139  0.00  0.00    +0.000 HD
ENDBRANCH   8  20
BRANCH  11  22
ATOM     22  O   UNL     1      80.729  88.915 116.883  0.00  0.00    +0.000 OA
ATOM     23  H   UNL     1      79.920  88.521 117.251  0.00  0.00    +0.000 HD
ENDBRANCH  11  22
BRANCH   3  24
ATOM     24  O   UNL     1      77.964  91.975 110.308  0.00  0.00    +0.000 OA
BRANCH  24  30
ATOM     25  O   UNL     1      79.741  93.491 110.534  0.00  0.00    +0.000 OA
ATOM     26  C   UNL     1      78.593  95.228 108.558  0.00  0.00    +0.000 C 
ATOM     27  C   UNL     1      80.024  95.423 109.065  0.00  0.00    +0.000 C 
ATOM     28  C   UNL     1      78.148  93.776 108.731  0.00  0.00    +0.000 C 
ATOM     29  C   UNL     1      80.173  94.855 110.484  0.00  0.00    +0.000 C 
ATOM     30  C   UNL     1      78.365  93.336 110.178  0.00  0.00    +0.000 C 
BRANCH  26  31
ATOM     31  O   UNL     1      78.528  95.599 107.185  0.00  0.00    +0.000 OA
ATOM     32  H   UNL     1      78.480  96.569 107.146  0.00  0.00    +0.000 HD
ENDBRANCH  26  31
BRANCH  27  33
ATOM     33  O   UNL     1      80.333  96.814 109.084  0.00  0.00    +0.000 OA
ATOM     34  H   UNL     1      79.787  97.253 108.411  0.00  0.00    +0.000 HD
ENDBRANCH  27  33
BRANCH  28  35
ATOM     35  O   UNL     1      78.932  92.930 107.884  0.00  0.00    +0.000 OA
ATOM     36  H   UNL     1      78.341  92.281 107.466  0.00  0.00    +0.000 HD
ENDBRANCH  28  35
BRANCH  29  37
ATOM     37  C   UNL     1      81.623  94.896 110.955  0.00  0.00    +0.000 C 
BRANCH  37  38
ATOM     38  O   UNL     1      82.467  94.834 109.819  0.00  0.00    +0.000 OA
ATOM     39  H   UNL     1      82.858  95.717 109.704  0.00  0.00    +0.000 HD
ENDBRANCH  37  38
ENDBRANCH  29  37
ENDBRANCH  24  30
ENDBRANCH   3  24
TORSDOF 11
ENDMDL
MODEL 7
REMARK VINA RESULT:    -9.459      2.358      3.888
REMARK INTER + INTRA:         -14.484
REMARK INTER:                 -13.306
REMARK INTRA:                  -1.178
REMARK UNBOUND:                -0.601
REMARK  Name = 74978140
REMARK  12 active torsions:
REMARK  status: ('A' for Active; 'I' for Inactive)
REMARK    1  A    between atoms: O_2  and  C_16
REMARK    2  A    between atoms: O_2  and  C_18
REMARK    3  A    between atoms: O_3  and  C_12
REMARK    4  A    between atoms: O_4  and  C_13
REMARK    5  A    between atoms: O_5  and  C_14
REMARK    6  A    between atoms: O_6  and  C_17
REMARK    7  A    between atoms: O_9  and  C_24
REMARK    8  A    between atoms: O_10  and  C_29
REMARK    9  A    between atoms: O_11  and  C_32
REMARK   10  A    between atoms: O_11  and  C_33
REMARK   11  A    between atoms: C_15  and  C_17
REMARK   12  A    between atoms: C_19  and  C_23
REMARK                            x       y       z     vdW  Elec       q    Type
REMARK                         _______ _______ _______ _____ _____    ______ ____
ROOT
ATOM      1  O   UNL     1      74.944  92.269 108.621  0.00  0.00    +0.000 OA
ATOM      2  O   UNL     1      72.940  91.687 112.121  0.00  0.00    +0.000 OA
ATOM      3  C   UNL     1      74.818  92.609 111.012  0.00  0.00    +0.000 A 
ATOM      4  C   UNL     1      75.430  92.758 109.823  0.00  0.00    +0.000 A 
ATOM      5  C   UNL     1      73.542  91.856 111.069  0.00  0.00    +0.000 A 
ATOM      6  C   UNL     1      73.037  91.327 109.792  0.00  0.00    +0.000 A 
ATOM      7  C   UNL     1      73.768  91.563 108.630  0.00  0.00    +0.000 A 
ATOM      8  C   UNL     1      71.845  90.602 109.741  0.00  0.00    +0.000 A 
ATOM      9  C   UNL     1      73.310  91.072 107.407  0.00  0.00    +0.000 A 
ATOM     10  C   UNL     1      71.389  90.113 108.516  0.00  0.00    +0.000 A 
ATOM     11  C   UNL     1      72.120  90.348 107.352  0.00  0.00    +0.000 A 
ENDROOT
BRANCH   4  12
ATOM     12  C   UNL     1      76.696  93.497 109.672  0.00  0.00    +0.000 A 
ATOM     13  C   UNL     1      77.861  92.819 109.312  0.00  0.00    +0.000 A 
ATOM     14  C   UNL     1      76.730  94.875 109.888  0.00  0.00    +0.000 A 
ATOM     15  C   UNL     1      79.059  93.519 109.168  0.00  0.00    +0.000 A 
ATOM     16  C   UNL     1      77.927  95.574 109.744  0.00  0.00    +0.000 A 
ATOM     17  C   UNL     1      79.092  94.897 109.384  0.00  0.00    +0.000 A 
BRANCH  17  18
ATOM     18  O   UNL     1      80.260  95.581 109.242  0.00  0.00    +0.000 OA
ATOM     19  C   UNL     1      81.324  95.238 110.130  0.00  0.00    +0.000 C 
ENDBRANCH  17  18
ENDBRANCH   4  12
BRANCH   8  20
ATOM     20  O   UNL     1      71.092  90.346 110.847  0.00  0.00    +0.000 OA
ATOM     21  H   UNL     1      70.387  89.712 110.640  0.00  0.00    +0.000 HD
ENDBRANCH   8  20
BRANCH  11  22
ATOM     22  O   UNL     1      71.671  89.868 106.159  0.00  0.00    +0.000 OA
ATOM     23  H   UNL     1      72.256  90.186 105.450  0.00  0.00    +0.000 HD
ENDBRANCH  11  22
BRANCH   3  24
ATOM     24  O   UNL     1      75.312  93.138 112.184  0.00  0.00    +0.000 OA
BRANCH  24  30
ATOM     25  O   UNL     1      77.400  92.155 112.612  0.00  0.00    +0.000 OA
ATOM     26  C   UNL     1      76.596  91.464 115.280  0.00  0.00    +0.000 C 
ATOM     27  C   UNL     1      78.055  91.359 114.828  0.00  0.00    +0.000 C 
ATOM     28  C   UNL     1      75.836  92.485 114.434  0.00  0.00    +0.000 C 
ATOM     29  C   UNL     1      78.132  91.142 113.310  0.00  0.00    +0.000 C 
ATOM     30  C   UNL     1      76.011  92.161 112.950  0.00  0.00    +0.000 C 
BRANCH  26  31
ATOM     31  O   UNL     1      76.557  91.840 116.653  0.00  0.00    +0.000 OA
ATOM     32  H   UNL     1      76.674  91.033 117.181  0.00  0.00    +0.000 HD
ENDBRANCH  26  31
BRANCH  27  33
ATOM     33  O   UNL     1      78.677  90.261 115.489  0.00  0.00    +0.000 OA
ATOM     34  H   UNL     1      79.638  90.405 115.473  0.00  0.00    +0.000 HD
ENDBRANCH  27  33
BRANCH  28  35
ATOM     35  O   UNL     1      76.366  93.793 114.671  0.00  0.00    +0.000 OA
ATOM     36  H   UNL     1      77.326  93.717 114.800  0.00  0.00    +0.000 HD
ENDBRANCH  28  35
BRANCH  29  37
ATOM     37  C   UNL     1      79.572  91.188 112.809  0.00  0.00    +0.000 C 
BRANCH  37  38
ATOM     38  O   UNL     1      80.153  89.910 112.992  0.00  0.00    +0.000 OA
ATOM     39  H   UNL     1      79.540  89.259 112.611  0.00  0.00    +0.000 HD
ENDBRANCH  37  38
ENDBRANCH  29  37
ENDBRANCH  24  30
ENDBRANCH   3  24
TORSDOF 11
ENDMDL
MODEL 8
REMARK VINA RESULT:    -9.191      2.449      5.767
REMARK INTER + INTRA:         -14.090
REMARK INTER:                 -13.091
REMARK INTRA:                  -0.999
REMARK UNBOUND:                -0.601
REMARK  Name = 74978140
REMARK  12 active torsions:
REMARK  status: ('A' for Active; 'I' for Inactive)
REMARK    1  A    between atoms: O_2  and  C_16
REMARK    2  A    between atoms: O_2  and  C_18
REMARK    3  A    between atoms: O_3  and  C_12
REMARK    4  A    between atoms: O_4  and  C_13
REMARK    5  A    between atoms: O_5  and  C_14
REMARK    6  A    between atoms: O_6  and  C_17
REMARK    7  A    between atoms: O_9  and  C_24
REMARK    8  A    between atoms: O_10  and  C_29
REMARK    9  A    between atoms: O_11  and  C_32
REMARK   10  A    between atoms: O_11  and  C_33
REMARK   11  A    between atoms: C_15  and  C_17
REMARK   12  A    between atoms: C_19  and  C_23
REMARK                            x       y       z     vdW  Elec       q    Type
REMARK                         _______ _______ _______ _____ _____    ______ ____
ROOT
ATOM      1  O   UNL     1      75.221  92.233 112.721  0.00  0.00    +0.000 OA
ATOM      2  O   UNL     1      76.333  91.246 108.928  0.00  0.00    +0.000 OA
ATOM      3  C   UNL     1      76.992  91.832 111.124  0.00  0.00    +0.000 A 
ATOM      4  C   UNL     1      76.555  92.158 112.354  0.00  0.00    +0.000 A 
ATOM      5  C   UNL     1      75.996  91.546 110.065  0.00  0.00    +0.000 A 
ATOM      6  C   UNL     1      74.581  91.639 110.455  0.00  0.00    +0.000 A 
ATOM      7  C   UNL     1      74.266  91.980 111.770  0.00  0.00    +0.000 A 
ATOM      8  C   UNL     1      73.566  91.391 109.529  0.00  0.00    +0.000 A 
ATOM      9  C   UNL     1      72.932  92.074 112.165  0.00  0.00    +0.000 A 
ATOM     10  C   UNL     1      72.232  91.486 109.928  0.00  0.00    +0.000 A 
ATOM     11  C   UNL     1      71.916  91.826 111.243  0.00  0.00    +0.000 A 
ENDROOT
BRANCH   4  12
ATOM     12  C   UNL     1      77.474  92.450 113.469  0.00  0.00    +0.000 A 
ATOM     13  C   UNL     1      78.272  91.437 114.000  0.00  0.00    +0.000 A 
ATOM     14  C   UNL     1      77.547  93.741 113.993  0.00  0.00    +0.000 A 
ATOM     15  C   UNL     1      79.143  91.714 115.054  0.00  0.00    +0.000 A 
ATOM     16  C   UNL     1      78.417  94.018 115.046  0.00  0.00    +0.000 A 
ATOM     17  C   UNL     1      79.216  93.004 115.577  0.00  0.00    +0.000 A 
BRANCH  17  18
ATOM     18  O   UNL     1      80.065  93.276 116.605  0.00  0.00    +0.000 OA
ATOM     19  C   UNL     1      81.458  93.080 116.364  0.00  0.00    +0.000 C 
ENDBRANCH  17  18
ENDBRANCH   4  12
BRANCH   8  20
ATOM     20  O   UNL     1      73.819  91.054 108.234  0.00  0.00    +0.000 OA
ATOM     21  H   UNL     1      72.998  91.050 107.717  0.00  0.00    +0.000 HD
ENDBRANCH   8  20
BRANCH  11  22
ATOM     22  O   UNL     1      70.613  91.918 111.627  0.00  0.00    +0.000 OA
ATOM     23  H   UNL     1      70.047  91.601 110.902  0.00  0.00    +0.000 HD
ENDBRANCH  11  22
BRANCH   3  24
ATOM     24  O   UNL     1      78.328  91.734 110.802  0.00  0.00    +0.000 OA
BRANCH  24  30
ATOM     25  O   UNL     1      80.380  92.863 110.955  0.00  0.00    +0.000 OA
ATOM     26  C   UNL     1      79.345  95.077 109.449  0.00  0.00    +0.000 C 
ATOM     27  C   UNL     1      80.840  94.936 109.746  0.00  0.00    +0.000 C 
ATOM     28  C   UNL     1      78.653  93.714 109.484  0.00  0.00    +0.000 C 
ATOM     29  C   UNL     1      81.058  94.122 111.029  0.00  0.00    +0.000 C 
ATOM     30  C   UNL     1      78.966  93.008 110.803  0.00  0.00    +0.000 C 
BRANCH  26  31
ATOM     31  O   UNL     1      79.176  95.679 108.169  0.00  0.00    +0.000 OA
ATOM     32  H   UNL     1      78.511  96.381 108.262  0.00  0.00    +0.000 HD
ENDBRANCH  26  31
BRANCH  27  33
ATOM     33  O   UNL     1      81.413  96.231 109.912  0.00  0.00    +0.000 OA
ATOM     34  H   UNL     1      82.314  96.210 109.549  0.00  0.00    +0.000 HD
ENDBRANCH  27  33
BRANCH  28  35
ATOM     35  O   UNL     1      79.142  92.901 108.414  0.00  0.00    +0.000 OA
ATOM     36  H   UNL     1      79.217  91.986 108.733  0.00  0.00    +0.000 HD
ENDBRANCH  28  35
BRANCH  29  37
ATOM     37  C   UNL     1      82.537  93.834 111.266  0.00  0.00    +0.000 C 
BRANCH  37  38
ATOM     38  O   UNL     1      83.243  94.091 110.066  0.00  0.00    +0.000 OA
ATOM     39  H   UNL     1      83.204  95.050 109.910  0.00  0.00    +0.000 HD
ENDBRANCH  37  38
ENDBRANCH  29  37
ENDBRANCH  24  30
ENDBRANCH   3  24
TORSDOF 11
ENDMDL
MODEL 9
REMARK VINA RESULT:    -9.151      1.827      3.142
REMARK INTER + INTRA:         -14.032
REMARK INTER:                 -13.028
REMARK INTRA:                  -1.004
REMARK UNBOUND:                -0.601
REMARK  Name = 74978140
REMARK  12 active torsions:
REMARK  status: ('A' for Active; 'I' for Inactive)
REMARK    1  A    between atoms: O_2  and  C_16
REMARK    2  A    between atoms: O_2  and  C_18
REMARK    3  A    between atoms: O_3  and  C_12
REMARK    4  A    between atoms: O_4  and  C_13
REMARK    5  A    between atoms: O_5  and  C_14
REMARK    6  A    between atoms: O_6  and  C_17
REMARK    7  A    between atoms: O_9  and  C_24
REMARK    8  A    between atoms: O_10  and  C_29
REMARK    9  A    between atoms: O_11  and  C_32
REMARK   10  A    between atoms: O_11  and  C_33
REMARK   11  A    between atoms: C_15  and  C_17
REMARK   12  A    between atoms: C_19  and  C_23
REMARK                            x       y       z     vdW  Elec       q    Type
REMARK                         _______ _______ _______ _____ _____    ______ ____
ROOT
ATOM      1  O   UNL     1      77.546  93.093 108.288  0.00  0.00    +0.000 OA
ATOM      2  O   UNL     1      74.731  92.322 111.131  0.00  0.00    +0.000 OA
ATOM      3  C   UNL     1      76.849  93.234 110.600  0.00  0.00    +0.000 A 
ATOM      4  C   UNL     1      77.738  93.452 109.613  0.00  0.00    +0.000 A 
ATOM      5  C   UNL     1      75.576  92.548 110.276  0.00  0.00    +0.000 A 
ATOM      6  C   UNL     1      75.383  92.157 108.871  0.00  0.00    +0.000 A 
ATOM      7  C   UNL     1      76.383  92.452 107.946  0.00  0.00    +0.000 A 
ATOM      8  C   UNL     1      74.218  91.503 108.466  0.00  0.00    +0.000 A 
ATOM      9  C   UNL     1      76.223  92.092 106.608  0.00  0.00    +0.000 A 
ATOM     10  C   UNL     1      74.060  91.145 107.126  0.00  0.00    +0.000 A 
ATOM     11  C   UNL     1      75.061  91.439 106.199  0.00  0.00    +0.000 A 
ENDROOT
BRANCH   4  12
ATOM     12  C   UNL     1      79.025  94.133 109.843  0.00  0.00    +0.000 A 
ATOM     13  C   UNL     1      80.147  93.396 110.218  0.00  0.00    +0.000 A 
ATOM     14  C   UNL     1      79.120  95.516 109.683  0.00  0.00    +0.000 A 
ATOM     15  C   UNL     1      81.366  94.041 110.433  0.00  0.00    +0.000 A 
ATOM     16  C   UNL     1      80.337  96.160 109.899  0.00  0.00    +0.000 A 
ATOM     17  C   UNL     1      81.460  95.423 110.274  0.00  0.00    +0.000 A 
BRANCH  17  18
ATOM     18  O   UNL     1      82.648  96.053 110.483  0.00  0.00    +0.000 OA
ATOM     19  C   UNL     1      83.480  95.541 111.524  0.00  0.00    +0.000 C 
ENDBRANCH  17  18
ENDBRANCH   4  12
BRANCH   8  20
ATOM     20  O   UNL     1      73.210  91.193 109.328  0.00  0.00    +0.000 OA
ATOM     21  H   UNL     1      72.550  90.631 108.893  0.00  0.00    +0.000 HD
ENDBRANCH   8  20
BRANCH  11  22
ATOM     22  O   UNL     1      74.903  91.087 104.894  0.00  0.00    +0.000 OA
ATOM     23  H   UNL     1      74.437  90.234 104.851  0.00  0.00    +0.000 HD
ENDBRANCH  11  22
BRANCH   3  24
ATOM     24  O   UNL     1      77.058  93.635 111.901  0.00  0.00    +0.000 OA
BRANCH  24  30
ATOM     25  O   UNL     1      78.573  92.040 112.719  0.00  0.00    +0.000 OA
ATOM     26  C   UNL     1      77.088  91.790 115.162  0.00  0.00    +0.000 C 
ATOM     27  C   UNL     1      78.486  91.186 115.007  0.00  0.00    +0.000 C 
ATOM     28  C   UNL     1      76.891  92.961 114.199  0.00  0.00    +0.000 C 
ATOM     29  C   UNL     1      78.775  90.879 113.531  0.00  0.00    +0.000 C 
ATOM     30  C   UNL     1      77.229  92.523 112.775  0.00  0.00    +0.000 C 
BRANCH  26  31
ATOM     31  O   UNL     1      76.914  92.228 116.507  0.00  0.00    +0.000 OA
ATOM     32  H   UNL     1      76.964  93.199 116.507  0.00  0.00    +0.000 HD
ENDBRANCH  26  31
BRANCH  27  33
ATOM     33  O   UNL     1      78.565  89.979 115.760  0.00  0.00    +0.000 OA
ATOM     34  H   UNL     1      77.682  89.574 115.774  0.00  0.00    +0.000 HD
ENDBRANCH  27  33
BRANCH  28  35
ATOM     35  O   UNL     1      77.771  94.031 114.559  0.00  0.00    +0.000 OA
ATOM     36  H   UNL     1      77.625  94.247 115.495  0.00  0.00    +0.000 HD
ENDBRANCH  28  35
BRANCH  29  37
ATOM     37  C   UNL     1      80.216  90.420 113.326  0.00  0.00    +0.000 C 
BRANCH  37  38
ATOM     38  O   UNL     1      80.468  90.337 111.935  0.00  0.00    +0.000 OA
ATOM     39  H   UNL     1      79.619  90.468 111.481  0.00  0.00    +0.000 HD
ENDBRANCH  37  38
ENDBRANCH  29  37
ENDBRANCH  24  30
ENDBRANCH   3  24
TORSDOF 11
ENDMDL
MODEL 10
REMARK VINA RESULT:    -8.923      2.061      7.898
REMARK INTER + INTRA:         -13.697
REMARK INTER:                 -12.652
REMARK INTRA:                  -1.045
REMARK UNBOUND:                -0.601
REMARK  Name = 74978140
REMARK  12 active torsions:
REMARK  status: ('A' for Active; 'I' for Inactive)
REMARK    1  A    between atoms: O_2  and  C_16
REMARK    2  A    between atoms: O_2  and  C_18
REMARK    3  A    between atoms: O_3  and  C_12
REMARK    4  A    between atoms: O_4  and  C_13
REMARK    5  A    between atoms: O_5  and  C_14
REMARK    6  A    between atoms: O_6  and  C_17
REMARK    7  A    between atoms: O_9  and  C_24
REMARK    8  A    between atoms: O_10  and  C_29
REMARK    9  A    between atoms: O_11  and  C_32
REMARK   10  A    between atoms: O_11  and  C_33
REMARK   11  A    between atoms: C_15  and  C_17
REMARK   12  A    between atoms: C_19  and  C_23
REMARK                            x       y       z     vdW  Elec       q    Type
REMARK                         _______ _______ _______ _____ _____    ______ ____
ROOT
ATOM      1  O   UNL     1      80.748  92.615 113.329  0.00  0.00    +0.000 OA
ATOM      2  O   UNL     1      81.995  94.869 110.172  0.00  0.00    +0.000 OA
ATOM      3  C   UNL     1      80.186  93.981 111.414  0.00  0.00    +0.000 A 
ATOM      4  C   UNL     1      79.845  93.220 112.470  0.00  0.00    +0.000 A 
ATOM      5  C   UNL     1      81.624  94.189 111.119  0.00  0.00    +0.000 A 
ATOM      6  C   UNL     1      82.579  93.534 112.026  0.00  0.00    +0.000 A 
ATOM      7  C   UNL     1      82.088  92.778 113.089  0.00  0.00    +0.000 A 
ATOM      8  C   UNL     1      83.955  93.667 111.830  0.00  0.00    +0.000 A 
ATOM      9  C   UNL     1      82.974  92.149 113.964  0.00  0.00    +0.000 A 
ATOM     10  C   UNL     1      84.839  93.036 112.707  0.00  0.00    +0.000 A 
ATOM     11  C   UNL     1      84.349  92.279 113.772  0.00  0.00    +0.000 A 
ENDROOT
BRANCH   4  12
ATOM     12  C   UNL     1      78.441  92.967 112.842  0.00  0.00    +0.000 A 
ATOM     13  C   UNL     1      77.875  91.712 112.617  0.00  0.00    +0.000 A 
ATOM     14  C   UNL     1      77.679  93.982 113.421  0.00  0.00    +0.000 A 
ATOM     15  C   UNL     1      76.547  91.473 112.971  0.00  0.00    +0.000 A 
ATOM     16  C   UNL     1      76.352  93.742 113.775  0.00  0.00    +0.000 A 
ATOM     17  C   UNL     1      75.785  92.488 113.550  0.00  0.00    +0.000 A 
BRANCH  17  18
ATOM     18  O   UNL     1      74.490  92.255 113.896  0.00  0.00    +0.000 OA
ATOM     19  C   UNL     1      73.487  92.957 113.164  0.00  0.00    +0.000 C 
ENDBRANCH  17  18
ENDBRANCH   4  12
BRANCH   8  20
ATOM     20  O   UNL     1      84.487  94.394 110.809  0.00  0.00    +0.000 OA
ATOM     21  H   UNL     1      85.272  93.954 110.449  0.00  0.00    +0.000 HD
ENDBRANCH   8  20
BRANCH  11  22
ATOM     22  O   UNL     1      85.215  91.665 114.624  0.00  0.00    +0.000 OA
ATOM     23  H   UNL     1      85.341  92.228 115.407  0.00  0.00    +0.000 HD
ENDBRANCH  11  22
BRANCH   3  24
ATOM     24  O   UNL     1      79.261  94.595 110.599  0.00  0.00    +0.000 OA
BRANCH  24  30
ATOM     25  O   UNL     1      77.532  93.218 109.811  0.00  0.00    +0.000 OA
ATOM     26  C   UNL     1      78.348  93.644 107.092  0.00  0.00    +0.000 C 
ATOM     27  C   UNL     1      77.012  92.979 107.436  0.00  0.00    +0.000 C 
ATOM     28  C   UNL     1      78.822  94.535 108.240  0.00  0.00    +0.000 C 
ATOM     29  C   UNL     1      77.090  92.297 108.809  0.00  0.00    +0.000 C 
ATOM     30  C   UNL     1      78.836  93.739 109.544  0.00  0.00    +0.000 C 
BRANCH  26  31
ATOM     31  O   UNL     1      78.195  94.415 105.905  0.00  0.00    +0.000 OA
ATOM     32  H   UNL     1      77.254  94.643 105.822  0.00  0.00    +0.000 HD
ENDBRANCH  26  31
BRANCH  27  33
ATOM     33  O   UNL     1      76.702  92.002 106.445  0.00  0.00    +0.000 OA
ATOM     34  H   UNL     1      75.814  92.195 106.100  0.00  0.00    +0.000 HD
ENDBRANCH  27  33
BRANCH  28  35
ATOM     35  O   UNL     1      77.920  95.635 108.397  0.00  0.00    +0.000 OA
ATOM     36  H   UNL     1      77.045  95.283 108.633  0.00  0.00    +0.000 HD
ENDBRANCH  28  35
BRANCH  29  37
ATOM     37  C   UNL     1      75.731  91.759 109.245  0.00  0.00    +0.000 C 
BRANCH  37  38
ATOM     38  O   UNL     1      75.847  90.365 109.464  0.00  0.00    +0.000 OA
ATOM     39  H   UNL     1      75.475  90.180 110.343  0.00  0.00    +0.000 HD
ENDBRANCH  37  38
ENDBRANCH  29  37
ENDBRANCH  24  30
ENDBRANCH   3  24
TORSDOF 11
ENDMDL
