REMARK VINA RESULT:      -6.8      5.141      7.249
REMARK  6 active torsions:
REMARK  status: ('A' for Active; 'I' for Inactive)
REMARK    1  A    between atoms: O_2  and  C_12 
REMARK    2  A    between atoms: O_3  and  C_14 
REMARK    3  A    between atoms: O_5  and  C_16 
REMARK    4  A    between atoms: O_6  and  C_20 
REMARK    5  A    between atoms: O_7  and  C_22 
REMARK    6  A    between atoms: C_10  and  C_11 
ROOT
HETATM    1  O   UNK     0     184.026 181.886 172.826  0.00  0.00    -0.306 OA
HETATM    2  O   UNK     0     179.975 182.241 173.079  0.00  0.00    -0.284 OA
HETATM    3  C   UNK     0     181.834 180.868 172.610  0.00  0.00     0.084 A 
HETATM    4  C   UNK     0     183.225 180.812 172.541  0.00  0.00     0.096 A 
HETATM    5  C   UNK     0     183.427 183.075 173.212  0.00  0.00     0.123 A 
HETATM    6  C   UNK     0     182.098 183.263 173.310  0.00  0.00     0.152 A 
HETATM    7  C   UNK     0     181.191 182.130 173.006  0.00  0.00     0.223 A 
HETATM    8  C   UNK     0     181.067 179.740 172.307  0.00  0.00     0.085 A 
HETATM    9  C   UNK     0     183.857 179.626 172.166  0.00  0.00     0.075 A 
HETATM   10  C   UNK     0     183.094 178.498 171.863  0.00  0.00     0.071 A 
HETATM   11  C   UNK     0     181.702 178.556 171.933  0.00  0.00     0.074 A 
ENDROOT
BRANCH   5  12
HETATM   12  C   UNK     0     184.401 184.146 173.488  0.00  0.00     0.004 A 
HETATM   13  C   UNK     0     185.024 184.219 174.734  0.00  0.00     0.053 A 
HETATM   14  C   UNK     0     185.945 185.233 174.995  0.00  0.00     0.099 A 
HETATM   15  C   UNK     0     186.244 186.175 174.009  0.00  0.00     0.098 A 
HETATM   16  C   UNK     0     185.622 186.101 172.763  0.00  0.00     0.040 A 
HETATM   17  C   UNK     0     184.700 185.087 172.502  0.00  0.00     0.017 A 
BRANCH  14  18
HETATM   18  O   UNK     0     186.545 185.296 176.216  0.00  0.00    -0.358 OA
HETATM   19  H   UNK     0     187.046 186.124 176.293  0.00  0.00     0.217 HD
ENDBRANCH  14  18
BRANCH  15  20
HETATM   20  O   UNK     0     187.144 187.168 174.252  0.00  0.00    -0.358 OA
HETATM   21  H   UNK     0     187.894 186.815 174.755  0.00  0.00     0.217 HD
ENDBRANCH  15  20
ENDBRANCH   5  12
BRANCH   6  22
HETATM   22  O   UNK     0     181.533 184.469 173.665  0.00  0.00    -0.355 OA
HETATM   23  H   UNK     0     180.669 184.568 173.232  0.00  0.00     0.218 HD
ENDBRANCH   6  22
BRANCH   8  24
HETATM   24  O   UNK     0     179.705 179.741 172.359  0.00  0.00    -0.360 OA
HETATM   25  H   UNK     0     179.331 179.859 171.473  0.00  0.00     0.217 HD
ENDBRANCH   8  24
BRANCH  10  26
HETATM   26  O   UNK     0     183.711 177.340 171.497  0.00  0.00    -0.361 OA
HETATM   27  H   UNK     0     184.407 177.546 170.849  0.00  0.00     0.217 HD
ENDBRANCH  10  26
TORSDOF 6
