REMARK VINA RESULT:      -6.5      4.567      6.444
REMARK  6 active torsions:
REMARK  status: ('A' for Active; 'I' for Inactive)
REMARK    1  A    between atoms: O_2  and  C_12 
REMARK    2  A    between atoms: O_3  and  C_14 
REMARK    3  A    between atoms: O_5  and  C_16 
REMARK    4  A    between atoms: O_6  and  C_20 
REMARK    5  A    between atoms: O_7  and  C_22 
REMARK    6  A    between atoms: C_10  and  C_11 
ROOT
HETATM    1  O   UNK     0     183.618 182.789 172.982  0.00  0.00    -0.306 OA
HETATM    2  O   UNK     0     179.845 184.089 172.156  0.00  0.00    -0.284 OA
HETATM    3  C   UNK     0     181.317 182.265 172.415  0.00  0.00     0.084 A 
HETATM    4  C   UNK     0     182.626 181.885 172.704  0.00  0.00     0.096 A 
HETATM    5  C   UNK     0     183.300 184.139 172.989  0.00  0.00     0.123 A 
HETATM    6  C   UNK     0     182.079 184.636 172.719  0.00  0.00     0.152 A 
HETATM    7  C   UNK     0     180.976 183.696 172.407  0.00  0.00     0.223 A 
HETATM    8  C   UNK     0     180.347 181.298 172.138  0.00  0.00     0.085 A 
HETATM    9  C   UNK     0     182.975 180.534 172.715  0.00  0.00     0.075 A 
HETATM   10  C   UNK     0     182.009 179.566 172.439  0.00  0.00     0.071 A 
HETATM   11  C   UNK     0     180.698 179.948 172.150  0.00  0.00     0.074 A 
ENDROOT
BRANCH   5  12
HETATM   12  C   UNK     0     184.454 185.000 173.302  0.00  0.00     0.004 A 
HETATM   13  C   UNK     0     184.760 185.301 174.629  0.00  0.00     0.053 A 
HETATM   14  C   UNK     0     185.853 186.116 174.926  0.00  0.00     0.099 A 
HETATM   15  C   UNK     0     186.639 186.630 173.894  0.00  0.00     0.098 A 
HETATM   16  C   UNK     0     186.334 186.328 172.567  0.00  0.00     0.040 A 
HETATM   17  C   UNK     0     185.241 185.513 172.271  0.00  0.00     0.017 A 
BRANCH  14  18
HETATM   18  O   UNK     0     186.141 186.405 176.225  0.00  0.00    -0.358 OA
HETATM   19  H   UNK     0     186.447 185.603 176.680  0.00  0.00     0.217 HD
ENDBRANCH  14  18
BRANCH  15  20
HETATM   20  O   UNK     0     187.711 187.425 174.171  0.00  0.00    -0.358 OA
HETATM   21  H   UNK     0     187.404 188.294 174.473  0.00  0.00     0.217 HD
ENDBRANCH  15  20
ENDBRANCH   5  12
BRANCH   6  22
HETATM   22  O   UNK     0     181.803 185.986 172.702  0.00  0.00    -0.355 OA
HETATM   23  H   UNK     0     182.624 186.489 172.568  0.00  0.00     0.218 HD
ENDBRANCH   6  22
BRANCH   8  24
HETATM   24  O   UNK     0     179.054 181.615 171.849  0.00  0.00    -0.360 OA
HETATM   25  H   UNK     0     178.491 181.489 172.628  0.00  0.00     0.217 HD
ENDBRANCH   8  24
BRANCH  10  26
HETATM   26  O   UNK     0     182.347 178.247 172.450  0.00  0.00    -0.361 OA
HETATM   27  H   UNK     0     181.864 177.792 171.739  0.00  0.00     0.217 HD
ENDBRANCH  10  26
TORSDOF 6
