MODEL 1
REMARK VINA RESULT:      -8.6      0.000      0.000
REMARK  Name = 9823887
REMARK                            x       y       z     vdW  Elec       q    Type
REMARK                         _______ _______ _______ _____ _____    ______ ____
ROOT
ATOM      1  O   LIG    1      151.717 196.838 165.751  0.00  0.00    -0.341 OA
ATOM      2  C   LIG    1      152.705 195.945 165.241  0.00  0.00    +0.282 C 
ATOM      3  C   LIG    1      153.564 195.391 166.378  0.00  0.00    +0.201 C 
ATOM      4  C   LIG    1      152.702 194.758 167.470  0.00  0.00    +0.179 C 
ATOM      5  C   LIG    1      151.557 195.684 167.877  0.00  0.00    +0.177 C 
ATOM     22  C   LIG    1      150.806 196.195 166.645  0.00  0.00    +0.178 C 
ENDROOT
BRANCH   5   6
ATOM      6  O   LIG    1      150.652 194.974 168.719  0.00  0.00    -0.386 OA
ATOM      7  H   LIG    1      151.108 194.785 169.558  0.00  0.00    +0.210 HD
ENDBRANCH   5   6
BRANCH   4   8
ATOM      8  O   LIG    1      153.504 194.512 168.626  0.00  0.00    -0.386 OA
ATOM      9  H   LIG    1      153.687 193.558 168.656  0.00  0.00    +0.210 HD
ENDBRANCH   4   8
BRANCH   3  10
ATOM     10  O   LIG    1      154.442 194.405 165.835  0.00  0.00    -0.384 OA
ATOM     11  H   LIG    1      154.368 193.604 166.380  0.00  0.00    +0.210 HD
ENDBRANCH   3  10
BRANCH   2  12
ATOM     12  O   LIG    1      153.563 196.641 164.339  0.00  0.00    -0.345 OA
BRANCH  12  13
ATOM     13  C   LIG    1      152.946 197.818 163.842  0.00  0.00    +0.190 C 
BRANCH  13  14
ATOM     14  C   LIG    1      152.842 197.716 162.355  0.00  0.00    +0.001 C 
ATOM     15  C   LIG    1      151.910 198.360 161.635  0.00  0.00    +0.006 C 
BRANCH  15  16
ATOM     16  C   LIG    1      151.778 198.302 160.169  0.00  0.00    -0.025 A 
ATOM     17  C   LIG    1      152.513 197.366 159.458  0.00  0.00    +0.008 A 
ATOM     18  C   LIG    1      152.387 197.311 158.071  0.00  0.00    +0.001 A 
ATOM     19  C   LIG    1      151.531 198.193 157.411  0.00  0.00    +0.000 A 
ATOM     20  C   LIG    1      150.798 199.129 158.140  0.00  0.00    +0.001 A 
ATOM     21  C   LIG    1      150.923 199.184 159.529  0.00  0.00    +0.008 A 
ENDBRANCH  15  16
ENDBRANCH  13  14
ENDBRANCH  12  13
ENDBRANCH   2  12
BRANCH  22  23
ATOM     23  C   LIG    1      149.732 197.212 167.019  0.00  0.00    +0.197 C 
BRANCH  23  24
ATOM     24  O   LIG    1      148.469 196.575 166.962  0.00  0.00    -0.346 OA
BRANCH  24  25
ATOM     25  C   LIG    1      147.563 197.272 166.113  0.00  0.00    +0.281 C 
ATOM     26  C   LIG    1      147.137 196.366 164.948  0.00  0.00    +0.201 C 
ATOM     27  C   LIG    1      146.150 195.281 165.392  0.00  0.00    +0.178 C 
ATOM     28  C   LIG    1      145.017 195.903 166.210  0.00  0.00    +0.171 C 
ATOM     29  C   LIG    1      145.577 196.752 167.344  0.00  0.00    +0.197 C 
ATOM     36  O   LIG    1      146.431 197.773 166.833  0.00  0.00    -0.346 OA
BRANCH  28  30
ATOM     30  O   LIG    1      144.177 194.880 166.725  0.00  0.00    -0.387 OA
ATOM     31  H   LIG    1      144.687 194.052 166.724  0.00  0.00    +0.210 HD
ENDBRANCH  28  30
BRANCH  27  32
ATOM     32  O   LIG    1      146.831 194.314 166.189  0.00  0.00    -0.386 OA
ATOM     33  H   LIG    1      147.396 193.790 165.595  0.00  0.00    +0.210 HD
ENDBRANCH  27  32
BRANCH  26  34
ATOM     34  O   LIG    1      146.523 197.184 163.955  0.00  0.00    -0.384 OA
ATOM     35  H   LIG    1      145.780 197.659 164.363  0.00  0.00    +0.210 HD
ENDBRANCH  26  34
ENDBRANCH  24  25
ENDBRANCH  23  24
ENDBRANCH  22  23
TORSDOF 13
ENDMDL
MODEL 2
REMARK VINA RESULT:      -8.5     22.338     26.868
REMARK  Name = 9823887
REMARK                            x       y       z     vdW  Elec       q    Type
REMARK                         _______ _______ _______ _____ _____    ______ ____
ROOT
ATOM      1  O   LIG    1      166.602 180.744 171.758  0.00  0.00    -0.341 OA
ATOM      2  C   LIG    1      165.356 180.113 172.042  0.00  0.00    +0.282 C 
ATOM      3  C   LIG    1      165.298 178.727 171.397  0.00  0.00    +0.201 C 
ATOM      4  C   LIG    1      166.499 177.874 171.802  0.00  0.00    +0.179 C 
ATOM      5  C   LIG    1      167.808 178.645 171.632  0.00  0.00    +0.177 C 
ATOM     22  C   LIG    1      167.715 180.024 172.290  0.00  0.00    +0.178 C 
ENDROOT
BRANCH   5   6
ATOM      6  O   LIG    1      168.871 177.908 172.231  0.00  0.00    -0.386 OA
ATOM      7  H   LIG    1      168.478 177.188 172.755  0.00  0.00    +0.210 HD
ENDBRANCH   5   6
BRANCH   4   8
ATOM      8  O   LIG    1      166.560 176.713 170.972  0.00  0.00    -0.386 OA
ATOM      9  H   LIG    1      166.400 177.001 170.057  0.00  0.00    +0.210 HD
ENDBRANCH   4   8
BRANCH   3  10
ATOM     10  O   LIG    1      164.096 178.086 171.823  0.00  0.00    -0.384 OA
ATOM     11  H   LIG    1      164.229 177.125 171.764  0.00  0.00    +0.210 HD
ENDBRANCH   3  10
BRANCH   2  12
ATOM     12  O   LIG    1      164.287 180.892 171.508  0.00  0.00    -0.345 OA
BRANCH  12  13
ATOM     13  C   LIG    1      163.566 181.553 172.535  0.00  0.00    +0.190 C 
BRANCH  13  14
ATOM     14  C   LIG    1      162.533 180.618 173.076  0.00  0.00    +0.001 C 
ATOM     15  C   LIG    1      162.587 180.093 174.310  0.00  0.00    +0.006 C 
BRANCH  15  16
ATOM     16  C   LIG    1      161.587 179.181 174.890  0.00  0.00    -0.025 A 
ATOM     17  C   LIG    1      161.996 177.958 175.398  0.00  0.00    +0.008 A 
ATOM     18  C   LIG    1      161.048 177.096 175.947  0.00  0.00    +0.001 A 
ATOM     19  C   LIG    1      159.703 177.465 175.980  0.00  0.00    +0.000 A 
ATOM     20  C   LIG    1      159.306 178.698 175.464  0.00  0.00    +0.001 A 
ATOM     21  C   LIG    1      160.254 179.562 174.915  0.00  0.00    +0.008 A 
ENDBRANCH  15  16
ENDBRANCH  13  14
ENDBRANCH  12  13
ENDBRANCH   2  12
BRANCH  22  23
ATOM     23  C   LIG    1      168.968 180.858 172.033  0.00  0.00    +0.197 C 
BRANCH  23  24
ATOM     24  O   LIG    1      169.983 180.431 172.924  0.00  0.00    -0.346 OA
BRANCH  24  25
ATOM     25  C   LIG    1      171.271 180.869 172.505  0.00  0.00    +0.281 C 
ATOM     26  C   LIG    1      172.322 180.482 173.556  0.00  0.00    +0.201 C 
ATOM     27  C   LIG    1      172.639 178.983 173.530  0.00  0.00    +0.178 C 
ATOM     28  C   LIG    1      172.921 178.530 172.096  0.00  0.00    +0.171 C 
ATOM     29  C   LIG    1      171.793 178.955 171.166  0.00  0.00    +0.197 C 
ATOM     36  O   LIG    1      171.613 180.369 171.208  0.00  0.00    -0.346 OA
BRANCH  28  30
ATOM     30  O   LIG    1      173.088 177.119 172.060  0.00  0.00    -0.387 OA
ATOM     31  H   LIG    1      173.108 176.802 172.980  0.00  0.00    +0.210 HD
ENDBRANCH  28  30
BRANCH  27  32
ATOM     32  O   LIG    1      171.527 178.251 174.045  0.00  0.00    -0.386 OA
ATOM     33  H   LIG    1      170.787 178.874 174.145  0.00  0.00    +0.210 HD
ENDBRANCH  27  32
BRANCH  26  34
ATOM     34  O   LIG    1      173.511 181.220 173.284  0.00  0.00    -0.384 OA
ATOM     35  H   LIG    1      173.706 181.150 172.335  0.00  0.00    +0.210 HD
ENDBRANCH  26  34
ENDBRANCH  24  25
ENDBRANCH  23  24
ENDBRANCH  22  23
TORSDOF 13
ENDMDL
MODEL 3
REMARK VINA RESULT:      -8.5     25.910     28.204
REMARK  Name = 9823887
REMARK                            x       y       z     vdW  Elec       q    Type
REMARK                         _______ _______ _______ _____ _____    ______ ____
ROOT
ATOM      1  O   LIG    1      157.111 174.620 149.281  0.00  0.00    -0.341 OA
ATOM      2  C   LIG    1      158.226 175.307 149.846  0.00  0.00    +0.282 C 
ATOM      3  C   LIG    1      157.838 176.739 150.220  0.00  0.00    +0.201 C 
ATOM      4  C   LIG    1      156.607 176.764 151.125  0.00  0.00    +0.179 C 
ATOM      5  C   LIG    1      155.489 175.886 150.563  0.00  0.00    +0.177 C 
ATOM     22  C   LIG    1      156.021 174.498 150.196  0.00  0.00    +0.178 C 
ENDROOT
BRANCH   5   6
ATOM      6  O   LIG    1      154.459 175.753 151.539  0.00  0.00    -0.386 OA
ATOM      7  H   LIG    1      154.028 176.619 151.640  0.00  0.00    +0.210 HD
ENDBRANCH   5   6
BRANCH   4   8
ATOM      8  O   LIG    1      156.113 178.101 151.219  0.00  0.00    -0.386 OA
ATOM      9  H   LIG    1      155.569 178.266 150.430  0.00  0.00    +0.210 HD
ENDBRANCH   4   8
BRANCH   3  10
ATOM     10  O   LIG    1      158.941 177.336 150.902  0.00  0.00    -0.384 OA
ATOM     11  H   LIG    1      159.553 177.688 150.235  0.00  0.00    +0.210 HD
ENDBRANCH   3  10
BRANCH   2  12
ATOM     12  O   LIG    1      159.285 175.372 148.893  0.00  0.00    -0.345 OA
BRANCH  12  13
ATOM     13  C   LIG    1      159.791 174.081 148.593  0.00  0.00    +0.190 C 
BRANCH  13  14
ATOM     14  C   LIG    1      160.187 174.041 147.153  0.00  0.00    +0.001 C 
ATOM     15  C   LIG    1      159.695 173.151 146.277  0.00  0.00    +0.006 C 
BRANCH  15  16
ATOM     16  C   LIG    1      160.044 173.083 144.848  0.00  0.00    -0.025 A 
ATOM     17  C   LIG    1      161.304 173.488 144.437  0.00  0.00    +0.008 A 
ATOM     18  C   LIG    1      161.634 173.423 143.083  0.00  0.00    +0.001 A 
ATOM     19  C   LIG    1      160.701 172.956 142.158  0.00  0.00    +0.000 A 
ATOM     20  C   LIG    1      159.436 172.553 142.587  0.00  0.00    +0.001 A 
ATOM     21  C   LIG    1      159.106 172.617 143.941  0.00  0.00    +0.008 A 
ENDBRANCH  15  16
ENDBRANCH  13  14
ENDBRANCH  12  13
ENDBRANCH   2  12
BRANCH  22  23
ATOM     23  C   LIG    1      154.951 173.642 149.526  0.00  0.00    +0.197 C 
BRANCH  23  24
ATOM     24  O   LIG    1      153.914 174.492 149.070  0.00  0.00    -0.346 OA
BRANCH  24  25
ATOM     25  C   LIG    1      152.857 173.757 148.462  0.00  0.00    +0.281 C 
ATOM     26  C   LIG    1      152.051 173.013 149.538  0.00  0.00    +0.201 C 
ATOM     27  C   LIG    1      151.155 173.960 150.344  0.00  0.00    +0.178 C 
ATOM     28  C   LIG    1      150.351 174.855 149.399  0.00  0.00    +0.171 C 
ATOM     29  C   LIG    1      151.272 175.549 148.404  0.00  0.00    +0.197 C 
ATOM     36  O   LIG    1      152.017 174.591 147.656  0.00  0.00    -0.346 OA
BRANCH  28  30
ATOM     30  O   LIG    1      149.620 175.814 150.150  0.00  0.00    -0.387 OA
ATOM     31  H   LIG    1      149.095 176.340 149.523  0.00  0.00    +0.210 HD
ENDBRANCH  28  30
BRANCH  27  32
ATOM     32  O   LIG    1      151.962 174.774 151.192  0.00  0.00    -0.386 OA
ATOM     33  H   LIG    1      152.680 174.216 151.537  0.00  0.00    +0.210 HD
ENDBRANCH  27  32
BRANCH  26  34
ATOM     34  O   LIG    1      151.241 172.037 148.886  0.00  0.00    -0.384 OA
ATOM     35  H   LIG    1      150.343 172.395 148.793  0.00  0.00    +0.210 HD
ENDBRANCH  26  34
ENDBRANCH  24  25
ENDBRANCH  23  24
ENDBRANCH  22  23
TORSDOF 13
ENDMDL
MODEL 4
REMARK VINA RESULT:      -8.4     13.929     17.100
REMARK  Name = 9823887
REMARK                            x       y       z     vdW  Elec       q    Type
REMARK                         _______ _______ _______ _____ _____    ______ ____
ROOT
ATOM      1  O   LIG    1      162.004 187.846 160.246  0.00  0.00    -0.341 OA
ATOM      2  C   LIG    1      163.239 187.275 159.821  0.00  0.00    +0.282 C 
ATOM      3  C   LIG    1      163.052 185.800 159.464  0.00  0.00    +0.201 C 
ATOM      4  C   LIG    1      161.931 185.612 158.443  0.00  0.00    +0.179 C 
ATOM      5  C   LIG    1      160.672 186.372 158.857  0.00  0.00    +0.177 C 
ATOM     22  C   LIG    1      161.007 187.820 159.223  0.00  0.00    +0.178 C 
ENDROOT
BRANCH   5   6
ATOM      6  O   LIG    1      159.739 186.362 157.779  0.00  0.00    -0.386 OA
ATOM      7  H   LIG    1      160.222 186.580 156.963  0.00  0.00    +0.210 HD
ENDBRANCH   5   6
BRANCH   4   8
ATOM      8  O   LIG    1      161.600 184.225 158.350  0.00  0.00    -0.386 OA
ATOM      9  H   LIG    1      161.887 183.915 157.475  0.00  0.00    +0.210 HD
ENDBRANCH   4   8
BRANCH   3  10
ATOM     10  O   LIG    1      164.278 185.314 158.918  0.00  0.00    -0.384 OA
ATOM     11  H   LIG    1      164.084 184.907 158.057  0.00  0.00    +0.210 HD
ENDBRANCH   3  10
BRANCH   2  12
ATOM     12  O   LIG    1      164.196 187.355 160.876  0.00  0.00    -0.345 OA
BRANCH  12  13
ATOM     13  C   LIG    1      163.671 186.841 162.090  0.00  0.00    +0.190 C 
BRANCH  13  14
ATOM     14  C   LIG    1      164.719 186.004 162.751  0.00  0.00    +0.001 C 
ATOM     15  C   LIG    1      165.960 186.445 163.009  0.00  0.00    +0.006 C 
BRANCH  15  16
ATOM     16  C   LIG    1      167.018 185.662 163.670  0.00  0.00    -0.025 A 
ATOM     17  C   LIG    1      168.334 185.820 163.264  0.00  0.00    +0.008 A 
ATOM     18  C   LIG    1      169.335 185.079 163.890  0.00  0.00    +0.001 A 
ATOM     19  C   LIG    1      169.009 184.190 164.913  0.00  0.00    +0.000 A 
ATOM     20  C   LIG    1      167.681 184.041 165.312  0.00  0.00    +0.001 A 
ATOM     21  C   LIG    1      166.679 184.782 164.685  0.00  0.00    +0.008 A 
ENDBRANCH  15  16
ENDBRANCH  13  14
ENDBRANCH  12  13
ENDBRANCH   2  12
BRANCH  22  23
ATOM     23  C   LIG    1      159.786 188.567 159.751  0.00  0.00    +0.197 C 
BRANCH  23  24
ATOM     24  O   LIG    1      158.621 187.878 159.333  0.00  0.00    -0.346 OA
BRANCH  24  25
ATOM     25  C   LIG    1      157.603 187.911 160.327  0.00  0.00    +0.281 C 
ATOM     26  C   LIG    1      156.220 187.821 159.663  0.00  0.00    +0.201 C 
ATOM     27  C   LIG    1      155.915 186.407 159.157  0.00  0.00    +0.178 C 
ATOM     28  C   LIG    1      156.202 185.382 160.255  0.00  0.00    +0.171 C 
ATOM     29  C   LIG    1      157.609 185.566 160.808  0.00  0.00    +0.197 C 
ATOM     36  O   LIG    1      157.781 186.888 161.314  0.00  0.00    -0.346 OA
BRANCH  28  30
ATOM     30  O   LIG    1      156.039 184.067 159.742  0.00  0.00    -0.387 OA
ATOM     31  H   LIG    1      156.292 184.085 158.803  0.00  0.00    +0.210 HD
ENDBRANCH  28  30
BRANCH  27  32
ATOM     32  O   LIG    1      156.728 186.120 158.021  0.00  0.00    -0.386 OA
ATOM     33  H   LIG    1      156.154 185.724 157.342  0.00  0.00    +0.210 HD
ENDBRANCH  27  32
BRANCH  26  34
ATOM     34  O   LIG    1      155.242 188.199 160.628  0.00  0.00    -0.384 OA
ATOM     35  H   LIG    1      154.449 188.507 160.159  0.00  0.00    +0.210 HD
ENDBRANCH  26  34
ENDBRANCH  24  25
ENDBRANCH  23  24
ENDBRANCH  22  23
TORSDOF 13
ENDMDL
MODEL 5
REMARK VINA RESULT:      -8.3      3.308      5.393
REMARK  Name = 9823887
REMARK                            x       y       z     vdW  Elec       q    Type
REMARK                         _______ _______ _______ _____ _____    ______ ____
ROOT
ATOM      1  O   LIG    1      153.392 198.960 164.345  0.00  0.00    -0.341 OA
ATOM      2  C   LIG    1      152.848 200.242 164.040  0.00  0.00    +0.282 C 
ATOM      3  C   LIG    1      152.240 200.877 165.291  0.00  0.00    +0.201 C 
ATOM      4  C   LIG    1      153.247 200.920 166.440  0.00  0.00    +0.179 C 
ATOM      5  C   LIG    1      153.926 199.564 166.632  0.00  0.00    +0.177 C 
ATOM     22  C   LIG    1      154.454 199.027 165.299  0.00  0.00    +0.178 C 
ENDROOT
BRANCH   5   6
ATOM      6  O   LIG    1      155.010 199.704 167.546  0.00  0.00    -0.386 OA
ATOM      7  H   LIG    1      154.653 199.622 168.448  0.00  0.00    +0.210 HD
ENDBRANCH   5   6
BRANCH   4   8
ATOM      8  O   LIG    1      152.570 201.251 167.654  0.00  0.00    -0.386 OA
ATOM      9  H   LIG    1      153.154 200.999 168.390  0.00  0.00    +0.210 HD
ENDBRANCH   4   8
BRANCH   3  10
ATOM     10  O   LIG    1      151.836 202.207 164.965  0.00  0.00    -0.384 OA
ATOM     11  H   LIG    1      151.103 202.452 165.554  0.00  0.00    +0.210 HD
ENDBRANCH   3  10
BRANCH   2  12
ATOM     12  O   LIG    1      151.815 200.108 163.067  0.00  0.00    -0.345 OA
BRANCH  12  13
ATOM     13  C   LIG    1      151.719 198.774 162.595  0.00  0.00    +0.190 C 
BRANCH  13  14
ATOM     14  C   LIG    1      151.781 198.785 161.101  0.00  0.00    +0.001 C 
ATOM     15  C   LIG    1      152.000 197.686 160.364  0.00  0.00    +0.006 C 
BRANCH  15  16
ATOM     16  C   LIG    1      152.055 197.647 158.892  0.00  0.00    -0.025 A 
ATOM     17  C   LIG    1      152.841 196.692 158.267  0.00  0.00    +0.008 A 
ATOM     18  C   LIG    1      152.893 196.656 156.874  0.00  0.00    +0.001 A 
ATOM     19  C   LIG    1      152.159 197.575 156.124  0.00  0.00    +0.000 A 
ATOM     20  C   LIG    1      151.373 198.531 156.767  0.00  0.00    +0.001 A 
ATOM     21  C   LIG    1      151.321 198.567 158.161  0.00  0.00    +0.008 A 
ENDBRANCH  15  16
ENDBRANCH  13  14
ENDBRANCH  12  13
ENDBRANCH   2  12
BRANCH  22  23
ATOM     23  C   LIG    1      155.032 197.622 165.445  0.00  0.00    +0.197 C 
BRANCH  23  24
ATOM     24  O   LIG    1      154.438 197.006 166.572  0.00  0.00    -0.346 OA
BRANCH  24  25
ATOM     25  C   LIG    1      153.967 195.696 166.271  0.00  0.00    +0.281 C 
ATOM     26  C   LIG    1      154.022 194.818 167.531  0.00  0.00    +0.201 C 
ATOM     27  C   LIG    1      152.914 195.170 168.528  0.00  0.00    +0.178 C 
ATOM     28  C   LIG    1      151.563 195.236 167.813  0.00  0.00    +0.171 C 
ATOM     29  C   LIG    1      151.641 196.157 166.602  0.00  0.00    +0.197 C 
ATOM     36  O   LIG    1      152.654 195.716 165.700  0.00  0.00    -0.346 OA
BRANCH  28  30
ATOM     30  O   LIG    1      150.561 195.686 168.714  0.00  0.00    -0.387 OA
ATOM     31  H   LIG    1      150.139 194.900 169.101  0.00  0.00    +0.210 HD
ENDBRANCH  28  30
BRANCH  27  32
ATOM     32  O   LIG    1      153.193 196.435 169.125  0.00  0.00    -0.386 OA
ATOM     33  H   LIG    1      154.046 196.744 168.773  0.00  0.00    +0.210 HD
ENDBRANCH  27  32
BRANCH  26  34
ATOM     34  O   LIG    1      153.879 193.458 167.126  0.00  0.00    -0.384 OA
ATOM     35  H   LIG    1      154.748 193.128 166.843  0.00  0.00    +0.210 HD
ENDBRANCH  26  34
ENDBRANCH  24  25
ENDBRANCH  23  24
ENDBRANCH  22  23
TORSDOF 13
ENDMDL
MODEL 6
REMARK VINA RESULT:      -8.3     22.575     26.746
REMARK  Name = 9823887
REMARK                            x       y       z     vdW  Elec       q    Type
REMARK                         _______ _______ _______ _____ _____    ______ ____
ROOT
ATOM      1  O   LIG    1      166.305 180.682 171.788  0.00  0.00    -0.341 OA
ATOM      2  C   LIG    1      165.202 179.902 172.242  0.00  0.00    +0.282 C 
ATOM      3  C   LIG    1      165.265 178.492 171.653  0.00  0.00    +0.201 C 
ATOM      4  C   LIG    1      166.613 177.831 171.933  0.00  0.00    +0.179 C 
ATOM      5  C   LIG    1      167.771 178.763 171.581  0.00  0.00    +0.177 C 
ATOM     22  C   LIG    1      167.563 180.147 172.202  0.00  0.00    +0.178 C 
ENDROOT
BRANCH   5   6
ATOM      6  O   LIG    1      168.990 178.207 172.067  0.00  0.00    -0.386 OA
ATOM      7  H   LIG    1      168.789 177.339 172.458  0.00  0.00    +0.210 HD
ENDBRANCH   5   6
BRANCH   4   8
ATOM      8  O   LIG    1      166.739 176.651 171.138  0.00  0.00    -0.386 OA
ATOM      9  H   LIG    1      167.280 176.017 171.641  0.00  0.00    +0.210 HD
ENDBRANCH   4   8
BRANCH   3  10
ATOM     10  O   LIG    1      164.223 177.714 172.242  0.00  0.00    -0.384 OA
ATOM     11  H   LIG    1      163.413 177.852 171.723  0.00  0.00    +0.210 HD
ENDBRANCH   3  10
BRANCH   2  12
ATOM     12  O   LIG    1      163.979 180.502 171.819  0.00  0.00    -0.345 OA
BRANCH  12  13
ATOM     13  C   LIG    1      163.298 181.109 172.906  0.00  0.00    +0.190 C 
BRANCH  13  14
ATOM     14  C   LIG    1      162.241 180.173 173.395  0.00  0.00    +0.001 C 
ATOM     15  C   LIG    1      162.157 179.756 174.668  0.00  0.00    +0.006 C 
BRANCH  15  16
ATOM     16  C   LIG    1      161.125 178.847 175.198  0.00  0.00    -0.025 A 
ATOM     17  C   LIG    1      159.806 179.269 175.242  0.00  0.00    +0.008 A 
ATOM     18  C   LIG    1      158.831 178.408 175.744  0.00  0.00    +0.001 A 
ATOM     19  C   LIG    1      159.186 177.138 176.196  0.00  0.00    +0.000 A 
ATOM     20  C   LIG    1      160.518 176.727 176.146  0.00  0.00    +0.001 A 
ATOM     21  C   LIG    1      161.494 177.588 175.644  0.00  0.00    +0.008 A 
ENDBRANCH  15  16
ENDBRANCH  13  14
ENDBRANCH  12  13
ENDBRANCH   2  12
BRANCH  22  23
ATOM     23  C   LIG    1      168.647 181.130 171.768  0.00  0.00    +0.197 C 
BRANCH  23  24
ATOM     24  O   LIG    1      169.864 180.761 172.390  0.00  0.00    -0.346 OA
BRANCH  24  25
ATOM     25  C   LIG    1      170.978 180.949 171.523  0.00  0.00    +0.281 C 
ATOM     26  C   LIG    1      171.923 182.009 172.109  0.00  0.00    +0.201 C 
ATOM     27  C   LIG    1      172.725 181.472 173.299  0.00  0.00    +0.178 C 
ATOM     28  C   LIG    1      173.361 180.128 172.942  0.00  0.00    +0.171 C 
ATOM     29  C   LIG    1      172.312 179.165 172.399  0.00  0.00    +0.197 C 
ATOM     36  O   LIG    1      171.664 179.721 171.257  0.00  0.00    -0.346 OA
BRANCH  28  30
ATOM     30  O   LIG    1      173.996 179.575 174.086  0.00  0.00    -0.387 OA
ATOM     31  H   LIG    1      174.937 179.456 173.872  0.00  0.00    +0.210 HD
ENDBRANCH  28  30
BRANCH  27  32
ATOM     32  O   LIG    1      171.859 181.301 174.420  0.00  0.00    -0.386 OA
ATOM     33  H   LIG    1      172.227 181.821 175.156  0.00  0.00    +0.210 HD
ENDBRANCH  27  32
BRANCH  26  34
ATOM     34  O   LIG    1      172.821 182.416 171.079  0.00  0.00    -0.384 OA
ATOM     35  H   LIG    1      173.528 181.753 171.007  0.00  0.00    +0.210 HD
ENDBRANCH  26  34
ENDBRANCH  24  25
ENDBRANCH  23  24
ENDBRANCH  22  23
TORSDOF 13
ENDMDL
MODEL 7
REMARK VINA RESULT:      -8.1     21.570     25.638
REMARK  Name = 9823887
REMARK                            x       y       z     vdW  Elec       q    Type
REMARK                         _______ _______ _______ _____ _____    ______ ____
ROOT
ATOM      1  O   LIG    1      171.532 182.891 168.543  0.00  0.00    -0.341 OA
ATOM      2  C   LIG    1      172.149 183.969 167.843  0.00  0.00    +0.282 C 
ATOM      3  C   LIG    1      171.699 185.311 168.423  0.00  0.00    +0.201 C 
ATOM      4  C   LIG    1      171.934 185.372 169.931  0.00  0.00    +0.179 C 
ATOM      5  C   LIG    1      171.400 184.122 170.627  0.00  0.00    +0.177 C 
ATOM     22  C   LIG    1      171.895 182.855 169.924  0.00  0.00    +0.178 C 
ENDROOT
BRANCH   5   6
ATOM      6  O   LIG    1      171.840 184.111 171.983  0.00  0.00    -0.386 OA
ATOM      7  H   LIG    1      171.483 184.904 172.420  0.00  0.00    +0.210 HD
ENDBRANCH   5   6
BRANCH   4   8
ATOM      8  O   LIG    1      171.253 186.505 170.473  0.00  0.00    -0.386 OA
ATOM      9  H   LIG    1      171.183 187.168 169.766  0.00  0.00    +0.210 HD
ENDBRANCH   4   8
BRANCH   3  10
ATOM     10  O   LIG    1      172.444 186.346 167.783  0.00  0.00    -0.384 OA
ATOM     11  H   LIG    1      171.882 186.740 167.094  0.00  0.00    +0.210 HD
ENDBRANCH   3  10
BRANCH   2  12
ATOM     12  O   LIG    1      171.768 183.933 166.469  0.00  0.00    -0.345 OA
BRANCH  12  13
ATOM     13  C   LIG    1      170.710 183.012 166.250  0.00  0.00    +0.190 C 
BRANCH  13  14
ATOM     14  C   LIG    1      169.531 183.754 165.708  0.00  0.00    +0.001 C 
ATOM     15  C   LIG    1      169.512 184.320 164.491  0.00  0.00    +0.006 C 
BRANCH  15  16
ATOM     16  C   LIG    1      168.369 185.046 163.911  0.00  0.00    -0.025 A 
ATOM     17  C   LIG    1      167.109 184.471 163.948  0.00  0.00    +0.008 A 
ATOM     18  C   LIG    1      166.028 185.160 163.399  0.00  0.00    +0.001 A 
ATOM     19  C   LIG    1      166.220 186.413 162.817  0.00  0.00    +0.000 A 
ATOM     20  C   LIG    1      167.494 186.979 162.786  0.00  0.00    +0.001 A 
ATOM     21  C   LIG    1      168.576 186.290 163.337  0.00  0.00    +0.008 A 
ENDBRANCH  15  16
ENDBRANCH  13  14
ENDBRANCH  12  13
ENDBRANCH   2  12
BRANCH  22  23
ATOM     23  C   LIG    1      171.281 181.596 170.529  0.00  0.00    +0.197 C 
BRANCH  23  24
ATOM     24  O   LIG    1      171.952 181.306 171.742  0.00  0.00    -0.346 OA
BRANCH  24  25
ATOM     25  C   LIG    1      172.369 179.946 171.802  0.00  0.00    +0.281 C 
ATOM     26  C   LIG    1      173.249 179.724 173.042  0.00  0.00    +0.201 C 
ATOM     27  C   LIG    1      172.429 179.705 174.336  0.00  0.00    +0.178 C 
ATOM     28  C   LIG    1      171.229 178.768 174.185  0.00  0.00    +0.171 C 
ATOM     29  C   LIG    1      170.431 179.113 172.934  0.00  0.00    +0.197 C 
ATOM     36  O   LIG    1      171.259 179.042 171.775  0.00  0.00    -0.346 OA
BRANCH  28  30
ATOM     30  O   LIG    1      170.404 178.852 175.339  0.00  0.00    -0.387 OA
ATOM     31  H   LIG    1      169.547 179.220 175.061  0.00  0.00    +0.210 HD
ENDBRANCH  28  30
BRANCH  27  32
ATOM     32  O   LIG    1      171.964 181.023 174.625  0.00  0.00    -0.386 OA
ATOM     33  H   LIG    1      172.468 181.640 174.068  0.00  0.00    +0.210 HD
ENDBRANCH  27  32
BRANCH  26  34
ATOM     34  O   LIG    1      173.918 178.474 172.889  0.00  0.00    -0.384 OA
ATOM     35  H   LIG    1      174.853 178.648 172.688  0.00  0.00    +0.210 HD
ENDBRANCH  26  34
ENDBRANCH  24  25
ENDBRANCH  23  24
ENDBRANCH  22  23
TORSDOF 13
ENDMDL
MODEL 8
REMARK VINA RESULT:      -8.1     22.205     26.836
REMARK  Name = 9823887
REMARK                            x       y       z     vdW  Elec       q    Type
REMARK                         _______ _______ _______ _____ _____    ______ ____
ROOT
ATOM      1  O   LIG    1      166.695 178.549 171.668  0.00  0.00    -0.341 OA
ATOM      2  C   LIG    1      165.532 179.261 171.254  0.00  0.00    +0.282 C 
ATOM      3  C   LIG    1      165.667 180.748 171.584  0.00  0.00    +0.201 C 
ATOM      4  C   LIG    1      166.955 181.331 171.005  0.00  0.00    +0.179 C 
ATOM      5  C   LIG    1      168.160 180.452 171.338  0.00  0.00    +0.177 C 
ATOM     22  C   LIG    1      167.876 178.988 170.994  0.00  0.00    +0.178 C 
ENDROOT
BRANCH   5   6
ATOM      6  O   LIG    1      169.291 180.900 170.595  0.00  0.00    -0.386 OA
ATOM      7  H   LIG    1      170.092 180.639 171.081  0.00  0.00    +0.210 HD
ENDBRANCH   5   6
BRANCH   4   8
ATOM      8  O   LIG    1      167.185 182.625 171.565  0.00  0.00    -0.386 OA
ATOM      9  H   LIG    1      167.956 183.006 171.111  0.00  0.00    +0.210 HD
ENDBRANCH   4   8
BRANCH   3  10
ATOM     10  O   LIG    1      164.545 181.433 171.029  0.00  0.00    -0.384 OA
ATOM     11  H   LIG    1      163.738 181.044 171.406  0.00  0.00    +0.210 HD
ENDBRANCH   3  10
BRANCH   2  12
ATOM     12  O   LIG    1      164.388 178.759 171.943  0.00  0.00    -0.345 OA
BRANCH  12  13
ATOM     13  C   LIG    1      164.621 178.678 173.340  0.00  0.00    +0.190 C 
BRANCH  13  14
ATOM     14  C   LIG    1      163.312 178.485 174.036  0.00  0.00    +0.001 C 
ATOM     15  C   LIG    1      162.293 179.354 173.943  0.00  0.00    +0.006 C 
BRANCH  15  16
ATOM     16  C   LIG    1      160.983 179.198 174.598  0.00  0.00    -0.025 A 
ATOM     17  C   LIG    1      160.765 178.112 175.432  0.00  0.00    +0.008 A 
ATOM     18  C   LIG    1      159.524 177.966 176.051  0.00  0.00    +0.001 A 
ATOM     19  C   LIG    1      158.517 178.905 175.829  0.00  0.00    +0.000 A 
ATOM     20  C   LIG    1      158.751 179.993 174.988  0.00  0.00    +0.001 A 
ATOM     21  C   LIG    1      159.992 180.140 174.368  0.00  0.00    +0.008 A 
ENDBRANCH  15  16
ENDBRANCH  13  14
ENDBRANCH  12  13
ENDBRANCH   2  12
BRANCH  22  23
ATOM     23  C   LIG    1      169.019 178.074 171.425  0.00  0.00    +0.197 C 
BRANCH  23  24
ATOM     24  O   LIG    1      169.848 178.784 172.327  0.00  0.00    -0.346 OA
BRANCH  24  25
ATOM     25  C   LIG    1      170.915 177.976 172.811  0.00  0.00    +0.281 C 
ATOM     26  C   LIG    1      172.079 177.991 171.808  0.00  0.00    +0.201 C 
ATOM     27  C   LIG    1      172.846 179.318 171.835  0.00  0.00    +0.178 C 
ATOM     28  C   LIG    1      173.195 179.695 173.276  0.00  0.00    +0.171 C 
ATOM     29  C   LIG    1      171.952 179.664 174.155  0.00  0.00    +0.197 C 
ATOM     36  O   LIG    1      171.342 178.376 174.119  0.00  0.00    -0.346 OA
BRANCH  28  30
ATOM     30  O   LIG    1      173.792 180.983 173.306  0.00  0.00    -0.387 OA
ATOM     31  H   LIG    1      174.756 180.862 173.249  0.00  0.00    +0.210 HD
ENDBRANCH  28  30
BRANCH  27  32
ATOM     32  O   LIG    1      172.042 180.346 171.260  0.00  0.00    -0.386 OA
ATOM     33  H   LIG    1      172.104 180.261 170.293  0.00  0.00    +0.210 HD
ENDBRANCH  27  32
BRANCH  26  34
ATOM     34  O   LIG    1      172.965 176.926 172.144  0.00  0.00    -0.384 OA
ATOM     35  H   LIG    1      173.743 176.978 171.564  0.00  0.00    +0.210 HD
ENDBRANCH  26  34
ENDBRANCH  24  25
ENDBRANCH  23  24
ENDBRANCH  22  23
TORSDOF 13
ENDMDL
MODEL 9
REMARK VINA RESULT:      -8.1     12.592     15.762
REMARK  Name = 9823887
REMARK                            x       y       z     vdW  Elec       q    Type
REMARK                         _______ _______ _______ _____ _____    ______ ____
ROOT
ATOM      1  O   LIG    1      160.578 186.757 159.390  0.00  0.00    -0.341 OA
ATOM      2  C   LIG    1      160.943 186.207 160.654  0.00  0.00    +0.282 C 
ATOM      3  C   LIG    1      160.815 187.261 161.754  0.00  0.00    +0.201 C 
ATOM      4  C   LIG    1      159.423 187.891 161.762  0.00  0.00    +0.179 C 
ATOM      5  C   LIG    1      159.002 188.324 160.358  0.00  0.00    +0.177 C 
ATOM     22  C   LIG    1      159.218 187.190 159.352  0.00  0.00    +0.178 C 
ENDROOT
BRANCH   5   6
ATOM      6  O   LIG    1      157.625 188.689 160.369  0.00  0.00    -0.386 OA
ATOM      7  H   LIG    1      157.170 188.124 161.016  0.00  0.00    +0.210 HD
ENDBRANCH   5   6
BRANCH   4   8
ATOM      8  O   LIG    1      159.429 189.050 162.598  0.00  0.00    -0.386 OA
ATOM      9  H   LIG    1      159.770 189.790 162.066  0.00  0.00    +0.210 HD
ENDBRANCH   4   8
BRANCH   3  10
ATOM     10  O   LIG    1      161.056 186.628 163.010  0.00  0.00    -0.384 OA
ATOM     11  H   LIG    1      160.216 186.256 163.326  0.00  0.00    +0.210 HD
ENDBRANCH   3  10
BRANCH   2  12
ATOM     12  O   LIG    1      162.300 185.771 160.616  0.00  0.00    -0.345 OA
BRANCH  12  13
ATOM     13  C   LIG    1      163.180 186.845 160.323  0.00  0.00    +0.190 C 
BRANCH  13  14
ATOM     14  C   LIG    1      164.426 186.682 161.131  0.00  0.00    +0.001 C 
ATOM     15  C   LIG    1      164.468 186.845 162.463  0.00  0.00    +0.006 C 
BRANCH  15  16
ATOM     16  C   LIG    1      165.667 186.680 163.302  0.00  0.00    -0.025 A 
ATOM     17  C   LIG    1      166.921 186.752 162.716  0.00  0.00    +0.008 A 
ATOM     18  C   LIG    1      168.056 186.597 163.510  0.00  0.00    +0.001 A 
ATOM     19  C   LIG    1      167.924 186.370 164.880  0.00  0.00    +0.000 A 
ATOM     20  C   LIG    1      166.656 186.300 165.456  0.00  0.00    +0.001 A 
ATOM     21  C   LIG    1      165.520 186.456 164.661  0.00  0.00    +0.008 A 
ENDBRANCH  15  16
ENDBRANCH  13  14
ENDBRANCH  12  13
ENDBRANCH   2  12
BRANCH  22  23
ATOM     23  C   LIG    1      158.915 187.636 157.924  0.00  0.00    +0.197 C 
BRANCH  23  24
ATOM     24  O   LIG    1      157.535 187.939 157.830  0.00  0.00    -0.346 OA
BRANCH  24  25
ATOM     25  C   LIG    1      156.838 186.986 157.035  0.00  0.00    +0.281 C 
ATOM     26  C   LIG    1      155.988 186.076 157.935  0.00  0.00    +0.201 C 
ATOM     27  C   LIG    1      154.743 186.793 158.468  0.00  0.00    +0.178 C 
ATOM     28  C   LIG    1      154.004 187.487 157.322  0.00  0.00    +0.171 C 
ATOM     29  C   LIG    1      154.955 188.374 156.529  0.00  0.00    +0.197 C 
ATOM     36  O   LIG    1      156.046 187.611 156.019  0.00  0.00    -0.346 OA
BRANCH  28  30
ATOM     30  O   LIG    1      152.925 188.254 157.838  0.00  0.00    -0.387 OA
ATOM     31  H   LIG    1      152.538 187.755 158.579  0.00  0.00    +0.210 HD
ENDBRANCH  28  30
BRANCH  27  32
ATOM     32  O   LIG    1      155.130 187.767 159.436  0.00  0.00    -0.386 OA
ATOM     33  H   LIG    1      154.347 187.973 159.974  0.00  0.00    +0.210 HD
ENDBRANCH  27  32
BRANCH  26  34
ATOM     34  O   LIG    1      155.588 184.945 157.166  0.00  0.00    -0.384 OA
ATOM     35  H   LIG    1      154.727 185.138 156.759  0.00  0.00    +0.210 HD
ENDBRANCH  26  34
ENDBRANCH  24  25
ENDBRANCH  23  24
ENDBRANCH  22  23
TORSDOF 13
ENDMDL
