MODEL 1
REMARK VINA RESULT:      -8.2      0.000      0.000
REMARK  Name = 9823887
REMARK                            x       y       z     vdW  Elec       q    Type
REMARK                         _______ _______ _______ _____ _____    ______ ____
ROOT
ATOM      1  O   LIG    1      152.876 155.493 151.665  0.00  0.00    -0.341 OA
ATOM      2  C   LIG    1      153.206 154.141 151.977  0.00  0.00    +0.282 C 
ATOM      3  C   LIG    1      154.670 153.857 151.641  0.00  0.00    +0.201 C 
ATOM      4  C   LIG    1      155.602 154.864 152.313  0.00  0.00    +0.179 C 
ATOM      5  C   LIG    1      155.123 156.297 152.088  0.00  0.00    +0.177 C 
ATOM     22  C   LIG    1      153.636 156.433 152.426  0.00  0.00    +0.178 C 
ENDROOT
BRANCH   5   6
ATOM      6  O   LIG    1      155.877 157.182 152.914  0.00  0.00    -0.386 OA
ATOM      7  H   LIG    1      155.507 157.140 153.813  0.00  0.00    +0.210 HD
ENDBRANCH   5   6
BRANCH   4   8
ATOM      8  O   LIG    1      156.913 154.744 151.757  0.00  0.00    -0.386 OA
ATOM      9  H   LIG    1      157.170 155.621 151.428  0.00  0.00    +0.210 HD
ENDBRANCH   4   8
BRANCH   3  10
ATOM     10  O   LIG    1      154.986 152.541 152.096  0.00  0.00    -0.384 OA
ATOM     11  H   LIG    1      155.912 152.357 151.868  0.00  0.00    +0.210 HD
ENDBRANCH   3  10
BRANCH   2  12
ATOM     12  O   LIG    1      152.396 153.257 151.205  0.00  0.00    -0.345 OA
BRANCH  12  13
ATOM     13  C   LIG    1      152.355 153.650 149.843  0.00  0.00    +0.190 C 
BRANCH  13  14
ATOM     14  C   LIG    1      152.489 152.433 148.986  0.00  0.00    +0.001 C 
ATOM     15  C   LIG    1      151.640 152.135 147.990  0.00  0.00    +0.006 C 
BRANCH  15  16
ATOM     16  C   LIG    1      151.741 150.956 147.112  0.00  0.00    -0.025 A 
ATOM     17  C   LIG    1      150.595 150.454 146.515  0.00  0.00    +0.008 A 
ATOM     18  C   LIG    1      150.692 149.339 145.684  0.00  0.00    +0.001 A 
ATOM     19  C   LIG    1      151.931 148.739 145.460  0.00  0.00    +0.000 A 
ATOM     20  C   LIG    1      153.075 149.255 146.068  0.00  0.00    +0.001 A 
ATOM     21  C   LIG    1      152.979 150.371 146.900  0.00  0.00    +0.008 A 
ENDBRANCH  15  16
ENDBRANCH  13  14
ENDBRANCH  12  13
ENDBRANCH   2  12
BRANCH  22  23
ATOM     23  C   LIG    1      153.107 157.826 152.099  0.00  0.00    +0.197 C 
BRANCH  23  24
ATOM     24  O   LIG    1      154.072 158.502 151.315  0.00  0.00    -0.346 OA
BRANCH  24  25
ATOM     25  C   LIG    1      153.545 158.896 150.052  0.00  0.00    +0.281 C 
ATOM     26  C   LIG    1      154.119 160.263 149.650  0.00  0.00    +0.201 C 
ATOM     27  C   LIG    1      155.580 160.164 149.198  0.00  0.00    +0.178 C 
ATOM     28  C   LIG    1      155.740 159.039 148.174  0.00  0.00    +0.171 C 
ATOM     29  C   LIG    1      155.153 157.739 148.709  0.00  0.00    +0.197 C 
ATOM     36  O   LIG    1      153.777 157.908 149.042  0.00  0.00    -0.346 OA
BRANCH  28  30
ATOM     30  O   LIG    1      157.114 158.869 147.855  0.00  0.00    -0.387 OA
ATOM     31  H   LIG    1      157.585 159.668 148.148  0.00  0.00    +0.210 HD
ENDBRANCH  28  30
BRANCH  27  32
ATOM     32  O   LIG    1      156.411 159.896 150.326  0.00  0.00    -0.386 OA
ATOM     33  H   LIG    1      157.334 160.031 150.048  0.00  0.00    +0.210 HD
ENDBRANCH  27  32
BRANCH  26  34
ATOM     34  O   LIG    1      153.328 160.775 148.580  0.00  0.00    -0.384 OA
ATOM     35  H   LIG    1      153.865 160.772 147.771  0.00  0.00    +0.210 HD
ENDBRANCH  26  34
ENDBRANCH  24  25
ENDBRANCH  23  24
ENDBRANCH  22  23
TORSDOF 13
ENDMDL
MODEL 2
REMARK VINA RESULT:      -8.0      1.589      2.222
REMARK  Name = 9823887
REMARK                            x       y       z     vdW  Elec       q    Type
REMARK                         _______ _______ _______ _____ _____    ______ ____
ROOT
ATOM      1  O   LIG    1      153.626 155.589 150.308  0.00  0.00    -0.341 OA
ATOM      2  C   LIG    1      153.997 154.230 150.532  0.00  0.00    +0.282 C 
ATOM      3  C   LIG    1      155.213 154.152 151.456  0.00  0.00    +0.201 C 
ATOM      4  C   LIG    1      154.975 154.923 152.754  0.00  0.00    +0.179 C 
ATOM      5  C   LIG    1      154.426 156.321 152.475  0.00  0.00    +0.177 C 
ATOM     22  C   LIG    1      153.240 156.257 151.510  0.00  0.00    +0.178 C 
ENDROOT
BRANCH   5   6
ATOM      6  O   LIG    1      154.005 156.916 153.700  0.00  0.00    -0.386 OA
ATOM      7  H   LIG    1      153.057 156.729 153.814  0.00  0.00    +0.210 HD
ENDBRANCH   5   6
BRANCH   4   8
ATOM      8  O   LIG    1      156.212 155.066 153.455  0.00  0.00    -0.386 OA
ATOM      9  H   LIG    1      156.641 154.193 153.469  0.00  0.00    +0.210 HD
ENDBRANCH   4   8
BRANCH   3  10
ATOM     10  O   LIG    1      155.458 152.779 151.757  0.00  0.00    -0.384 OA
ATOM     11  H   LIG    1      156.418 152.656 151.843  0.00  0.00    +0.210 HD
ENDBRANCH   3  10
BRANCH   2  12
ATOM     12  O   LIG    1      154.345 153.615 149.293  0.00  0.00    -0.345 OA
BRANCH  12  13
ATOM     13  C   LIG    1      153.302 152.776 148.821  0.00  0.00    +0.190 C 
BRANCH  13  14
ATOM     14  C   LIG    1      153.762 152.091 147.575  0.00  0.00    +0.001 C 
ATOM     15  C   LIG    1      153.167 150.998 147.073  0.00  0.00    +0.006 C 
BRANCH  15  16
ATOM     16  C   LIG    1      153.575 150.298 145.843  0.00  0.00    -0.025 A 
ATOM     17  C   LIG    1      153.559 148.913 145.811  0.00  0.00    +0.008 A 
ATOM     18  C   LIG    1      153.945 148.252 144.646  0.00  0.00    +0.001 A 
ATOM     19  C   LIG    1      154.344 148.983 143.527  0.00  0.00    +0.000 A 
ATOM     20  C   LIG    1      154.356 150.377 143.574  0.00  0.00    +0.001 A 
ATOM     21  C   LIG    1      153.969 151.038 144.739  0.00  0.00    +0.008 A 
ENDBRANCH  15  16
ENDBRANCH  13  14
ENDBRANCH  12  13
ENDBRANCH   2  12
BRANCH  22  23
ATOM     23  C   LIG    1      152.749 157.649 151.125  0.00  0.00    +0.197 C 
BRANCH  23  24
ATOM     24  O   LIG    1      153.469 158.083 149.985  0.00  0.00    -0.346 OA
BRANCH  24  25
ATOM     25  C   LIG    1      154.311 159.191 150.282  0.00  0.00    +0.281 C 
ATOM     26  C   LIG    1      155.781 158.808 150.052  0.00  0.00    +0.201 C 
ATOM     27  C   LIG    1      156.129 158.727 148.562  0.00  0.00    +0.178 C 
ATOM     28  C   LIG    1      155.640 159.983 147.838  0.00  0.00    +0.171 C 
ATOM     29  C   LIG    1      154.166 160.232 148.132  0.00  0.00    +0.197 C 
ATOM     36  O   LIG    1      153.947 160.357 149.535  0.00  0.00    -0.346 OA
BRANCH  28  30
ATOM     30  O   LIG    1      155.851 159.846 146.440  0.00  0.00    -0.387 OA
ATOM     31  H   LIG    1      155.544 160.666 146.015  0.00  0.00    +0.210 HD
ENDBRANCH  28  30
BRANCH  27  32
ATOM     32  O   LIG    1      155.506 157.579 147.988  0.00  0.00    -0.386 OA
ATOM     33  H   LIG    1      155.864 157.471 147.090  0.00  0.00    +0.210 HD
ENDBRANCH  27  32
BRANCH  26  34
ATOM     34  O   LIG    1      156.597 159.797 150.675  0.00  0.00    -0.384 OA
ATOM     35  H   LIG    1      156.026 160.525 150.971  0.00  0.00    +0.210 HD
ENDBRANCH  26  34
ENDBRANCH  24  25
ENDBRANCH  23  24
ENDBRANCH  22  23
TORSDOF 13
ENDMDL
MODEL 3
REMARK VINA RESULT:      -8.0      4.668      8.045
REMARK  Name = 9823887
REMARK                            x       y       z     vdW  Elec       q    Type
REMARK                         _______ _______ _______ _____ _____    ______ ____
ROOT
ATOM      1  O   LIG    1      152.939 149.617 146.378  0.00  0.00    -0.341 OA
ATOM      2  C   LIG    1      153.905 148.980 145.545  0.00  0.00    +0.282 C 
ATOM      3  C   LIG    1      153.927 149.627 144.160  0.00  0.00    +0.201 C 
ATOM      4  C   LIG    1      154.131 151.138 144.254  0.00  0.00    +0.179 C 
ATOM      5  C   LIG    1      153.183 151.762 145.277  0.00  0.00    +0.177 C 
ATOM     22  C   LIG    1      153.232 150.997 146.601  0.00  0.00    +0.178 C 
ENDROOT
BRANCH   5   6
ATOM      6  O   LIG    1      153.558 153.119 145.502  0.00  0.00    -0.386 OA
ATOM      7  H   LIG    1      153.738 153.226 146.452  0.00  0.00    +0.210 HD
ENDBRANCH   5   6
BRANCH   4   8
ATOM      8  O   LIG    1      153.865 151.734 142.983  0.00  0.00    -0.386 OA
ATOM      9  H   LIG    1      154.408 151.269 142.324  0.00  0.00    +0.210 HD
ENDBRANCH   4   8
BRANCH   3  10
ATOM     10  O   LIG    1      154.998 149.049 143.413  0.00  0.00    -0.384 OA
ATOM     11  H   LIG    1      155.675 148.747 144.042  0.00  0.00    +0.210 HD
ENDBRANCH   3  10
BRANCH   2  12
ATOM     12  O   LIG    1      153.569 147.603 145.383  0.00  0.00    -0.345 OA
BRANCH  12  13
ATOM     13  C   LIG    1      152.322 147.449 144.725  0.00  0.00    +0.190 C 
BRANCH  13  14
ATOM     14  C   LIG    1      152.432 146.329 143.740  0.00  0.00    +0.001 C 
ATOM     15  C   LIG    1      151.751 145.179 143.853  0.00  0.00    +0.006 C 
BRANCH  15  16
ATOM     16  C   LIG    1      151.816 144.056 142.902  0.00  0.00    -0.025 A 
ATOM     17  C   LIG    1      152.629 142.970 143.187  0.00  0.00    +0.008 A 
ATOM     18  C   LIG    1      152.690 141.908 142.286  0.00  0.00    +0.001 A 
ATOM     19  C   LIG    1      151.940 141.944 141.112  0.00  0.00    +0.000 A 
ATOM     20  C   LIG    1      151.126 143.043 140.838  0.00  0.00    +0.001 A 
ATOM     21  C   LIG    1      151.065 144.106 141.739  0.00  0.00    +0.008 A 
ENDBRANCH  15  16
ENDBRANCH  13  14
ENDBRANCH  12  13
ENDBRANCH   2  12
BRANCH  22  23
ATOM     23  C   LIG    1      152.209 151.529 147.600  0.00  0.00    +0.197 C 
BRANCH  23  24
ATOM     24  O   LIG    1      152.876 152.367 148.526  0.00  0.00    -0.346 OA
BRANCH  24  25
ATOM     25  C   LIG    1      151.960 153.133 149.301  0.00  0.00    +0.281 C 
ATOM     26  C   LIG    1      151.528 152.334 150.540  0.00  0.00    +0.201 C 
ATOM     27  C   LIG    1      152.632 152.271 151.599  0.00  0.00    +0.178 C 
ATOM     28  C   LIG    1      153.191 153.670 151.863  0.00  0.00    +0.171 C 
ATOM     29  C   LIG    1      153.603 154.338 150.558  0.00  0.00    +0.197 C 
ATOM     36  O   LIG    1      152.498 154.411 149.660  0.00  0.00    -0.346 OA
BRANCH  28  30
ATOM     30  O   LIG    1      154.298 153.589 152.750  0.00  0.00    -0.387 OA
ATOM     31  H   LIG    1      154.788 154.427 152.686  0.00  0.00    +0.210 HD
ENDBRANCH  28  30
BRANCH  27  32
ATOM     32  O   LIG    1      153.684 151.422 151.142  0.00  0.00    -0.386 OA
ATOM     33  H   LIG    1      154.469 151.610 151.686  0.00  0.00    +0.210 HD
ENDBRANCH  27  32
BRANCH  26  34
ATOM     34  O   LIG    1      150.378 152.969 151.094  0.00  0.00    -0.384 OA
ATOM     35  H   LIG    1      150.586 153.905 151.246  0.00  0.00    +0.210 HD
ENDBRANCH  26  34
ENDBRANCH  24  25
ENDBRANCH  23  24
ENDBRANCH  22  23
TORSDOF 13
ENDMDL
MODEL 4
REMARK VINA RESULT:      -8.0      2.909      4.214
REMARK  Name = 9823887
REMARK                            x       y       z     vdW  Elec       q    Type
REMARK                         _______ _______ _______ _____ _____    ______ ____
ROOT
ATOM      1  O   LIG    1      152.940 155.911 151.230  0.00  0.00    -0.341 OA
ATOM      2  C   LIG    1      153.150 154.522 151.472  0.00  0.00    +0.282 C 
ATOM      3  C   LIG    1      154.629 154.168 151.316  0.00  0.00    +0.201 C 
ATOM      4  C   LIG    1      155.510 155.060 152.190  0.00  0.00    +0.179 C 
ATOM      5  C   LIG    1      155.146 156.534 152.020  0.00  0.00    +0.177 C 
ATOM     22  C   LIG    1      153.636 156.741 152.162  0.00  0.00    +0.178 C 
ENDROOT
BRANCH   5   6
ATOM      6  O   LIG    1      155.822 157.305 153.011  0.00  0.00    -0.386 OA
ATOM      7  H   LIG    1      155.657 158.245 152.823  0.00  0.00    +0.210 HD
ENDBRANCH   5   6
BRANCH   4   8
ATOM      8  O   LIG    1      156.878 154.897 151.810  0.00  0.00    -0.386 OA
ATOM      9  H   LIG    1      157.349 155.709 152.061  0.00  0.00    +0.210 HD
ENDBRANCH   4   8
BRANCH   3  10
ATOM     10  O   LIG    1      154.806 152.805 151.700  0.00  0.00    -0.384 OA
ATOM     11  H   LIG    1      154.374 152.676 152.561  0.00  0.00    +0.210 HD
ENDBRANCH   3  10
BRANCH   2  12
ATOM     12  O   LIG    1      152.410 153.751 150.527  0.00  0.00    -0.345 OA
BRANCH  12  13
ATOM     13  C   LIG    1      151.144 153.374 151.044  0.00  0.00    +0.190 C 
BRANCH  13  14
ATOM     14  C   LIG    1      150.094 154.238 150.423  0.00  0.00    +0.001 C 
ATOM     15  C   LIG    1      148.966 154.597 151.056  0.00  0.00    +0.006 C 
BRANCH  15  16
ATOM     16  C   LIG    1      147.912 155.457 150.491  0.00  0.00    -0.025 A 
ATOM     17  C   LIG    1      146.727 154.883 150.058  0.00  0.00    +0.008 A 
ATOM     18  C   LIG    1      145.730 155.697 149.523  0.00  0.00    +0.001 A 
ATOM     19  C   LIG    1      145.929 157.074 149.426  0.00  0.00    +0.000 A 
ATOM     20  C   LIG    1      147.127 157.638 149.866  0.00  0.00    +0.001 A 
ATOM     21  C   LIG    1      148.125 156.823 150.401  0.00  0.00    +0.008 A 
ENDBRANCH  15  16
ENDBRANCH  13  14
ENDBRANCH  12  13
ENDBRANCH   2  12
BRANCH  22  23
ATOM     23  C   LIG    1      153.234 158.186 151.882  0.00  0.00    +0.197 C 
BRANCH  23  24
ATOM     24  O   LIG    1      154.214 158.772 151.045  0.00  0.00    -0.346 OA
BRANCH  24  25
ATOM     25  C   LIG    1      153.691 159.088 149.760  0.00  0.00    +0.281 C 
ATOM     26  C   LIG    1      154.193 160.470 149.316  0.00  0.00    +0.201 C 
ATOM     27  C   LIG    1      155.666 160.440 148.895  0.00  0.00    +0.178 C 
ATOM     28  C   LIG    1      155.911 159.290 147.917  0.00  0.00    +0.171 C 
ATOM     29  C   LIG    1      155.389 157.978 148.490  0.00  0.00    +0.197 C 
ATOM     36  O   LIG    1      153.999 158.079 148.791  0.00  0.00    -0.346 OA
BRANCH  28  30
ATOM     30  O   LIG    1      157.298 159.188 147.629  0.00  0.00    -0.387 OA
ATOM     31  H   LIG    1      157.441 159.552 146.739  0.00  0.00    +0.210 HD
ENDBRANCH  28  30
BRANCH  27  32
ATOM     32  O   LIG    1      156.489 160.263 150.047  0.00  0.00    -0.386 OA
ATOM     33  H   LIG    1      155.908 160.282 150.827  0.00  0.00    +0.210 HD
ENDBRANCH  27  32
BRANCH  26  34
ATOM     34  O   LIG    1      153.395 160.896 148.214  0.00  0.00    -0.384 OA
ATOM     35  H   LIG    1      153.106 161.809 148.378  0.00  0.00    +0.210 HD
ENDBRANCH  26  34
ENDBRANCH  24  25
ENDBRANCH  23  24
ENDBRANCH  22  23
TORSDOF 13
ENDMDL
MODEL 5
REMARK VINA RESULT:      -8.0      3.322      5.896
REMARK  Name = 9823887
REMARK                            x       y       z     vdW  Elec       q    Type
REMARK                         _______ _______ _______ _____ _____    ______ ____
ROOT
ATOM      1  O   LIG    1      150.768 152.154 148.274  0.00  0.00    -0.341 OA
ATOM      2  C   LIG    1      150.898 150.941 147.537  0.00  0.00    +0.282 C 
ATOM      3  C   LIG    1      152.031 151.054 146.516  0.00  0.00    +0.201 C 
ATOM      4  C   LIG    1      153.338 151.487 147.179  0.00  0.00    +0.179 C 
ATOM      5  C   LIG    1      153.123 152.697 148.088  0.00  0.00    +0.177 C 
ATOM     22  C   LIG    1      151.939 152.465 149.030  0.00  0.00    +0.178 C 
ENDROOT
BRANCH   5   6
ATOM      6  O   LIG    1      154.301 152.924 148.858  0.00  0.00    -0.386 OA
ATOM      7  H   LIG    1      154.617 152.063 149.183  0.00  0.00    +0.210 HD
ENDBRANCH   5   6
BRANCH   4   8
ATOM      8  O   LIG    1      154.284 151.853 146.173  0.00  0.00    -0.386 OA
ATOM      9  H   LIG    1      154.325 152.824 146.152  0.00  0.00    +0.210 HD
ENDBRANCH   4   8
BRANCH   3  10
ATOM     10  O   LIG    1      152.210 149.777 145.903  0.00  0.00    -0.384 OA
ATOM     11  H   LIG    1      153.149 149.683 145.673  0.00  0.00    +0.210 HD
ENDBRANCH   3  10
BRANCH   2  12
ATOM     12  O   LIG    1      149.690 150.676 146.827  0.00  0.00    -0.345 OA
BRANCH  12  13
ATOM     13  C   LIG    1      149.296 151.790 146.042  0.00  0.00    +0.190 C 
BRANCH  13  14
ATOM     14  C   LIG    1      148.570 151.295 144.833  0.00  0.00    +0.001 C 
ATOM     15  C   LIG    1      148.645 150.029 144.395  0.00  0.00    +0.006 C 
BRANCH  15  16
ATOM     16  C   LIG    1      147.937 149.493 143.219  0.00  0.00    -0.025 A 
ATOM     17  C   LIG    1      146.630 149.885 142.977  0.00  0.00    +0.008 A 
ATOM     18  C   LIG    1      145.960 149.378 141.864  0.00  0.00    +0.001 A 
ATOM     19  C   LIG    1      146.605 148.486 141.008  0.00  0.00    +0.000 A 
ATOM     20  C   LIG    1      147.921 148.100 141.264  0.00  0.00    +0.001 A 
ATOM     21  C   LIG    1      148.591 148.608 142.378  0.00  0.00    +0.008 A 
ENDBRANCH  15  16
ENDBRANCH  13  14
ENDBRANCH  12  13
ENDBRANCH   2  12
BRANCH  22  23
ATOM     23  C   LIG    1      151.632 153.703 149.867  0.00  0.00    +0.197 C 
BRANCH  23  24
ATOM     24  O   LIG    1      152.667 153.872 150.818  0.00  0.00    -0.346 OA
BRANCH  24  25
ATOM     25  C   LIG    1      152.979 155.247 151.021  0.00  0.00    +0.281 C 
ATOM     26  C   LIG    1      152.756 155.622 152.494  0.00  0.00    +0.201 C 
ATOM     27  C   LIG    1      153.856 155.064 153.404  0.00  0.00    +0.178 C 
ATOM     28  C   LIG    1      155.234 155.393 152.827  0.00  0.00    +0.171 C 
ATOM     29  C   LIG    1      155.328 154.947 151.373  0.00  0.00    +0.197 C 
ATOM     36  O   LIG    1      154.308 155.565 150.591  0.00  0.00    -0.346 OA
BRANCH  28  30
ATOM     30  O   LIG    1      156.244 154.766 153.604  0.00  0.00    -0.387 OA
ATOM     31  H   LIG    1      156.242 153.820 153.380  0.00  0.00    +0.210 HD
ENDBRANCH  28  30
BRANCH  27  32
ATOM     32  O   LIG    1      153.715 153.648 153.510  0.00  0.00    -0.386 OA
ATOM     33  H   LIG    1      154.606 153.261 153.459  0.00  0.00    +0.210 HD
ENDBRANCH  27  32
BRANCH  26  34
ATOM     34  O   LIG    1      152.741 157.044 152.589  0.00  0.00    -0.384 OA
ATOM     35  H   LIG    1      152.017 157.382 152.036  0.00  0.00    +0.210 HD
ENDBRANCH  26  34
ENDBRANCH  24  25
ENDBRANCH  23  24
ENDBRANCH  22  23
TORSDOF 13
ENDMDL
MODEL 6
REMARK VINA RESULT:      -7.9      3.637      6.780
REMARK  Name = 9823887
REMARK                            x       y       z     vdW  Elec       q    Type
REMARK                         _______ _______ _______ _____ _____    ______ ____
ROOT
ATOM      1  O   LIG    1      153.029 156.444 150.955  0.00  0.00    -0.341 OA
ATOM      2  C   LIG    1      153.215 157.744 150.399  0.00  0.00    +0.282 C 
ATOM      3  C   LIG    1      153.826 158.687 151.437  0.00  0.00    +0.201 C 
ATOM      4  C   LIG    1      155.109 158.107 152.029  0.00  0.00    +0.179 C 
ATOM      5  C   LIG    1      154.911 156.656 152.467  0.00  0.00    +0.177 C 
ATOM     22  C   LIG    1      154.258 155.836 151.351  0.00  0.00    +0.178 C 
ENDROOT
BRANCH   5   6
ATOM      6  O   LIG    1      156.175 156.085 152.795  0.00  0.00    -0.386 OA
ATOM      7  H   LIG    1      156.630 155.867 151.963  0.00  0.00    +0.210 HD
ENDBRANCH   5   6
BRANCH   4   8
ATOM      8  O   LIG    1      155.490 158.867 153.177  0.00  0.00    -0.386 OA
ATOM      9  H   LIG    1      156.417 158.652 153.374  0.00  0.00    +0.210 HD
ENDBRANCH   4   8
BRANCH   3  10
ATOM     10  O   LIG    1      154.118 159.928 150.796  0.00  0.00    -0.384 OA
ATOM     11  H   LIG    1      155.034 160.170 151.010  0.00  0.00    +0.210 HD
ENDBRANCH   3  10
BRANCH   2  12
ATOM     12  O   LIG    1      151.956 158.283 150.001  0.00  0.00    -0.345 OA
BRANCH  12  13
ATOM     13  C   LIG    1      151.031 158.287 151.077  0.00  0.00    +0.190 C 
BRANCH  13  14
ATOM     14  C   LIG    1      149.647 158.175 150.524  0.00  0.00    +0.001 C 
ATOM     15  C   LIG    1      148.905 157.061 150.615  0.00  0.00    +0.006 C 
BRANCH  15  16
ATOM     16  C   LIG    1      147.534 156.909 150.098  0.00  0.00    -0.025 A 
ATOM     17  C   LIG    1      146.996 155.639 149.963  0.00  0.00    +0.008 A 
ATOM     18  C   LIG    1      145.698 155.496 149.474  0.00  0.00    +0.001 A 
ATOM     19  C   LIG    1      144.955 156.624 149.125  0.00  0.00    +0.000 A 
ATOM     20  C   LIG    1      145.510 157.895 149.266  0.00  0.00    +0.001 A 
ATOM     21  C   LIG    1      146.808 158.038 149.756  0.00  0.00    +0.008 A 
ENDBRANCH  15  16
ENDBRANCH  13  14
ENDBRANCH  12  13
ENDBRANCH   2  12
BRANCH  22  23
ATOM     23  C   LIG    1      153.944 154.414 151.806  0.00  0.00    +0.197 C 
BRANCH  23  24
ATOM     24  O   LIG    1      153.850 153.585 150.661  0.00  0.00    -0.346 OA
BRANCH  24  25
ATOM     25  C   LIG    1      152.847 152.587 150.813  0.00  0.00    +0.281 C 
ATOM     26  C   LIG    1      151.456 153.239 150.815  0.00  0.00    +0.201 C 
ATOM     27  C   LIG    1      151.030 153.694 149.415  0.00  0.00    +0.178 C 
ATOM     28  C   LIG    1      151.241 152.563 148.407  0.00  0.00    +0.171 C 
ATOM     29  C   LIG    1      152.664 152.026 148.493  0.00  0.00    +0.197 C 
ATOM     36  O   LIG    1      152.949 151.567 149.812  0.00  0.00    -0.346 OA
BRANCH  28  30
ATOM     30  O   LIG    1      150.966 153.030 147.094  0.00  0.00    -0.387 OA
ATOM     31  H   LIG    1      150.638 153.942 147.169  0.00  0.00    +0.210 HD
ENDBRANCH  28  30
BRANCH  27  32
ATOM     32  O   LIG    1      151.807 154.825 149.024  0.00  0.00    -0.386 OA
ATOM     33  H   LIG    1      151.650 154.974 148.075  0.00  0.00    +0.210 HD
ENDBRANCH  27  32
BRANCH  26  34
ATOM     34  O   LIG    1      150.521 152.281 151.305  0.00  0.00    -0.384 OA
ATOM     35  H   LIG    1      150.181 152.592 152.161  0.00  0.00    +0.210 HD
ENDBRANCH  26  34
ENDBRANCH  24  25
ENDBRANCH  23  24
ENDBRANCH  22  23
TORSDOF 13
ENDMDL
MODEL 7
REMARK VINA RESULT:      -7.9      3.888      5.584
REMARK  Name = 9823887
REMARK                            x       y       z     vdW  Elec       q    Type
REMARK                         _______ _______ _______ _____ _____    ______ ____
ROOT
ATOM      1  O   LIG    1      152.636 156.795 151.501  0.00  0.00    -0.341 OA
ATOM      2  C   LIG    1      152.190 155.674 152.260  0.00  0.00    +0.282 C 
ATOM      3  C   LIG    1      153.287 154.611 152.341  0.00  0.00    +0.201 C 
ATOM      4  C   LIG    1      154.595 155.201 152.868  0.00  0.00    +0.179 C 
ATOM      5  C   LIG    1      154.956 156.491 152.133  0.00  0.00    +0.177 C 
ATOM     22  C   LIG    1      153.760 157.446 152.093  0.00  0.00    +0.178 C 
ENDROOT
BRANCH   5   6
ATOM      6  O   LIG    1      156.044 157.126 152.801  0.00  0.00    -0.386 OA
ATOM      7  H   LIG    1      156.208 156.645 153.630  0.00  0.00    +0.210 HD
ENDBRANCH   5   6
BRANCH   4   8
ATOM      8  O   LIG    1      155.655 154.265 152.663  0.00  0.00    -0.386 OA
ATOM      9  H   LIG    1      155.709 153.709 153.459  0.00  0.00    +0.210 HD
ENDBRANCH   4   8
BRANCH   3  10
ATOM     10  O   LIG    1      152.844 153.578 153.221  0.00  0.00    -0.384 OA
ATOM     11  H   LIG    1      153.400 153.602 154.018  0.00  0.00    +0.210 HD
ENDBRANCH   3  10
BRANCH   2  12
ATOM     12  O   LIG    1      151.053 155.086 151.631  0.00  0.00    -0.345 OA
BRANCH  12  13
ATOM     13  C   LIG    1      151.117 155.218 150.220  0.00  0.00    +0.190 C 
BRANCH  13  14
ATOM     14  C   LIG    1      149.783 155.666 149.717  0.00  0.00    +0.001 C 
ATOM     15  C   LIG    1      148.750 155.957 150.524  0.00  0.00    +0.006 C 
BRANCH  15  16
ATOM     16  C   LIG    1      147.424 156.415 150.074  0.00  0.00    -0.025 A 
ATOM     17  C   LIG    1      147.188 157.773 149.930  0.00  0.00    +0.008 A 
ATOM     18  C   LIG    1      145.932 158.205 149.504  0.00  0.00    +0.001 A 
ATOM     19  C   LIG    1      144.929 157.276 149.230  0.00  0.00    +0.000 A 
ATOM     20  C   LIG    1      145.181 155.913 149.381  0.00  0.00    +0.001 A 
ATOM     21  C   LIG    1      146.437 155.479 149.806  0.00  0.00    +0.008 A 
ENDBRANCH  15  16
ENDBRANCH  13  14
ENDBRANCH  12  13
ENDBRANCH   2  12
BRANCH  22  23
ATOM     23  C   LIG    1      154.060 158.692 151.264  0.00  0.00    +0.197 C 
BRANCH  23  24
ATOM     24  O   LIG    1      153.165 159.718 151.653  0.00  0.00    -0.346 OA
BRANCH  24  25
ATOM     25  C   LIG    1      152.806 160.551 150.556  0.00  0.00    +0.281 C 
ATOM     26  C   LIG    1      151.815 159.813 149.642  0.00  0.00    +0.201 C 
ATOM     27  C   LIG    1      150.414 159.733 150.256  0.00  0.00    +0.178 C 
ATOM     28  C   LIG    1      149.976 161.113 150.749  0.00  0.00    +0.171 C 
ATOM     29  C   LIG    1      151.034 161.718 151.662  0.00  0.00    +0.197 C 
ATOM     36  O   LIG    1      152.286 161.813 150.987  0.00  0.00    -0.346 OA
BRANCH  28  30
ATOM     30  O   LIG    1      148.733 161.010 151.430  0.00  0.00    -0.387 OA
ATOM     31  H   LIG    1      148.611 160.077 151.679  0.00  0.00    +0.210 HD
ENDBRANCH  28  30
BRANCH  27  32
ATOM     32  O   LIG    1      150.426 158.822 151.354  0.00  0.00    -0.386 OA
ATOM     33  H   LIG    1      151.067 159.156 152.005  0.00  0.00    +0.210 HD
ENDBRANCH  27  32
BRANCH  26  34
ATOM     34  O   LIG    1      151.749 160.518 148.404  0.00  0.00    -0.384 OA
ATOM     35  H   LIG    1      151.799 159.873 147.679  0.00  0.00    +0.210 HD
ENDBRANCH  26  34
ENDBRANCH  24  25
ENDBRANCH  23  24
ENDBRANCH  22  23
TORSDOF 13
ENDMDL
MODEL 8
REMARK VINA RESULT:      -7.9      4.217      7.484
REMARK  Name = 9823887
REMARK                            x       y       z     vdW  Elec       q    Type
REMARK                         _______ _______ _______ _____ _____    ______ ____
ROOT
ATOM      1  O   LIG    1      150.603 151.731 146.226  0.00  0.00    -0.341 OA
ATOM      2  C   LIG    1      150.384 150.336 146.032  0.00  0.00    +0.282 C 
ATOM      3  C   LIG    1      151.644 149.668 145.478  0.00  0.00    +0.201 C 
ATOM      4  C   LIG    1      152.860 149.960 146.356  0.00  0.00    +0.179 C 
ATOM      5  C   LIG    1      152.969 151.451 146.674  0.00  0.00    +0.177 C 
ATOM     22  C   LIG    1      151.632 151.997 147.180  0.00  0.00    +0.178 C 
ENDROOT
BRANCH   5   6
ATOM      6  O   LIG    1      153.968 151.649 147.671  0.00  0.00    -0.386 OA
ATOM      7  H   LIG    1      153.670 151.208 148.485  0.00  0.00    +0.210 HD
ENDBRANCH   5   6
BRANCH   4   8
ATOM      8  O   LIG    1      154.049 149.567 145.668  0.00  0.00    -0.386 OA
ATOM      9  H   LIG    1      153.935 149.803 144.732  0.00  0.00    +0.210 HD
ENDBRANCH   4   8
BRANCH   3  10
ATOM     10  O   LIG    1      151.419 148.259 145.432  0.00  0.00    -0.384 OA
ATOM     11  H   LIG    1      151.074 147.981 146.296  0.00  0.00    +0.210 HD
ENDBRANCH   3  10
BRANCH   2  12
ATOM     12  O   LIG    1      149.332 150.139 145.090  0.00  0.00    -0.345 OA
BRANCH  12  13
ATOM     13  C   LIG    1      149.609 150.791 143.861  0.00  0.00    +0.190 C 
BRANCH  13  14
ATOM     14  C   LIG    1      149.207 149.891 142.737  0.00  0.00    +0.001 C 
ATOM     15  C   LIG    1      148.137 149.082 142.787  0.00  0.00    +0.006 C 
BRANCH  15  16
ATOM     16  C   LIG    1      147.695 148.191 141.701  0.00  0.00    -0.025 A 
ATOM     17  C   LIG    1      146.339 147.990 141.496  0.00  0.00    +0.008 A 
ATOM     18  C   LIG    1      145.922 147.147 140.467  0.00  0.00    +0.001 A 
ATOM     19  C   LIG    1      146.864 146.513 139.657  0.00  0.00    +0.000 A 
ATOM     20  C   LIG    1      148.225 146.724 139.875  0.00  0.00    +0.001 A 
ATOM     21  C   LIG    1      148.643 147.568 140.904  0.00  0.00    +0.008 A 
ENDBRANCH  15  16
ENDBRANCH  13  14
ENDBRANCH  12  13
ENDBRANCH   2  12
BRANCH  22  23
ATOM     23  C   LIG    1      151.683 153.507 147.393  0.00  0.00    +0.197 C 
BRANCH  23  24
ATOM     24  O   LIG    1      152.389 153.769 148.593  0.00  0.00    -0.346 OA
BRANCH  24  25
ATOM     25  C   LIG    1      151.507 154.068 149.670  0.00  0.00    +0.281 C 
ATOM     26  C   LIG    1      151.142 152.777 150.420  0.00  0.00    +0.201 C 
ATOM     27  C   LIG    1      152.298 152.267 151.286  0.00  0.00    +0.178 C 
ATOM     28  C   LIG    1      152.859 153.406 152.140  0.00  0.00    +0.171 C 
ATOM     29  C   LIG    1      153.201 154.610 151.271  0.00  0.00    +0.197 C 
ATOM     36  O   LIG    1      152.052 155.054 150.553  0.00  0.00    -0.346 OA
BRANCH  28  30
ATOM     30  O   LIG    1      154.009 152.960 152.844  0.00  0.00    -0.387 OA
ATOM     31  H   LIG    1      153.796 152.972 153.793  0.00  0.00    +0.210 HD
ENDBRANCH  28  30
BRANCH  27  32
ATOM     32  O   LIG    1      153.333 151.754 150.448  0.00  0.00    -0.386 OA
ATOM     33  H   LIG    1      153.006 150.927 150.053  0.00  0.00    +0.210 HD
ENDBRANCH  27  32
BRANCH  26  34
ATOM     34  O   LIG    1      150.016 153.053 151.250  0.00  0.00    -0.384 OA
ATOM     35  H   LIG    1      150.286 153.690 151.932  0.00  0.00    +0.210 HD
ENDBRANCH  26  34
ENDBRANCH  24  25
ENDBRANCH  23  24
ENDBRANCH  22  23
TORSDOF 13
ENDMDL
MODEL 9
REMARK VINA RESULT:      -7.8      3.677      5.171
REMARK  Name = 9823887
REMARK                            x       y       z     vdW  Elec       q    Type
REMARK                         _______ _______ _______ _____ _____    ______ ____
ROOT
ATOM      1  O   LIG    1      153.263 156.943 151.792  0.00  0.00    -0.341 OA
ATOM      2  C   LIG    1      152.396 155.872 152.158  0.00  0.00    +0.282 C 
ATOM      3  C   LIG    1      153.037 154.526 151.821  0.00  0.00    +0.201 C 
ATOM      4  C   LIG    1      154.428 154.400 152.441  0.00  0.00    +0.179 C 
ATOM      5  C   LIG    1      155.274 155.641 152.159  0.00  0.00    +0.177 C 
ATOM     22  C   LIG    1      154.500 156.916 152.505  0.00  0.00    +0.178 C 
ENDROOT
BRANCH   5   6
ATOM      6  O   LIG    1      156.466 155.587 152.939  0.00  0.00    -0.386 OA
ATOM      7  H   LIG    1      157.203 155.364 152.344  0.00  0.00    +0.210 HD
ENDBRANCH   5   6
BRANCH   4   8
ATOM      8  O   LIG    1      155.099 153.271 151.878  0.00  0.00    -0.386 OA
ATOM      9  H   LIG    1      156.011 153.544 151.679  0.00  0.00    +0.210 HD
ENDBRANCH   4   8
BRANCH   3  10
ATOM     10  O   LIG    1      152.196 153.491 152.329  0.00  0.00    -0.384 OA
ATOM     11  H   LIG    1      151.279 153.812 152.313  0.00  0.00    +0.210 HD
ENDBRANCH   3  10
BRANCH   2  12
ATOM     12  O   LIG    1      151.172 155.972 151.433  0.00  0.00    -0.345 OA
BRANCH  12  13
ATOM     13  C   LIG    1      151.093 157.196 150.720  0.00  0.00    +0.190 C 
BRANCH  13  14
ATOM     14  C   LIG    1      149.681 157.404 150.275  0.00  0.00    +0.001 C 
ATOM     15  C   LIG    1      148.723 156.472 150.403  0.00  0.00    +0.006 C 
BRANCH  15  16
ATOM     16  C   LIG    1      147.318 156.637 149.993  0.00  0.00    -0.025 A 
ATOM     17  C   LIG    1      146.527 155.514 149.811  0.00  0.00    +0.008 A 
ATOM     18  C   LIG    1      145.197 155.671 149.424  0.00  0.00    +0.001 A 
ATOM     19  C   LIG    1      144.674 156.948 149.223  0.00  0.00    +0.000 A 
ATOM     20  C   LIG    1      145.482 158.070 149.410  0.00  0.00    +0.001 A 
ATOM     21  C   LIG    1      146.813 157.913 149.797  0.00  0.00    +0.008 A 
ENDBRANCH  15  16
ENDBRANCH  13  14
ENDBRANCH  12  13
ENDBRANCH   2  12
BRANCH  22  23
ATOM     23  C   LIG    1      155.280 158.171 152.123  0.00  0.00    +0.197 C 
BRANCH  23  24
ATOM     24  O   LIG    1      154.816 158.624 150.864  0.00  0.00    -0.346 OA
BRANCH  24  25
ATOM     25  C   LIG    1      155.882 159.098 150.048  0.00  0.00    +0.281 C 
ATOM     26  C   LIG    1      155.855 158.385 148.687  0.00  0.00    +0.201 C 
ATOM     27  C   LIG    1      154.720 158.893 147.793  0.00  0.00    +0.178 C 
ATOM     28  C   LIG    1      154.726 160.422 147.751  0.00  0.00    +0.171 C 
ATOM     29  C   LIG    1      154.727 160.997 149.161  0.00  0.00    +0.197 C 
ATOM     36  O   LIG    1      155.851 160.521 149.897  0.00  0.00    -0.346 OA
BRANCH  28  30
ATOM     30  O   LIG    1      153.598 160.890 147.025  0.00  0.00    -0.387 OA
ATOM     31  H   LIG    1      153.885 161.654 146.496  0.00  0.00    +0.210 HD
ENDBRANCH  28  30
BRANCH  27  32
ATOM     32  O   LIG    1      153.468 158.441 148.307  0.00  0.00    -0.386 OA
ATOM     33  H   LIG    1      153.290 157.567 147.919  0.00  0.00    +0.210 HD
ENDBRANCH  27  32
BRANCH  26  34
ATOM     34  O   LIG    1      157.105 158.618 148.043  0.00  0.00    -0.384 OA
ATOM     35  H   LIG    1      157.215 157.959 147.337  0.00  0.00    +0.210 HD
ENDBRANCH  26  34
ENDBRANCH  24  25
ENDBRANCH  23  24
ENDBRANCH  22  23
TORSDOF 13
ENDMDL
MODEL 10
REMARK VINA RESULT:      -7.8      2.676      5.331
REMARK  Name = 9823887
REMARK                            x       y       z     vdW  Elec       q    Type
REMARK                         _______ _______ _______ _____ _____    ______ ____
ROOT
ATOM      1  O   LIG    1      153.449 153.493 148.402  0.00  0.00    -0.341 OA
ATOM      2  C   LIG    1      152.608 152.536 147.762  0.00  0.00    +0.282 C 
ATOM      3  C   LIG    1      151.252 152.460 148.466  0.00  0.00    +0.201 C 
ATOM      4  C   LIG    1      150.603 153.839 148.574  0.00  0.00    +0.179 C 
ATOM      5  C   LIG    1      151.589 154.874 149.116  0.00  0.00    +0.177 C 
ATOM     22  C   LIG    1      152.913 154.816 148.350  0.00  0.00    +0.178 C 
ENDROOT
BRANCH   5   6
ATOM      6  O   LIG    1      151.025 156.176 148.986  0.00  0.00    -0.386 OA
ATOM      7  H   LIG    1      150.221 156.102 148.444  0.00  0.00    +0.210 HD
ENDBRANCH   5   6
BRANCH   4   8
ATOM      8  O   LIG    1      149.494 153.774 149.472  0.00  0.00    -0.386 OA
ATOM      9  H   LIG    1      148.685 153.867 148.942  0.00  0.00    +0.210 HD
ENDBRANCH   4   8
BRANCH   3  10
ATOM     10  O   LIG    1      150.405 151.595 147.710  0.00  0.00    -0.384 OA
ATOM     11  H   LIG    1      150.326 150.755 148.191  0.00  0.00    +0.210 HD
ENDBRANCH   3  10
BRANCH   2  12
ATOM     12  O   LIG    1      153.211 151.245 147.826  0.00  0.00    -0.345 OA
BRANCH  12  13
ATOM     13  C   LIG    1      153.808 150.891 146.589  0.00  0.00    +0.190 C 
BRANCH  13  14
ATOM     14  C   LIG    1      153.095 149.701 146.033  0.00  0.00    +0.001 C 
ATOM     15  C   LIG    1      153.730 148.625 145.541  0.00  0.00    +0.006 C 
BRANCH  15  16
ATOM     16  C   LIG    1      153.071 147.425 144.998  0.00  0.00    -0.025 A 
ATOM     17  C   LIG    1      153.773 146.596 144.138  0.00  0.00    +0.008 A 
ATOM     18  C   LIG    1      153.149 145.460 143.624  0.00  0.00    +0.001 A 
ATOM     19  C   LIG    1      151.831 145.168 143.975  0.00  0.00    +0.000 A 
ATOM     20  C   LIG    1      151.137 146.012 144.841  0.00  0.00    +0.001 A 
ATOM     21  C   LIG    1      151.761 147.148 145.356  0.00  0.00    +0.008 A 
ENDBRANCH  15  16
ENDBRANCH  13  14
ENDBRANCH  12  13
ENDBRANCH   2  12
BRANCH  22  23
ATOM     23  C   LIG    1      153.954 155.759 148.948  0.00  0.00    +0.197 C 
BRANCH  23  24
ATOM     24  O   LIG    1      153.679 155.916 150.328  0.00  0.00    -0.346 OA
BRANCH  24  25
ATOM     25  C   LIG    1      154.757 155.457 151.137  0.00  0.00    +0.281 C 
ATOM     26  C   LIG    1      154.902 156.356 152.374  0.00  0.00    +0.201 C 
ATOM     27  C   LIG    1      153.798 156.099 153.405  0.00  0.00    +0.178 C 
ATOM     28  C   LIG    1      153.667 154.599 153.675  0.00  0.00    +0.171 C 
ATOM     29  C   LIG    1      153.505 153.831 152.369  0.00  0.00    +0.197 C 
ATOM     36  O   LIG    1      154.607 154.080 151.500  0.00  0.00    -0.346 OA
BRANCH  28  30
ATOM     30  O   LIG    1      152.560 154.358 154.532  0.00  0.00    -0.387 OA
ATOM     31  H   LIG    1      152.866 154.478 155.448  0.00  0.00    +0.210 HD
ENDBRANCH  28  30
BRANCH  27  32
ATOM     32  O   LIG    1      152.557 156.599 152.910  0.00  0.00    -0.386 OA
ATOM     33  H   LIG    1      152.205 157.219 153.573  0.00  0.00    +0.210 HD
ENDBRANCH  27  32
BRANCH  26  34
ATOM     34  O   LIG    1      156.171 156.090 152.966  0.00  0.00    -0.384 OA
ATOM     35  H   LIG    1      156.535 156.925 153.304  0.00  0.00    +0.210 HD
ENDBRANCH  26  34
ENDBRANCH  24  25
ENDBRANCH  23  24
ENDBRANCH  22  23
TORSDOF 13
ENDMDL
