REMARK SMILES C[C@@H]1O[C@@H](OC[C@H]2O[C@@H](Oc3c(-c4ccc(O)c(O)c4)oc4cc(O)cc(O)c4c3=O)[C@H](O)[C@@H](O)[C@@H]2O)[C@H](O)[C@H](O)[C@H]1O
REMARK SMILES IDX 8 1 7 2 36 3 34 4 32 5 9 6 6 9 5 10 4 13 3 14 38 15 2 16
REMARK SMILES IDX 40 19 42 20 1 21 39 22 41 27 43 32 10 37 11 40 12 41 30 42
REMARK SMILES IDX 21 43 31 44 29 45 22 46 27 51 23 52 26 53 24 54 13 55 20 56
REMARK SMILES IDX 14 57 18 58 15 59 16 60 19 61 17 66 28 71 25 76 37 81 33 86
REMARK SMILES IDX 35 91
REMARK H PARENT 39 23 41 28 43 33 19 62 17 67 28 72 25 77 37 82 33 87 35 92
REMARK Flexibility Score: inf
ROOT
ATOM      1  O   UNL     1       0.915  -0.122   1.754  1.00  0.00    -0.332 OA
ATOM      2  C   UNL     1       1.216   0.903   2.703  1.00  0.00     0.180 C 
ATOM      3  C   UNL     1       2.720   1.187   2.705  1.00  0.00     0.177 C 
ATOM      4  C   UNL     1       3.513  -0.091   2.979  1.00  0.00     0.180 C 
ATOM      5  C   UNL     1       3.051  -1.234   2.075  1.00  0.00     0.214 C 
ATOM      6  C   UNL     1       1.528  -1.367   2.082  1.00  0.00     0.339 C 
ATOM      7 WAT  UNL     1       2.145   0.754  -0.838  1.00  0.00     0.000 W 
ATOM      8 WAT  UNL     1      -2.045  -0.579   1.932  1.00  0.00     0.000 W 
ENDROOT
BRANCH   2   9
ATOM      9  C   UNL     1       0.408   2.138   2.317  1.00  0.00     0.198 C 
BRANCH   9  10
ATOM     10  O   UNL     1       0.800   2.559   1.018  1.00  0.00    -0.347 OA
ATOM     11 WAT  UNL     1       3.673   3.397   1.233  1.00  0.00     0.000 W 
ATOM     12 WAT  UNL     1       0.018   0.353  -0.858  1.00  0.00     0.000 W 
BRANCH  10  13
ATOM     13  C   UNL     1       0.076   3.713   0.604  1.00  0.00     0.281 C 
ATOM     14  O   UNL     1      -1.340   3.510   0.638  1.00  0.00    -0.344 OA
ATOM     15  C   UNL     1       0.528   4.132  -0.794  1.00  0.00     0.202 C 
ATOM     16  C   UNL     1      -1.812   2.515  -0.277  1.00  0.00     0.150 C 
ATOM     17 WAT  UNL     1      -2.556   6.097  -0.275  1.00  0.00     0.000 W 
ATOM     18 WAT  UNL     1      -1.947   2.452   3.378  1.00  0.00     0.000 W 
ATOM     19  C   UNL     1       0.051   3.128  -1.845  1.00  0.00     0.179 C 
ATOM     20  C   UNL     1      -1.453   2.881  -1.723  1.00  0.00     0.174 C 
ATOM     21  C   UNL     1      -3.321   2.402  -0.073  1.00  0.00     0.041 C 
BRANCH  15  22
ATOM     22  O   UNL     1      -0.028   5.420  -1.063  1.00  0.00    -0.385 OA
ATOM     23  H   UNL     1      -0.981   5.389  -0.871  1.00  0.00     0.211 HD
ATOM     24 WAT  UNL     1       0.256   5.900  -4.011  1.00  0.00     0.000 W 
ATOM     25 WAT  UNL     1       1.201   7.333   0.894  1.00  0.00     0.000 W 
ATOM     26 WAT  UNL     1      -2.940   5.326  -0.475  1.00  0.00     0.000 W 
ENDBRANCH  15  22
BRANCH  19  27
ATOM     27  O   UNL     1       0.342   3.618  -3.152  1.00  0.00    -0.387 OA
ATOM     28  H   UNL     1      -0.095   4.481  -3.249  1.00  0.00     0.211 HD
ATOM     29 WAT  UNL     1      -0.952   1.747  -5.107  1.00  0.00     0.000 W 
ATOM     30 WAT  UNL     1       3.299   4.106  -3.275  1.00  0.00     0.000 W 
ATOM     31 WAT  UNL     1      -0.995   6.257  -3.449  1.00  0.00     0.000 W 
ENDBRANCH  19  27
BRANCH  20  32
ATOM     32  O   UNL     1      -1.800   1.814  -2.603  1.00  0.00    -0.388 OA
ATOM     33  H   UNL     1      -2.770   1.772  -2.652  1.00  0.00     0.211 HD
ATOM     34 WAT  UNL     1      -0.870  -0.731  -1.314  1.00  0.00     0.000 W 
ATOM     35 WAT  UNL     1      -0.808   2.562  -5.333  1.00  0.00     0.000 W 
ATOM     36 WAT  UNL     1      -4.765   1.684  -2.754  1.00  0.00     0.000 W 
ENDBRANCH  20  32
ENDBRANCH  10  13
ENDBRANCH   9  10
ENDBRANCH   2   9
BRANCH   6  37
ATOM     37  O   UNL     1       1.168  -2.351   1.113  1.00  0.00    -0.454 OA
ATOM     38 WAT  UNL     1       0.914  -4.945   2.599  1.00  0.00     0.000 W 
ATOM     39 WAT  UNL     1       3.148  -2.093  -1.126  1.00  0.00     0.000 W 
BRANCH  37  40
ATOM     40  C   UNL     1      -0.070  -2.095   0.566  1.00  0.00     0.214 A 
ATOM     41  C   UNL     1      -0.263  -1.882  -0.749  1.00  0.00     0.180 A 
ATOM     42  C   UNL     1      -1.237  -2.036   1.479  1.00  0.00     0.239 A 
ATOM     43  O   UNL     1      -1.489  -1.590  -1.326  1.00  0.00    -0.452 OA
ATOM     44  O   UNL     1      -1.124  -2.223   2.683  1.00  0.00    -0.285 OA
ATOM     45  C   UNL     1      -2.537  -1.739   0.858  1.00  0.00     0.111 A 
ATOM     46  C   UNL     1      -2.595  -1.530  -0.518  1.00  0.00     0.146 A 
ATOM     47 WAT  UNL     1      -2.024  -3.878  -3.190  1.00  0.00     0.000 W 
ATOM     48 WAT  UNL     1      -1.181   1.190  -2.412  1.00  0.00     0.000 W 
ATOM     49 WAT  UNL     1      -3.539  -2.083   4.457  1.00  0.00     0.000 W 
ATOM     50 WAT  UNL     1       1.570  -2.819   3.861  1.00  0.00     0.000 W 
ATOM     51  C   UNL     1      -3.698  -1.664   1.633  1.00  0.00     0.134 A 
ATOM     52  C   UNL     1      -3.816  -1.244  -1.130  1.00  0.00     0.094 A 
ATOM     53  C   UNL     1      -4.918  -1.378   1.018  1.00  0.00     0.093 A 
ATOM     54  C   UNL     1      -4.977  -1.169  -0.360  1.00  0.00     0.123 A 
BRANCH  41  55
ATOM     55  C   UNL     1       0.839  -1.915  -1.726  1.00  0.00     0.025 A 
ATOM     56  C   UNL     1       1.543  -0.748  -2.024  1.00  0.00     0.062 A 
ATOM     57  C   UNL     1       1.180  -3.113  -2.354  1.00  0.00     0.016 A 
ATOM     58  C   UNL     1       2.587  -0.779  -2.949  1.00  0.00     0.158 A 
ATOM     59  C   UNL     1       2.223  -3.144  -3.279  1.00  0.00     0.051 A 
ATOM     60  C   UNL     1       2.927  -1.977  -3.576  1.00  0.00     0.157 A 
BRANCH  58  61
ATOM     61  O   UNL     1       3.266   0.368  -3.232  1.00  0.00    -0.504 OA
ATOM     62  H   UNL     1       4.142   0.149  -3.589  1.00  0.00     0.293 HD
ATOM     63 WAT  UNL     1       3.722   1.770  -0.620  1.00  0.00     0.000 W 
ATOM     64 WAT  UNL     1       1.757   1.744  -5.430  1.00  0.00     0.000 W 
ATOM     65 WAT  UNL     1       5.947  -0.300  -4.324  1.00  0.00     0.000 W 
ENDBRANCH  58  61
BRANCH  60  66
ATOM     66  O   UNL     1       3.945  -2.020  -4.480  1.00  0.00    -0.504 OA
ATOM     67  H   UNL     1       4.100  -1.133  -4.841  1.00  0.00     0.293 HD
ATOM     68 WAT  UNL     1       3.004  -3.728  -6.760  1.00  0.00     0.000 W 
ATOM     69 WAT  UNL     1       6.418  -2.778  -2.960  1.00  0.00     0.000 W 
ATOM     70 WAT  UNL     1       4.419   0.696  -5.585  1.00  0.00     0.000 W 
ENDBRANCH  60  66
ENDBRANCH  41  55
BRANCH  51  71
ATOM     71  O   UNL     1      -3.696  -1.859   2.981  1.00  0.00    -0.507 OA
ATOM     72  H   UNL     1      -4.601  -1.762   3.324  1.00  0.00     0.293 HD
ATOM     73 WAT  UNL     1      -2.074   0.364   4.175  1.00  0.00     0.000 W 
ATOM     74 WAT  UNL     1      -2.897  -4.714   3.441  1.00  0.00     0.000 W 
ATOM     75 WAT  UNL     1      -6.461  -1.563   4.030  1.00  0.00     0.000 W 
ENDBRANCH  51  71
BRANCH  54  76
ATOM     76  O   UNL     1      -6.169  -0.890  -0.955  1.00  0.00    -0.508 OA
ATOM     77  H   UNL     1      -6.865  -0.875  -0.276  1.00  0.00     0.293 HD
ATOM     78 WAT  UNL     1      -6.787  -3.186  -2.785  1.00  0.00     0.000 W 
ATOM     79 WAT  UNL     1      -5.965   1.893  -2.056  1.00  0.00     0.000 W 
ATOM     80 WAT  UNL     1      -8.296  -0.845   1.121  1.00  0.00     0.000 W 
ENDBRANCH  54  76
ENDBRANCH  37  40
ENDBRANCH   6  37
BRANCH   3  81
ATOM     81  O   UNL     1       3.016   2.150   3.713  1.00  0.00    -0.387 OA
ATOM     82  H   UNL     1       2.734   1.786   4.569  1.00  0.00     0.211 HD
ATOM     83 WAT  UNL     1       1.301   4.551   3.169  1.00  0.00     0.000 W 
ATOM     84 WAT  UNL     1       6.001   2.431   3.815  1.00  0.00     0.000 W 
ATOM     85 WAT  UNL     1       2.153   1.036   6.330  1.00  0.00     0.000 W 
ENDBRANCH   3  81
BRANCH   5  86
ATOM     86  O   UNL     1       3.610  -2.462   2.540  1.00  0.00    -0.384 OA
ATOM     87  H   UNL     1       3.297  -2.611   3.448  1.00  0.00     0.211 HD
ATOM     88 WAT  UNL     1       6.582  -2.078   2.684  1.00  0.00     0.000 W 
ATOM     89 WAT  UNL     1       2.461  -4.652   0.841  1.00  0.00     0.000 W 
ATOM     90 WAT  UNL     1       2.653  -2.918   5.316  1.00  0.00     0.000 W 
ENDBRANCH   5  86
BRANCH   4  91
ATOM     91  O   UNL     1       4.893   0.184   2.730  1.00  0.00    -0.387 OA
ATOM     92  H   UNL     1       5.152   0.921   3.309  1.00  0.00     0.211 HD
ATOM     93 WAT  UNL     1       5.109   1.157  -0.099  1.00  0.00     0.000 W 
ATOM     94 WAT  UNL     1       6.450  -2.225   3.611  1.00  0.00     0.000 W 
ATOM     95 WAT  UNL     1       5.684   2.438   4.499  1.00  0.00     0.000 W 
ENDBRANCH   4  91
TORSDOF 16
