MODEL 1
REMARK VINA RESULT:      -5.2      0.000      0.000
REMARK  4 active torsions:
REMARK  status: ('A' for Active; 'I' for Inactive)
REMARK    1  A    between atoms: O_1  and  C_10 
REMARK    2  A    between atoms: O_1  and  C_11 
REMARK    3  A    between atoms: N_3  and  C_7 
REMARK    4  A    between atoms: C_4  and  C_10 
ROOT
HETATM    1  O   UNK     0     147.033 153.909 148.766  0.00  0.00    -0.318 OA
ENDROOT
BRANCH   1   2
HETATM    2  C   UNK     0     147.073 154.520 149.990  0.00  0.00     0.293 C 
HETATM    3  O   UNK     0     147.398 153.948 151.039  0.00  0.00    -0.259 OA
BRANCH   2   4
HETATM    4  C   UNK     0     146.685 155.918 149.903  0.00  0.00     0.039 A 
HETATM    5  C   UNK     0     147.523 156.908 150.417  0.00  0.00     0.020 A 
HETATM    6  C   UNK     0     147.149 158.250 150.334  0.00  0.00     0.030 A 
HETATM    7  C   UNK     0     145.940 158.602 149.735  0.00  0.00     0.025 A 
HETATM    8  C   UNK     0     145.103 157.612 149.221  0.00  0.00     0.030 A 
HETATM    9  C   UNK     0     145.474 156.270 149.305  0.00  0.00     0.020 A 
BRANCH   7  10
HETATM   10  N   UNK     0     145.563 159.958 149.651  0.00  0.00    -0.399 N 
HETATM   11  H   UNK     0     144.932 160.352 150.337  0.00  0.00     0.156 HD
HETATM   12  H   UNK     0     145.923 160.538 148.904  0.00  0.00     0.156 HD
ENDBRANCH   7  10
ENDBRANCH   2   4
ENDBRANCH   1   2
BRANCH   1  13
HETATM   13  C   UNK     0     148.090 154.224 147.853  0.00  0.00     0.174 C 
HETATM   14  C   UNK     0     147.806 153.559 146.523  0.00  0.00     0.034 C 
ENDBRANCH   1  13
TORSDOF 4
ENDMDL
MODEL 2
REMARK VINA RESULT:      -5.2     15.008     15.783
REMARK  4 active torsions:
REMARK  status: ('A' for Active; 'I' for Inactive)
REMARK    1  A    between atoms: O_1  and  C_10 
REMARK    2  A    between atoms: O_1  and  C_11 
REMARK    3  A    between atoms: N_3  and  C_7 
REMARK    4  A    between atoms: C_4  and  C_10 
ROOT
HETATM    1  O   UNK     0     138.225 153.093 159.505  0.00  0.00    -0.318 OA
ENDROOT
BRANCH   1   2
HETATM    2  C   UNK     0     138.138 151.944 160.243  0.00  0.00     0.293 C 
HETATM    3  O   UNK     0     137.880 150.832 159.765  0.00  0.00    -0.259 OA
BRANCH   2   4
HETATM    4  C   UNK     0     138.386 152.196 161.654  0.00  0.00     0.039 A 
HETATM    5  C   UNK     0     139.508 151.645 162.274  0.00  0.00     0.020 A 
HETATM    6  C   UNK     0     139.744 151.887 163.628  0.00  0.00     0.030 A 
HETATM    7  C   UNK     0     138.860 152.679 164.361  0.00  0.00     0.025 A 
HETATM    8  C   UNK     0     137.739 153.229 163.740  0.00  0.00     0.030 A 
HETATM    9  C   UNK     0     137.501 152.987 162.387  0.00  0.00     0.020 A 
BRANCH   7  10
HETATM   10  N   UNK     0     139.100 152.922 165.728  0.00  0.00    -0.399 N 
HETATM   11  H   UNK     0     138.554 152.442 166.432  0.00  0.00     0.156 HD
HETATM   12  H   UNK     0     139.817 153.579 166.008  0.00  0.00     0.156 HD
ENDBRANCH   7  10
ENDBRANCH   2   4
ENDBRANCH   1   2
BRANCH   1  13
HETATM   13  C   UNK     0     137.292 153.242 158.429  0.00  0.00     0.174 C 
HETATM   14  C   UNK     0     136.005 153.826 158.970  0.00  0.00     0.034 C 
ENDBRANCH   1  13
TORSDOF 4
ENDMDL
MODEL 3
REMARK VINA RESULT:      -5.1     10.347     12.138
REMARK  4 active torsions:
REMARK  status: ('A' for Active; 'I' for Inactive)
REMARK    1  A    between atoms: O_1  and  C_10 
REMARK    2  A    between atoms: O_1  and  C_11 
REMARK    3  A    between atoms: N_3  and  C_7 
REMARK    4  A    between atoms: C_4  and  C_10 
ROOT
HETATM    1  O   UNK     0     144.535 146.286 140.097  0.00  0.00    -0.318 OA
ENDROOT
BRANCH   1   2
HETATM    2  C   UNK     0     145.891 146.437 140.204  0.00  0.00     0.293 C 
HETATM    3  O   UNK     0     146.709 145.912 139.438  0.00  0.00    -0.259 OA
BRANCH   2   4
HETATM    4  C   UNK     0     146.247 147.287 141.329  0.00  0.00     0.039 A 
HETATM    5  C   UNK     0     146.713 146.717 142.514  0.00  0.00     0.020 A 
HETATM    6  C   UNK     0     147.053 147.533 143.594  0.00  0.00     0.030 A 
HETATM    7  C   UNK     0     146.928 148.918 143.489  0.00  0.00     0.025 A 
HETATM    8  C   UNK     0     146.462 149.487 142.304  0.00  0.00     0.030 A 
HETATM    9  C   UNK     0     146.121 148.672 141.225  0.00  0.00     0.020 A 
BRANCH   7  10
HETATM   10  N   UNK     0     147.272 149.742 144.580  0.00  0.00    -0.399 N 
HETATM   11  H   UNK     0     148.226 150.054 144.698  0.00  0.00     0.156 HD
HETATM   12  H   UNK     0     146.563 150.020 145.247  0.00  0.00     0.156 HD
ENDBRANCH   7  10
ENDBRANCH   2   4
ENDBRANCH   1   2
BRANCH   1  13
HETATM   13  C   UNK     0     144.029 144.947 140.130  0.00  0.00     0.174 C 
HETATM   14  C   UNK     0     143.504 144.653 141.518  0.00  0.00     0.034 C 
ENDBRANCH   1  13
TORSDOF 4
ENDMDL
MODEL 4
REMARK VINA RESULT:      -5.1     10.095     11.706
REMARK  4 active torsions:
REMARK  status: ('A' for Active; 'I' for Inactive)
REMARK    1  A    between atoms: O_1  and  C_10 
REMARK    2  A    between atoms: O_1  and  C_11 
REMARK    3  A    between atoms: N_3  and  C_7 
REMARK    4  A    between atoms: C_4  and  C_10 
ROOT
HETATM    1  O   UNK     0     147.186 145.871 140.030  0.00  0.00    -0.318 OA
ENDROOT
BRANCH   1   2
HETATM    2  C   UNK     0     146.040 146.465 140.483  0.00  0.00     0.293 C 
HETATM    3  O   UNK     0     144.910 146.217 140.041  0.00  0.00    -0.259 OA
BRANCH   2   4
HETATM    4  C   UNK     0     146.317 147.419 141.545  0.00  0.00     0.039 A 
HETATM    5  C   UNK     0     146.831 146.977 142.764  0.00  0.00     0.020 A 
HETATM    6  C   UNK     0     147.095 147.893 143.782  0.00  0.00     0.030 A 
HETATM    7  C   UNK     0     146.847 149.251 143.582  0.00  0.00     0.025 A 
HETATM    8  C   UNK     0     146.333 149.693 142.364  0.00  0.00     0.030 A 
HETATM    9  C   UNK     0     146.067 148.777 141.345  0.00  0.00     0.020 A 
BRANCH   7  10
HETATM   10  N   UNK     0     147.114 150.176 144.612  0.00  0.00    -0.399 N 
HETATM   11  H   UNK     0     146.553 151.012 144.700  0.00  0.00     0.156 HD
HETATM   12  H   UNK     0     147.870 150.004 145.263  0.00  0.00     0.156 HD
ENDBRANCH   7  10
ENDBRANCH   2   4
ENDBRANCH   1   2
BRANCH   1  13
HETATM   13  C   UNK     0     148.044 146.667 139.204  0.00  0.00     0.174 C 
HETATM   14  C   UNK     0     149.458 146.581 139.736  0.00  0.00     0.034 C 
ENDBRANCH   1  13
TORSDOF 4
ENDMDL
MODEL 5
REMARK VINA RESULT:      -5.0     13.424     14.380
REMARK  4 active torsions:
REMARK  status: ('A' for Active; 'I' for Inactive)
REMARK    1  A    between atoms: O_1  and  C_10 
REMARK    2  A    between atoms: O_1  and  C_11 
REMARK    3  A    between atoms: N_3  and  C_7 
REMARK    4  A    between atoms: C_4  and  C_10 
ROOT
HETATM    1  O   UNK     0     138.534 152.693 160.287  0.00  0.00    -0.318 OA
ENDROOT
BRANCH   1   2
HETATM    2  C   UNK     0     137.262 153.197 160.312  0.00  0.00     0.293 C 
HETATM    3  O   UNK     0     136.651 153.482 161.350  0.00  0.00    -0.259 OA
BRANCH   2   4
HETATM    4  C   UNK     0     136.722 153.352 158.971  0.00  0.00     0.039 A 
HETATM    5  C   UNK     0     135.430 153.847 158.792  0.00  0.00     0.020 A 
HETATM    6  C   UNK     0     134.912 153.995 157.505  0.00  0.00     0.030 A 
HETATM    7  C   UNK     0     135.686 153.649 156.397  0.00  0.00     0.025 A 
HETATM    8  C   UNK     0     136.977 153.154 156.576  0.00  0.00     0.030 A 
HETATM    9  C   UNK     0     137.495 153.005 157.863  0.00  0.00     0.020 A 
BRANCH   7  10
HETATM   10  N   UNK     0     135.162 153.798 155.097  0.00  0.00    -0.399 N 
HETATM   11  H   UNK     0     134.611 153.057 154.685  0.00  0.00     0.156 HD
HETATM   12  H   UNK     0     135.338 154.647 154.574  0.00  0.00     0.156 HD
ENDBRANCH   7  10
ENDBRANCH   2   4
ENDBRANCH   1   2
BRANCH   1  13
HETATM   13  C   UNK     0     138.816 151.602 161.170  0.00  0.00     0.174 C 
HETATM   14  C   UNK     0     139.923 152.009 162.118  0.00  0.00     0.034 C 
ENDBRANCH   1  13
TORSDOF 4
ENDMDL
MODEL 6
REMARK VINA RESULT:      -5.0     10.811     13.533
REMARK  4 active torsions:
REMARK  status: ('A' for Active; 'I' for Inactive)
REMARK    1  A    between atoms: O_1  and  C_10 
REMARK    2  A    between atoms: O_1  and  C_11 
REMARK    3  A    between atoms: N_3  and  C_7 
REMARK    4  A    between atoms: C_4  and  C_10 
ROOT
HETATM    1  O   UNK     0     147.170 147.906 141.072  0.00  0.00    -0.318 OA
ENDROOT
BRANCH   1   2
HETATM    2  C   UNK     0     146.782 146.878 140.255  0.00  0.00     0.293 C 
HETATM    3  O   UNK     0     147.284 146.646 139.148  0.00  0.00    -0.259 OA
BRANCH   2   4
HETATM    4  C   UNK     0     145.709 146.099 140.851  0.00  0.00     0.039 A 
HETATM    5  C   UNK     0     144.546 145.842 140.123  0.00  0.00     0.020 A 
HETATM    6  C   UNK     0     143.516 145.095 140.696  0.00  0.00     0.030 A 
HETATM    7  C   UNK     0     143.649 144.603 141.995  0.00  0.00     0.025 A 
HETATM    8  C   UNK     0     144.811 144.860 142.722  0.00  0.00     0.030 A 
HETATM    9  C   UNK     0     145.841 145.608 142.150  0.00  0.00     0.020 A 
BRANCH   7  10
HETATM   10  N   UNK     0     142.608 143.849 142.572  0.00  0.00    -0.399 N 
HETATM   11  H   UNK     0     142.490 142.875 142.324  0.00  0.00     0.156 HD
HETATM   12  H   UNK     0     141.977 144.281 143.235  0.00  0.00     0.156 HD
ENDBRANCH   7  10
ENDBRANCH   2   4
ENDBRANCH   1   2
BRANCH   1  13
HETATM   13  C   UNK     0     146.290 149.031 141.157  0.00  0.00     0.174 C 
HETATM   14  C   UNK     0     146.249 149.517 142.590  0.00  0.00     0.034 C 
ENDBRANCH   1  13
TORSDOF 4
ENDMDL
MODEL 7
REMARK VINA RESULT:      -5.0     14.102     14.941
REMARK  4 active torsions:
REMARK  status: ('A' for Active; 'I' for Inactive)
REMARK    1  A    between atoms: O_1  and  C_10 
REMARK    2  A    between atoms: O_1  and  C_11 
REMARK    3  A    between atoms: N_3  and  C_7 
REMARK    4  A    between atoms: C_4  and  C_10 
ROOT
HETATM    1  O   UNK     0     136.360 154.069 157.861  0.00  0.00    -0.318 OA
ENDROOT
BRANCH   1   2
HETATM    2  C   UNK     0     135.846 153.690 159.072  0.00  0.00     0.293 C 
HETATM    3  O   UNK     0     134.668 153.865 159.409  0.00  0.00    -0.259 OA
BRANCH   2   4
HETATM    4  C   UNK     0     136.856 153.061 159.907  0.00  0.00     0.039 A 
HETATM    5  C   UNK     0     137.749 152.145 159.351  0.00  0.00     0.020 A 
HETATM    6  C   UNK     0     138.718 151.540 160.153  0.00  0.00     0.030 A 
HETATM    7  C   UNK     0     138.794 151.853 161.511  0.00  0.00     0.025 A 
HETATM    8  C   UNK     0     137.901 152.768 162.066  0.00  0.00     0.030 A 
HETATM    9  C   UNK     0     136.932 153.373 161.265  0.00  0.00     0.020 A 
BRANCH   7  10
HETATM   10  N   UNK     0     139.773 151.242 162.321  0.00  0.00    -0.399 N 
HETATM   11  H   UNK     0     140.102 151.708 163.155  0.00  0.00     0.156 HD
HETATM   12  H   UNK     0     140.148 150.337 162.066  0.00  0.00     0.156 HD
ENDBRANCH   7  10
ENDBRANCH   2   4
ENDBRANCH   1   2
BRANCH   1  13
HETATM   13  C   UNK     0     135.597 153.724 156.699  0.00  0.00     0.174 C 
HETATM   14  C   UNK     0     136.331 152.648 155.929  0.00  0.00     0.034 C 
ENDBRANCH   1  13
TORSDOF 4
ENDMDL
MODEL 8
REMARK VINA RESULT:      -4.9     15.561     16.534
REMARK  4 active torsions:
REMARK  status: ('A' for Active; 'I' for Inactive)
REMARK    1  A    between atoms: O_1  and  C_10 
REMARK    2  A    between atoms: O_1  and  C_11 
REMARK    3  A    between atoms: N_3  and  C_7 
REMARK    4  A    between atoms: C_4  and  C_10 
ROOT
HETATM    1  O   UNK     0     138.874 153.008 164.565  0.00  0.00    -0.318 OA
ENDROOT
BRANCH   1   2
HETATM    2  C   UNK     0     139.152 151.899 163.813  0.00  0.00     0.293 C 
HETATM    3  O   UNK     0     139.744 150.900 164.244  0.00  0.00    -0.259 OA
BRANCH   2   4
HETATM    4  C   UNK     0     138.666 152.043 162.450  0.00  0.00     0.039 A 
HETATM    5  C   UNK     0     137.577 152.873 162.182  0.00  0.00     0.020 A 
HETATM    6  C   UNK     0     137.110 153.010 160.874  0.00  0.00     0.030 A 
HETATM    7  C   UNK     0     137.732 152.318 159.835  0.00  0.00     0.025 A 
HETATM    8  C   UNK     0     138.821 151.489 160.103  0.00  0.00     0.030 A 
HETATM    9  C   UNK     0     139.287 151.350 161.411  0.00  0.00     0.020 A 
BRANCH   7  10
HETATM   10  N   UNK     0     137.260 152.457 158.514  0.00  0.00    -0.399 N 
HETATM   11  H   UNK     0     136.619 151.776 158.131  0.00  0.00     0.156 HD
HETATM   12  H   UNK     0     137.565 153.238 157.947  0.00  0.00     0.156 HD
ENDBRANCH   7  10
ENDBRANCH   2   4
ENDBRANCH   1   2
BRANCH   1  13
HETATM   13  C   UNK     0     138.378 152.784 165.890  0.00  0.00     0.174 C 
HETATM   14  C   UNK     0     136.906 152.443 165.813  0.00  0.00     0.034 C 
ENDBRANCH   1  13
TORSDOF 4
ENDMDL
MODEL 9
REMARK VINA RESULT:      -4.9     14.026     14.918
REMARK  4 active torsions:
REMARK  status: ('A' for Active; 'I' for Inactive)
REMARK    1  A    between atoms: O_1  and  C_10 
REMARK    2  A    between atoms: O_1  and  C_11 
REMARK    3  A    between atoms: N_3  and  C_7 
REMARK    4  A    between atoms: C_4  and  C_10 
ROOT
HETATM    1  O   UNK     0     139.595 152.538 161.571  0.00  0.00    -0.318 OA
ENDROOT
BRANCH   1   2
HETATM    2  C   UNK     0     138.894 151.769 160.682  0.00  0.00     0.293 C 
HETATM    3  O   UNK     0     139.146 150.580 160.446  0.00  0.00    -0.259 OA
BRANCH   2   4
HETATM    4  C   UNK     0     137.823 152.523 160.051  0.00  0.00     0.039 A 
HETATM    5  C   UNK     0     136.804 153.072 160.831  0.00  0.00     0.020 A 
HETATM    6  C   UNK     0     135.776 153.795 160.226  0.00  0.00     0.030 A 
HETATM    7  C   UNK     0     135.766 153.970 158.842  0.00  0.00     0.025 A 
HETATM    8  C   UNK     0     136.785 153.422 158.063  0.00  0.00     0.030 A 
HETATM    9  C   UNK     0     137.813 152.698 158.667  0.00  0.00     0.020 A 
BRANCH   7  10
HETATM   10  N   UNK     0     134.727 154.701 158.231  0.00  0.00    -0.399 N 
HETATM   11  H   UNK     0     134.380 155.547 158.664  0.00  0.00     0.156 HD
HETATM   12  H   UNK     0     134.325 154.379 157.360  0.00  0.00     0.156 HD
ENDBRANCH   7  10
ENDBRANCH   2   4
ENDBRANCH   1   2
BRANCH   1  13
HETATM   13  C   UNK     0     140.199 151.859 162.677  0.00  0.00     0.174 C 
HETATM   14  C   UNK     0     139.205 151.792 163.816  0.00  0.00     0.034 C 
ENDBRANCH   1  13
TORSDOF 4
ENDMDL
MODEL 10
REMARK VINA RESULT:      -4.8     10.500     12.507
REMARK  4 active torsions:
REMARK  status: ('A' for Active; 'I' for Inactive)
REMARK    1  A    between atoms: O_1  and  C_10 
REMARK    2  A    between atoms: O_1  and  C_11 
REMARK    3  A    between atoms: N_3  and  C_7 
REMARK    4  A    between atoms: C_4  and  C_10 
ROOT
HETATM    1  O   UNK     0     149.162 149.049 142.072  0.00  0.00    -0.318 OA
ENDROOT
BRANCH   1   2
HETATM    2  C   UNK     0     147.794 149.043 142.036  0.00  0.00     0.293 C 
HETATM    3  O   UNK     0     147.082 149.865 142.627  0.00  0.00    -0.259 OA
BRANCH   2   4
HETATM    4  C   UNK     0     147.287 147.952 141.220  0.00  0.00     0.039 A 
HETATM    5  C   UNK     0     148.093 147.387 140.232  0.00  0.00     0.020 A 
HETATM    6  C   UNK     0     147.605 146.340 139.448  0.00  0.00     0.030 A 
HETATM    7  C   UNK     0     146.312 145.858 139.653  0.00  0.00     0.025 A 
HETATM    8  C   UNK     0     145.507 146.424 140.641  0.00  0.00     0.030 A 
HETATM    9  C   UNK     0     145.993 147.470 141.424  0.00  0.00     0.020 A 
BRANCH   7  10
HETATM   10  N   UNK     0     145.820 144.801 138.861  0.00  0.00    -0.399 N 
HETATM   11  H   UNK     0     146.077 144.738 137.885  0.00  0.00     0.156 HD
HETATM   12  H   UNK     0     145.208 144.106 139.268  0.00  0.00     0.156 HD
ENDBRANCH   7  10
ENDBRANCH   2   4
ENDBRANCH   1   2
BRANCH   1  13
HETATM   13  C   UNK     0     149.779 149.889 143.055  0.00  0.00     0.174 C 
HETATM   14  C   UNK     0     150.855 150.718 142.388  0.00  0.00     0.034 C 
ENDBRANCH   1  13
TORSDOF 4
ENDMDL
