MODEL 1
REMARK VINA RESULT:      -7.8      0.000      0.000
REMARK  Name = 5320623
REMARK  11 active torsions:
REMARK  status: ('A' for Active; 'I' for Inactive)
REMARK    1  A    between atoms: O_2  and  C_16
REMARK    2  A    between atoms: O_2  and  C_18
REMARK    3  A    between atoms: O_3  and  C_12
REMARK    4  A    between atoms: O_4  and  C_13
REMARK    5  A    between atoms: O_5  and  C_14
REMARK    6  A    between atoms: O_6  and  C_17
REMARK    7  A    between atoms: O_8  and  C_20
REMARK    8  A    between atoms: O_9  and  C_23
REMARK    9  A    between atoms: O_11  and  C_32
REMARK   10  A    between atoms: C_15  and  C_17
REMARK   11  A    between atoms: C_25  and  C_27
REMARK                            x       y       z     vdW  Elec       q    Type
REMARK                         _______ _______ _______ _____ _____    ______ ____
ROOT
ATOM      7  O   UNL     1     -12.906  42.064  13.314  0.00  0.00    +0.000 OA
ATOM     10  O   UNL     1     -10.921  45.339  11.922  0.00  0.00    +0.000 OA
ATOM     18  C   UNL     1     -10.399  40.380  11.275  0.00  0.00    +0.000 A 
ATOM     19  C   UNL     1     -11.479  40.603  12.129  0.00  0.00    +0.000 A 
ATOM     20  C   UNL     1      -9.675  41.459  10.765  0.00  0.00    +0.000 A 
ATOM     21  C   UNL     1     -11.835  41.908  12.471  0.00  0.00    +0.000 A 
ATOM     22  C   UNL     1     -11.111  42.984  11.960  0.00  0.00    +0.000 A 
ATOM     23  C   UNL     1     -10.029  42.765  11.105  0.00  0.00    +0.000 A 
ATOM     24  C   UNL     1     -11.509  44.349  12.336  0.00  0.00    +0.000 A 
ATOM     25  C   UNL     1     -13.278  43.349  13.678  0.00  0.00    +0.000 A 
ATOM     26  C   UNL     1     -12.666  44.464  13.247  0.00  0.00    +0.000 A 
ENDROOT
BRANCH  25  27
ATOM     27  C   UNL     1     -14.445  43.403  14.581  0.00  0.00    +0.000 A 
ATOM     28  C   UNL     1     -14.331  42.963  15.902  0.00  0.00    +0.000 A 
ATOM     29  C   UNL     1     -15.669  43.893  14.118  0.00  0.00    +0.000 A 
ATOM     30  C   UNL     1     -15.434  43.013  16.755  0.00  0.00    +0.000 A 
ATOM     31  C   UNL     1     -16.771  43.944  14.971  0.00  0.00    +0.000 A 
ATOM     32  C   UNL     1     -16.654  43.503  16.289  0.00  0.00    +0.000 A 
BRANCH  32  11
ATOM     11  O   UNL     1     -17.730  43.553  17.121  0.00  0.00    +0.000 OA
ATOM     39  H   UNL     1     -18.099  44.452  17.106  0.00  0.00    +0.000 HD
ENDBRANCH  32  11
ENDBRANCH  25  27
BRANCH  20   8
ATOM      8  O   UNL     1      -8.620  41.231   9.930  0.00  0.00    +0.000 OA
ATOM     37  H   UNL     1      -8.837  40.472   9.361  0.00  0.00    +0.000 HD
ENDBRANCH  20   8
BRANCH  23   9
ATOM      9  O   UNL     1      -9.298  43.791  10.587  0.00  0.00    +0.000 OA
ATOM     38  H   UNL     1      -8.497  43.458  10.153  0.00  0.00    +0.000 HD
ENDBRANCH  23   9
BRANCH  18   2
ATOM      2  O   UNL     1     -10.058  39.099  10.948  0.00  0.00    +0.000 OA
BRANCH   2  16
ATOM      1  O   UNL     1     -11.408  37.210  10.709  0.00  0.00    +0.000 OA
ATOM     12  C   UNL     1     -11.032  37.198   7.861  0.00  0.00    +0.000 C 
ATOM     13  C   UNL     1     -11.635  36.012   8.614  0.00  0.00    +0.000 C 
ATOM     14  C   UNL     1     -10.194  38.075   8.792  0.00  0.00    +0.000 C 
ATOM     15  C   UNL     1     -12.327  36.478   9.898  0.00  0.00    +0.000 C 
ATOM     16  C   UNL     1     -10.952  38.404  10.078  0.00  0.00    +0.000 C 
BRANCH  12   3
ATOM      3  O   UNL     1     -10.203  36.683   6.818  0.00  0.00    +0.000 OA
ATOM     33  H   UNL     1      -9.962  37.430   6.243  0.00  0.00    +0.000 HD
ENDBRANCH  12   3
BRANCH  13   4
ATOM      4  O   UNL     1     -12.585  35.356   7.778  0.00  0.00    +0.000 OA
ATOM     34  H   UNL     1     -12.342  34.416   7.728  0.00  0.00    +0.000 HD
ENDBRANCH  13   4
BRANCH  14   5
ATOM      5  O   UNL     1      -9.881  39.301   8.131  0.00  0.00    +0.000 OA
ATOM     35  H   UNL     1      -8.968  39.244   7.805  0.00  0.00    +0.000 HD
ENDBRANCH  14   5
BRANCH  15  17
ATOM     17  C   UNL     1     -12.835  35.302  10.725  0.00  0.00    +0.000 C 
BRANCH  17   6
ATOM      6  O   UNL     1     -12.336  34.103  10.162  0.00  0.00    +0.000 OA
ATOM     36  H   UNL     1     -11.617  33.786  10.735  0.00  0.00    +0.000 HD
ENDBRANCH  17   6
ENDBRANCH  15  17
ENDBRANCH   2  16
ENDBRANCH  18   2
TORSDOF 11
ENDMDL
MODEL 2
REMARK VINA RESULT:      -7.6      4.251     10.448
REMARK  Name = 5320623
REMARK  11 active torsions:
REMARK  status: ('A' for Active; 'I' for Inactive)
REMARK    1  A    between atoms: O_2  and  C_16
REMARK    2  A    between atoms: O_2  and  C_18
REMARK    3  A    between atoms: O_3  and  C_12
REMARK    4  A    between atoms: O_4  and  C_13
REMARK    5  A    between atoms: O_5  and  C_14
REMARK    6  A    between atoms: O_6  and  C_17
REMARK    7  A    between atoms: O_8  and  C_20
REMARK    8  A    between atoms: O_9  and  C_23
REMARK    9  A    between atoms: O_11  and  C_32
REMARK   10  A    between atoms: C_15  and  C_17
REMARK   11  A    between atoms: C_25  and  C_27
REMARK                            x       y       z     vdW  Elec       q    Type
REMARK                         _______ _______ _______ _____ _____    ______ ____
ROOT
ATOM      7  O   UNL     1     -11.119  35.525   6.170  0.00  0.00    +0.000 OA
ATOM     10  O   UNL     1     -12.344  33.466   9.465  0.00  0.00    +0.000 OA
ATOM     18  C   UNL     1     -10.207  37.957   8.727  0.00  0.00    +0.000 A 
ATOM     19  C   UNL     1     -10.388  37.345   7.487  0.00  0.00    +0.000 A 
ATOM     20  C   UNL     1     -10.605  37.305   9.895  0.00  0.00    +0.000 A 
ATOM     21  C   UNL     1     -10.967  36.077   7.417  0.00  0.00    +0.000 A 
ATOM     22  C   UNL     1     -11.363  35.427   8.585  0.00  0.00    +0.000 A 
ATOM     23  C   UNL     1     -11.184  36.037   9.828  0.00  0.00    +0.000 A 
ATOM     24  C   UNL     1     -11.971  34.092   8.482  0.00  0.00    +0.000 A 
ATOM     25  C   UNL     1     -11.683  34.263   6.071  0.00  0.00    +0.000 A 
ATOM     26  C   UNL     1     -12.110  33.541   7.119  0.00  0.00    +0.000 A 
ENDROOT
BRANCH  25  27
ATOM     27  C   UNL     1     -11.805  33.768   4.685  0.00  0.00    +0.000 A 
ATOM     28  C   UNL     1     -10.675  33.322   3.997  0.00  0.00    +0.000 A 
ATOM     29  C   UNL     1     -13.053  33.745   4.055  0.00  0.00    +0.000 A 
ATOM     30  C   UNL     1     -10.790  32.855   2.687  0.00  0.00    +0.000 A 
ATOM     31  C   UNL     1     -13.168  33.278   2.746  0.00  0.00    +0.000 A 
ATOM     32  C   UNL     1     -12.037  32.834   2.062  0.00  0.00    +0.000 A 
BRANCH  32  11
ATOM     11  O   UNL     1     -12.150  32.378   0.784  0.00  0.00    +0.000 OA
ATOM     39  H   UNL     1     -12.112  33.134   0.175  0.00  0.00    +0.000 HD
ENDBRANCH  32  11
ENDBRANCH  25  27
BRANCH  20   8
ATOM      8  O   UNL     1     -10.425  37.913  11.104  0.00  0.00    +0.000 OA
ATOM     37  H   UNL     1     -10.988  38.706  11.135  0.00  0.00    +0.000 HD
ENDBRANCH  20   8
BRANCH  23   9
ATOM      9  O   UNL     1     -11.558  35.433  10.991  0.00  0.00    +0.000 OA
ATOM     38  H   UNL     1     -12.292  34.817  10.838  0.00  0.00    +0.000 HD
ENDBRANCH  23   9
BRANCH  18   2
ATOM      2  O   UNL     1      -9.640  39.197   8.783  0.00  0.00    +0.000 OA
BRANCH   2  16
ATOM      1  O   UNL     1     -11.061  40.766   7.800  0.00  0.00    +0.000 OA
ATOM     12  C   UNL     1     -10.549  42.665   9.895  0.00  0.00    +0.000 C 
ATOM     13  C   UNL     1     -11.241  43.052   8.588  0.00  0.00    +0.000 C 
ATOM     14  C   UNL     1      -9.718  41.393   9.725  0.00  0.00    +0.000 C 
ATOM     15  C   UNL     1     -11.972  41.851   7.983  0.00  0.00    +0.000 C 
ATOM     16  C   UNL     1     -10.521  40.292   9.032  0.00  0.00    +0.000 C 
BRANCH  12   3
ATOM      3  O   UNL     1      -9.696  43.744  10.280  0.00  0.00    +0.000 OA
ATOM     33  H   UNL     1      -9.127  43.950   9.519  0.00  0.00    +0.000 HD
ENDBRANCH  12   3
BRANCH  13   4
ATOM      4  O   UNL     1     -12.179  44.095   8.841  0.00  0.00    +0.000 OA
ATOM     34  H   UNL     1     -12.422  44.494   7.988  0.00  0.00    +0.000 HD
ENDBRANCH  13   4
BRANCH  14   5
ATOM      5  O   UNL     1      -9.319  40.914  11.009  0.00  0.00    +0.000 OA
ATOM     35  H   UNL     1      -9.487  39.958  11.041  0.00  0.00    +0.000 HD
ENDBRANCH  14   5
BRANCH  15  17
ATOM     17  C   UNL     1     -12.572  42.181   6.620  0.00  0.00    +0.000 C 
BRANCH  17   6
ATOM      6  O   UNL     1     -12.068  43.434   6.196  0.00  0.00    +0.000 OA
ATOM     36  H   UNL     1     -12.065  44.026   6.968  0.00  0.00    +0.000 HD
ENDBRANCH  17   6
ENDBRANCH  15  17
ENDBRANCH   2  16
ENDBRANCH  18   2
TORSDOF 11
ENDMDL
MODEL 3
REMARK VINA RESULT:      -7.5     23.446     26.678
REMARK  Name = 5320623
REMARK  11 active torsions:
REMARK  status: ('A' for Active; 'I' for Inactive)
REMARK    1  A    between atoms: O_2  and  C_16
REMARK    2  A    between atoms: O_2  and  C_18
REMARK    3  A    between atoms: O_3  and  C_12
REMARK    4  A    between atoms: O_4  and  C_13
REMARK    5  A    between atoms: O_5  and  C_14
REMARK    6  A    between atoms: O_6  and  C_17
REMARK    7  A    between atoms: O_8  and  C_20
REMARK    8  A    between atoms: O_9  and  C_23
REMARK    9  A    between atoms: O_11  and  C_32
REMARK   10  A    between atoms: C_15  and  C_17
REMARK   11  A    between atoms: C_25  and  C_27
REMARK                            x       y       z     vdW  Elec       q    Type
REMARK                         _______ _______ _______ _____ _____    ______ ____
ROOT
ATOM      7  O   UNL     1     -13.514  43.929  38.175  0.00  0.00    +0.000 OA
ATOM     10  O   UNL     1      -9.627  42.744  37.870  0.00  0.00    +0.000 OA
ATOM     18  C   UNL     1     -12.522  45.975  35.327  0.00  0.00    +0.000 A 
ATOM     19  C   UNL     1     -13.287  45.400  36.341  0.00  0.00    +0.000 A 
ATOM     20  C   UNL     1     -11.184  45.612  35.168  0.00  0.00    +0.000 A 
ATOM     21  C   UNL     1     -12.712  44.460  37.196  0.00  0.00    +0.000 A 
ATOM     22  C   UNL     1     -11.375  44.098  37.036  0.00  0.00    +0.000 A 
ATOM     23  C   UNL     1     -10.605  44.672  36.022  0.00  0.00    +0.000 A 
ATOM     24  C   UNL     1     -10.794  43.106  37.952  0.00  0.00    +0.000 A 
ATOM     25  C   UNL     1     -12.971  42.986  39.034  0.00  0.00    +0.000 A 
ATOM     26  C   UNL     1     -11.698  42.562  38.985  0.00  0.00    +0.000 A 
ENDROOT
BRANCH  25  27
ATOM     27  C   UNL     1     -13.918  42.486  40.051  0.00  0.00    +0.000 A 
ATOM     28  C   UNL     1     -13.530  41.477  40.935  0.00  0.00    +0.000 A 
ATOM     29  C   UNL     1     -15.207  43.018  40.131  0.00  0.00    +0.000 A 
ATOM     30  C   UNL     1     -14.425  41.004  41.895  0.00  0.00    +0.000 A 
ATOM     31  C   UNL     1     -16.102  42.546  41.091  0.00  0.00    +0.000 A 
ATOM     32  C   UNL     1     -15.712  41.538  41.972  0.00  0.00    +0.000 A 
BRANCH  32  11
ATOM     11  O   UNL     1     -16.585  41.077  42.909  0.00  0.00    +0.000 OA
ATOM     39  H   UNL     1     -16.748  41.779  43.561  0.00  0.00    +0.000 HD
ENDBRANCH  32  11
ENDBRANCH  25  27
BRANCH  20   8
ATOM      8  O   UNL     1     -10.442  46.181  34.173  0.00  0.00    +0.000 OA
ATOM     37  H   UNL     1     -10.430  45.573  33.413  0.00  0.00    +0.000 HD
ENDBRANCH  20   8
BRANCH  23   9
ATOM      9  O   UNL     1      -9.296  44.343  35.833  0.00  0.00    +0.000 OA
ATOM     38  H   UNL     1      -9.116  43.447  36.159  0.00  0.00    +0.000 HD
ENDBRANCH  23   9
BRANCH  18   2
ATOM      2  O   UNL     1     -13.095  46.894  34.496  0.00  0.00    +0.000 OA
BRANCH   2  16
ATOM      1  O   UNL     1     -13.882  48.833  35.530  0.00  0.00    +0.000 OA
ATOM     12  C   UNL     1     -12.511  50.500  33.634  0.00  0.00    +0.000 C 
ATOM     13  C   UNL     1     -13.579  51.044  34.582  0.00  0.00    +0.000 C 
ATOM     14  C   UNL     1     -12.664  48.992  33.434  0.00  0.00    +0.000 C 
ATOM     15  C   UNL     1     -13.651  50.203  35.860  0.00  0.00    +0.000 C 
ATOM     16  C   UNL     1     -12.815  48.266  34.771  0.00  0.00    +0.000 C 
BRANCH  12   3
ATOM      3  O   UNL     1     -12.656  51.164  32.378  0.00  0.00    +0.000 OA
ATOM     33  H   UNL     1     -13.562  50.999  32.065  0.00  0.00    +0.000 HD
ENDBRANCH  12   3
BRANCH  13   4
ATOM      4  O   UNL     1     -13.267  52.392  34.923  0.00  0.00    +0.000 OA
ATOM     34  H   UNL     1     -12.352  52.414  35.253  0.00  0.00    +0.000 HD
ENDBRANCH  13   4
BRANCH  14   5
ATOM      5  O   UNL     1     -11.504  48.482  32.777  0.00  0.00    +0.000 OA
ATOM     35  H   UNL     1     -11.425  47.537  32.991  0.00  0.00    +0.000 HD
ENDBRANCH  14   5
BRANCH  15  17
ATOM     17  C   UNL     1     -14.789  50.654  36.770  0.00  0.00    +0.000 C 
BRANCH  17   6
ATOM      6  O   UNL     1     -15.771  51.299  35.981  0.00  0.00    +0.000 OA
ATOM     36  H   UNL     1     -15.812  52.228  36.265  0.00  0.00    +0.000 HD
ENDBRANCH  17   6
ENDBRANCH  15  17
ENDBRANCH   2  16
ENDBRANCH  18   2
TORSDOF 11
ENDMDL
MODEL 4
REMARK VINA RESULT:      -7.4      1.437      2.551
REMARK  Name = 5320623
REMARK  11 active torsions:
REMARK  status: ('A' for Active; 'I' for Inactive)
REMARK    1  A    between atoms: O_2  and  C_16
REMARK    2  A    between atoms: O_2  and  C_18
REMARK    3  A    between atoms: O_3  and  C_12
REMARK    4  A    between atoms: O_4  and  C_13
REMARK    5  A    between atoms: O_5  and  C_14
REMARK    6  A    between atoms: O_6  and  C_17
REMARK    7  A    between atoms: O_8  and  C_20
REMARK    8  A    between atoms: O_9  and  C_23
REMARK    9  A    between atoms: O_11  and  C_32
REMARK   10  A    between atoms: C_15  and  C_17
REMARK   11  A    between atoms: C_25  and  C_27
REMARK                            x       y       z     vdW  Elec       q    Type
REMARK                         _______ _______ _______ _____ _____    ______ ____
ROOT
ATOM      7  O   UNL     1     -12.791  41.693  12.914  0.00  0.00    +0.000 OA
ATOM     10  O   UNL     1     -10.722  45.052  11.895  0.00  0.00    +0.000 OA
ATOM     18  C   UNL     1     -10.261  40.172  10.776  0.00  0.00    +0.000 A 
ATOM     19  C   UNL     1     -11.359  40.329  11.623  0.00  0.00    +0.000 A 
ATOM     20  C   UNL     1      -9.509  41.282  10.390  0.00  0.00    +0.000 A 
ATOM     21  C   UNL     1     -11.702  41.600  12.083  0.00  0.00    +0.000 A 
ATOM     22  C   UNL     1     -10.950  42.709  11.697  0.00  0.00    +0.000 A 
ATOM     23  C   UNL     1      -9.851  42.555  10.849  0.00  0.00    +0.000 A 
ATOM     24  C   UNL     1     -11.335  44.037  12.196  0.00  0.00    +0.000 A 
ATOM     25  C   UNL     1     -13.151  42.943  13.393  0.00  0.00    +0.000 A 
ATOM     26  C   UNL     1     -12.511  44.083  13.088  0.00  0.00    +0.000 A 
ENDROOT
BRANCH  25  27
ATOM     27  C   UNL     1     -14.338  42.929  14.272  0.00  0.00    +0.000 A 
ATOM     28  C   UNL     1     -15.518  42.314  13.847  0.00  0.00    +0.000 A 
ATOM     29  C   UNL     1     -14.286  43.534  15.530  0.00  0.00    +0.000 A 
ATOM     30  C   UNL     1     -16.639  42.302  14.677  0.00  0.00    +0.000 A 
ATOM     31  C   UNL     1     -15.408  43.522  16.360  0.00  0.00    +0.000 A 
ATOM     32  C   UNL     1     -16.584  42.906  15.933  0.00  0.00    +0.000 A 
BRANCH  32  11
ATOM     11  O   UNL     1     -17.678  42.894  16.743  0.00  0.00    +0.000 OA
ATOM     39  H   UNL     1     -18.282  42.192  16.446  0.00  0.00    +0.000 HD
ENDBRANCH  32  11
ENDBRANCH  25  27
BRANCH  20   8
ATOM      8  O   UNL     1      -8.438  41.118   9.560  0.00  0.00    +0.000 OA
ATOM     37  H   UNL     1      -8.596  40.334   9.007  0.00  0.00    +0.000 HD
ENDBRANCH  20   8
BRANCH  23   9
ATOM      9  O   UNL     1      -9.091  43.614  10.450  0.00  0.00    +0.000 OA
ATOM     38  H   UNL     1      -9.190  43.769   9.498  0.00  0.00    +0.000 HD
ENDBRANCH  23   9
BRANCH  18   2
ATOM      2  O   UNL     1      -9.934  38.923  10.332  0.00  0.00    +0.000 OA
BRANCH   2  16
ATOM      1  O   UNL     1     -11.059  39.633   8.414  0.00  0.00    +0.000 OA
ATOM     12  C   UNL     1     -11.205  36.947   7.405  0.00  0.00    +0.000 C 
ATOM     13  C   UNL     1     -12.025  38.092   6.810  0.00  0.00    +0.000 C 
ATOM     14  C   UNL     1     -10.780  37.258   8.841  0.00  0.00    +0.000 C 
ATOM     15  C   UNL     1     -11.319  39.434   7.024  0.00  0.00    +0.000 C 
ATOM     16  C   UNL     1     -10.170  38.655   8.950  0.00  0.00    +0.000 C 
BRANCH  12   3
ATOM      3  O   UNL     1     -12.016  35.771   7.392  0.00  0.00    +0.000 OA
ATOM     33  H   UNL     1     -11.560  35.098   7.926  0.00  0.00    +0.000 HD
ENDBRANCH  12   3
BRANCH  13   4
ATOM      4  O   UNL     1     -12.202  37.870   5.414  0.00  0.00    +0.000 OA
ATOM     34  H   UNL     1     -12.872  37.174   5.303  0.00  0.00    +0.000 HD
ENDBRANCH  13   4
BRANCH  14   5
ATOM      5  O   UNL     1      -9.801  36.308   9.260  0.00  0.00    +0.000 OA
ATOM     35  H   UNL     1     -10.201  35.742   9.942  0.00  0.00    +0.000 HD
ENDBRANCH  14   5
BRANCH  15  17
ATOM     17  C   UNL     1     -12.171  40.604   6.544  0.00  0.00    +0.000 C 
BRANCH  17   6
ATOM      6  O   UNL     1     -11.893  40.834   5.175  0.00  0.00    +0.000 OA
ATOM     36  H   UNL     1     -11.547  41.740   5.094  0.00  0.00    +0.000 HD
ENDBRANCH  17   6
ENDBRANCH  15  17
ENDBRANCH   2  16
ENDBRANCH  18   2
TORSDOF 11
ENDMDL
MODEL 5
REMARK VINA RESULT:      -7.4      8.885     11.897
REMARK  Name = 5320623
REMARK  11 active torsions:
REMARK  status: ('A' for Active; 'I' for Inactive)
REMARK    1  A    between atoms: O_2  and  C_16
REMARK    2  A    between atoms: O_2  and  C_18
REMARK    3  A    between atoms: O_3  and  C_12
REMARK    4  A    between atoms: O_4  and  C_13
REMARK    5  A    between atoms: O_5  and  C_14
REMARK    6  A    between atoms: O_6  and  C_17
REMARK    7  A    between atoms: O_8  and  C_20
REMARK    8  A    between atoms: O_9  and  C_23
REMARK    9  A    between atoms: O_11  and  C_32
REMARK   10  A    between atoms: C_15  and  C_17
REMARK   11  A    between atoms: C_25  and  C_27
REMARK                            x       y       z     vdW  Elec       q    Type
REMARK                         _______ _______ _______ _____ _____    ______ ____
ROOT
ATOM      7  O   UNL     1     -17.225  40.639  20.275  0.00  0.00    +0.000 OA
ATOM     10  O   UNL     1     -17.987  41.157  24.244  0.00  0.00    +0.000 OA
ATOM     18  C   UNL     1     -18.202  37.230  21.111  0.00  0.00    +0.000 A 
ATOM     19  C   UNL     1     -17.782  38.347  20.390  0.00  0.00    +0.000 A 
ATOM     20  C   UNL     1     -18.481  37.340  22.475  0.00  0.00    +0.000 A 
ATOM     21  C   UNL     1     -17.641  39.576  21.036  0.00  0.00    +0.000 A 
ATOM     22  C   UNL     1     -17.920  39.684  22.397  0.00  0.00    +0.000 A 
ATOM     23  C   UNL     1     -18.341  38.567  23.123  0.00  0.00    +0.000 A 
ATOM     24  C   UNL     1     -17.762  40.991  23.052  0.00  0.00    +0.000 A 
ATOM     25  C   UNL     1     -17.084  41.875  20.888  0.00  0.00    +0.000 A 
ATOM     26  C   UNL     1     -17.315  42.103  22.190  0.00  0.00    +0.000 A 
ENDROOT
BRANCH  25  27
ATOM     27  C   UNL     1     -16.625  42.946  19.980  0.00  0.00    +0.000 A 
ATOM     28  C   UNL     1     -16.589  44.271  20.420  0.00  0.00    +0.000 A 
ATOM     29  C   UNL     1     -16.229  42.638  18.676  0.00  0.00    +0.000 A 
ATOM     30  C   UNL     1     -16.156  45.282  19.562  0.00  0.00    +0.000 A 
ATOM     31  C   UNL     1     -15.796  43.649  17.818  0.00  0.00    +0.000 A 
ATOM     32  C   UNL     1     -15.761  44.971  18.260  0.00  0.00    +0.000 A 
BRANCH  32  11
ATOM     11  O   UNL     1     -15.339  45.958  17.423  0.00  0.00    +0.000 OA
ATOM     39  H   UNL     1     -16.064  46.190  16.818  0.00  0.00    +0.000 HD
ENDBRANCH  32  11
ENDBRANCH  25  27
BRANCH  20   8
ATOM      8  O   UNL     1     -18.891  36.241  23.172  0.00  0.00    +0.000 OA
ATOM     37  H   UNL     1     -19.627  35.827  22.688  0.00  0.00    +0.000 HD
ENDBRANCH  20   8
BRANCH  23   9
ATOM      9  O   UNL     1     -18.624  38.635  24.454  0.00  0.00    +0.000 OA
ATOM     38  H   UNL     1     -19.301  37.983  24.695  0.00  0.00    +0.000 HD
ENDBRANCH  23   9
BRANCH  18   2
ATOM      2  O   UNL     1     -18.337  36.032  20.470  0.00  0.00    +0.000 OA
BRANCH   2  16
ATOM      1  O   UNL     1     -16.163  35.184  20.497  0.00  0.00    +0.000 OA
ATOM     12  C   UNL     1     -17.130  32.483  20.661  0.00  0.00    +0.000 C 
ATOM     13  C   UNL     1     -15.674  32.815  20.334  0.00  0.00    +0.000 C 
ATOM     14  C   UNL     1     -18.051  33.663  20.344  0.00  0.00    +0.000 C 
ATOM     15  C   UNL     1     -15.272  34.160  20.943  0.00  0.00    +0.000 C 
ATOM     16  C   UNL     1     -17.505  34.967  20.927  0.00  0.00    +0.000 C 
BRANCH  12   3
ATOM      3  O   UNL     1     -17.514  31.355  19.875  0.00  0.00    +0.000 OA
ATOM     33  H   UNL     1     -17.025  31.405  19.036  0.00  0.00    +0.000 HD
ENDBRANCH  12   3
BRANCH  13   4
ATOM      4  O   UNL     1     -14.829  31.792  20.853  0.00  0.00    +0.000 OA
ATOM     34  H   UNL     1     -15.299  31.356  21.584  0.00  0.00    +0.000 HD
ENDBRANCH  13   4
BRANCH  14   5
ATOM      5  O   UNL     1     -19.338  33.423  20.912  0.00  0.00    +0.000 OA
ATOM     35  H   UNL     1     -20.007  33.785  20.308  0.00  0.00    +0.000 HD
ENDBRANCH  14   5
BRANCH  15  17
ATOM     17  C   UNL     1     -13.861  34.569  20.532  0.00  0.00    +0.000 C 
BRANCH  17   6
ATOM      6  O   UNL     1     -13.771  35.981  20.567  0.00  0.00    +0.000 OA
ATOM     36  H   UNL     1     -13.716  36.295  19.648  0.00  0.00    +0.000 HD
ENDBRANCH  17   6
ENDBRANCH  15  17
ENDBRANCH   2  16
ENDBRANCH  18   2
TORSDOF 11
ENDMDL
MODEL 6
REMARK VINA RESULT:      -7.4     21.980     26.962
REMARK  Name = 5320623
REMARK  11 active torsions:
REMARK  status: ('A' for Active; 'I' for Inactive)
REMARK    1  A    between atoms: O_2  and  C_16
REMARK    2  A    between atoms: O_2  and  C_18
REMARK    3  A    between atoms: O_3  and  C_12
REMARK    4  A    between atoms: O_4  and  C_13
REMARK    5  A    between atoms: O_5  and  C_14
REMARK    6  A    between atoms: O_6  and  C_17
REMARK    7  A    between atoms: O_8  and  C_20
REMARK    8  A    between atoms: O_9  and  C_23
REMARK    9  A    between atoms: O_11  and  C_32
REMARK   10  A    between atoms: C_15  and  C_17
REMARK   11  A    between atoms: C_25  and  C_27
REMARK                            x       y       z     vdW  Elec       q    Type
REMARK                         _______ _______ _______ _____ _____    ______ ____
ROOT
ATOM      7  O   UNL     1     -12.040  43.016  39.600  0.00  0.00    +0.000 OA
ATOM     10  O   UNL     1      -9.400  40.782  37.445  0.00  0.00    +0.000 OA
ATOM     18  C   UNL     1     -11.085  45.509  37.118  0.00  0.00    +0.000 A 
ATOM     19  C   UNL     1     -11.701  44.894  38.208  0.00  0.00    +0.000 A 
ATOM     20  C   UNL     1     -10.172  44.798  36.338  0.00  0.00    +0.000 A 
ATOM     21  C   UNL     1     -11.402  43.567  38.517  0.00  0.00    +0.000 A 
ATOM     22  C   UNL     1     -10.490  42.859  37.736  0.00  0.00    +0.000 A 
ATOM     23  C   UNL     1      -9.870  43.471  36.644  0.00  0.00    +0.000 A 
ATOM     24  C   UNL     1     -10.193  41.461  38.084  0.00  0.00    +0.000 A 
ATOM     25  C   UNL     1     -11.768  41.696  39.925  0.00  0.00    +0.000 A 
ATOM     26  C   UNL     1     -10.906  40.915  39.256  0.00  0.00    +0.000 A 
ENDROOT
BRANCH  25  27
ATOM     27  C   UNL     1     -12.502  41.207  41.110  0.00  0.00    +0.000 A 
ATOM     28  C   UNL     1     -13.865  40.916  41.020  0.00  0.00    +0.000 A 
ATOM     29  C   UNL     1     -11.836  41.037  42.326  0.00  0.00    +0.000 A 
ATOM     30  C   UNL     1     -14.558  40.455  42.140  0.00  0.00    +0.000 A 
ATOM     31  C   UNL     1     -12.529  40.576  43.446  0.00  0.00    +0.000 A 
ATOM     32  C   UNL     1     -13.890  40.286  43.353  0.00  0.00    +0.000 A 
BRANCH  32  11
ATOM     11  O   UNL     1     -14.566  39.835  44.445  0.00  0.00    +0.000 OA
ATOM     39  H   UNL     1     -15.406  39.441  44.155  0.00  0.00    +0.000 HD
ENDBRANCH  32  11
ENDBRANCH  25  27
BRANCH  20   8
ATOM      8  O   UNL     1      -9.573  45.408  35.273  0.00  0.00    +0.000 OA
ATOM     37  H   UNL     1     -10.086  45.201  34.473  0.00  0.00    +0.000 HD
ENDBRANCH  20   8
BRANCH  23   9
ATOM      9  O   UNL     1      -8.975  42.810  35.858  0.00  0.00    +0.000 OA
ATOM     38  H   UNL     1      -9.090  41.850  35.936  0.00  0.00    +0.000 HD
ENDBRANCH  23   9
BRANCH  18   2
ATOM      2  O   UNL     1     -11.385  46.808  36.825  0.00  0.00    +0.000 OA
BRANCH   2  16
ATOM      1  O   UNL     1     -12.465  46.423  34.792  0.00  0.00    +0.000 OA
ATOM     12  C   UNL     1     -13.943  48.876  35.018  0.00  0.00    +0.000 C 
ATOM     13  C   UNL     1     -13.869  48.080  33.715  0.00  0.00    +0.000 C 
ATOM     14  C   UNL     1     -12.766  48.544  35.936  0.00  0.00    +0.000 C 
ATOM     15  C   UNL     1     -13.640  46.593  33.998  0.00  0.00    +0.000 C 
ATOM     16  C   UNL     1     -12.578  47.033  36.076  0.00  0.00    +0.000 C 
BRANCH  12   3
ATOM      3  O   UNL     1     -13.913  50.266  34.688  0.00  0.00    +0.000 OA
ATOM     33  H   UNL     1     -14.592  50.418  34.009  0.00  0.00    +0.000 HD
ENDBRANCH  12   3
BRANCH  13   4
ATOM      4  O   UNL     1     -15.088  48.239  32.995  0.00  0.00    +0.000 OA
ATOM     34  H   UNL     1     -14.931  47.969  32.074  0.00  0.00    +0.000 HD
ENDBRANCH  13   4
BRANCH  14   5
ATOM      5  O   UNL     1     -13.012  49.086  37.234  0.00  0.00    +0.000 OA
ATOM     35  H   UNL     1     -13.440  48.400  37.772  0.00  0.00    +0.000 HD
ENDBRANCH  14   5
BRANCH  15  17
ATOM     17  C   UNL     1     -13.446  45.795  32.713  0.00  0.00    +0.000 C 
BRANCH  17   6
ATOM      6  O   UNL     1     -14.691  45.700  32.048  0.00  0.00    +0.000 OA
ATOM     36  H   UNL     1     -14.627  46.218  31.227  0.00  0.00    +0.000 HD
ENDBRANCH  17   6
ENDBRANCH  15  17
ENDBRANCH   2  16
ENDBRANCH  18   2
TORSDOF 11
ENDMDL
MODEL 7
REMARK VINA RESULT:      -7.3     12.312     15.859
REMARK  Name = 5320623
REMARK  11 active torsions:
REMARK  status: ('A' for Active; 'I' for Inactive)
REMARK    1  A    between atoms: O_2  and  C_16
REMARK    2  A    between atoms: O_2  and  C_18
REMARK    3  A    between atoms: O_3  and  C_12
REMARK    4  A    between atoms: O_4  and  C_13
REMARK    5  A    between atoms: O_5  and  C_14
REMARK    6  A    between atoms: O_6  and  C_17
REMARK    7  A    between atoms: O_8  and  C_20
REMARK    8  A    between atoms: O_9  and  C_23
REMARK    9  A    between atoms: O_11  and  C_32
REMARK   10  A    between atoms: C_15  and  C_17
REMARK   11  A    between atoms: C_25  and  C_27
REMARK                            x       y       z     vdW  Elec       q    Type
REMARK                         _______ _______ _______ _____ _____    ______ ____
ROOT
ATOM      7  O   UNL     1     -18.073  34.610  21.028  0.00  0.00    +0.000 OA
ATOM     10  O   UNL     1     -14.363  32.949  21.299  0.00  0.00    +0.000 OA
ATOM     18  C   UNL     1     -19.032  31.259  22.091  0.00  0.00    +0.000 A 
ATOM     19  C   UNL     1     -19.107  32.594  21.695  0.00  0.00    +0.000 A 
ATOM     20  C   UNL     1     -17.791  30.630  22.205  0.00  0.00    +0.000 A 
ATOM     21  C   UNL     1     -17.937  33.300  21.413  0.00  0.00    +0.000 A 
ATOM     22  C   UNL     1     -16.698  32.671  21.527  0.00  0.00    +0.000 A 
ATOM     23  C   UNL     1     -16.620  31.334  21.923  0.00  0.00    +0.000 A 
ATOM     24  C   UNL     1     -15.482  33.439  21.222  0.00  0.00    +0.000 A 
ATOM     25  C   UNL     1     -16.928  35.339  20.749  0.00  0.00    +0.000 A 
ATOM     26  C   UNL     1     -15.682  34.844  20.816  0.00  0.00    +0.000 A 
ENDROOT
BRANCH  25  27
ATOM     27  C   UNL     1     -17.189  36.734  20.339  0.00  0.00    +0.000 A 
ATOM     28  C   UNL     1     -16.134  37.642  20.226  0.00  0.00    +0.000 A 
ATOM     29  C   UNL     1     -18.494  37.152  20.065  0.00  0.00    +0.000 A 
ATOM     30  C   UNL     1     -16.381  38.959  19.839  0.00  0.00    +0.000 A 
ATOM     31  C   UNL     1     -18.742  38.469  19.679  0.00  0.00    +0.000 A 
ATOM     32  C   UNL     1     -17.686  39.372  19.567  0.00  0.00    +0.000 A 
BRANCH  32  11
ATOM     11  O   UNL     1     -17.927  40.658  19.189  0.00  0.00    +0.000 OA
ATOM     39  H   UNL     1     -18.875  40.757  18.996  0.00  0.00    +0.000 HD
ENDBRANCH  32  11
ENDBRANCH  25  27
BRANCH  20   8
ATOM      8  O   UNL     1     -17.727  29.323  22.592  0.00  0.00    +0.000 OA
ATOM     37  H   UNL     1     -18.388  28.821  22.084  0.00  0.00    +0.000 HD
ENDBRANCH  20   8
BRANCH  23   9
ATOM      9  O   UNL     1     -15.427  30.686  22.047  0.00  0.00    +0.000 OA
ATOM     38  H   UNL     1     -15.514  29.913  22.627  0.00  0.00    +0.000 HD
ENDBRANCH  23   9
BRANCH  18   2
ATOM      2  O   UNL     1     -20.182  30.577  22.365  0.00  0.00    +0.000 OA
BRANCH   2  16
ATOM      1  O   UNL     1     -21.450  30.679  24.322  0.00  0.00    +0.000 OA
ATOM     12  C   UNL     1     -23.648  31.902  22.933  0.00  0.00    +0.000 C 
ATOM     13  C   UNL     1     -23.787  31.328  24.343  0.00  0.00    +0.000 C 
ATOM     14  C   UNL     1     -22.460  31.281  22.196  0.00  0.00    +0.000 C 
ATOM     15  C   UNL     1     -22.446  31.367  25.080  0.00  0.00    +0.000 C 
ATOM     16  C   UNL     1     -21.200  31.296  23.061  0.00  0.00    +0.000 C 
BRANCH  12   3
ATOM      3  O   UNL     1     -24.852  31.618  22.220  0.00  0.00    +0.000 OA
ATOM     33  H   UNL     1     -25.562  31.516  22.877  0.00  0.00    +0.000 HD
ENDBRANCH  12   3
BRANCH  13   4
ATOM      4  O   UNL     1     -24.747  32.088  25.070  0.00  0.00    +0.000 OA
ATOM     34  H   UNL     1     -25.497  32.269  24.478  0.00  0.00    +0.000 HD
ENDBRANCH  13   4
BRANCH  14   5
ATOM      5  O   UNL     1     -22.197  32.028  21.009  0.00  0.00    +0.000 OA
ATOM     35  H   UNL     1     -22.681  32.869  21.067  0.00  0.00    +0.000 HD
ENDBRANCH  14   5
BRANCH  15  17
ATOM     17  C   UNL     1     -22.531  30.693  26.445  0.00  0.00    +0.000 C 
BRANCH  17   6
ATOM      6  O   UNL     1     -21.222  30.358  26.867  0.00  0.00    +0.000 OA
ATOM     36  H   UNL     1     -21.163  29.388  26.903  0.00  0.00    +0.000 HD
ENDBRANCH  17   6
ENDBRANCH  15  17
ENDBRANCH   2  16
ENDBRANCH  18   2
TORSDOF 11
ENDMDL
MODEL 8
REMARK VINA RESULT:      -7.1     22.979     27.217
REMARK  Name = 5320623
REMARK  11 active torsions:
REMARK  status: ('A' for Active; 'I' for Inactive)
REMARK    1  A    between atoms: O_2  and  C_16
REMARK    2  A    between atoms: O_2  and  C_18
REMARK    3  A    between atoms: O_3  and  C_12
REMARK    4  A    between atoms: O_4  and  C_13
REMARK    5  A    between atoms: O_5  and  C_14
REMARK    6  A    between atoms: O_6  and  C_17
REMARK    7  A    between atoms: O_8  and  C_20
REMARK    8  A    between atoms: O_9  and  C_23
REMARK    9  A    between atoms: O_11  and  C_32
REMARK   10  A    between atoms: C_15  and  C_17
REMARK   11  A    between atoms: C_25  and  C_27
REMARK                            x       y       z     vdW  Elec       q    Type
REMARK                         _______ _______ _______ _____ _____    ______ ____
ROOT
ATOM      7  O   UNL     1     -12.789  53.940  36.743  0.00  0.00    +0.000 OA
ATOM     10  O   UNL     1     -16.440  54.212  34.953  0.00  0.00    +0.000 OA
ATOM     18  C   UNL     1     -13.762  50.432  36.909  0.00  0.00    +0.000 A 
ATOM     19  C   UNL     1     -13.029  51.611  37.048  0.00  0.00    +0.000 A 
ATOM     20  C   UNL     1     -15.020  50.456  36.304  0.00  0.00    +0.000 A 
ATOM     21  C   UNL     1     -13.556  52.814  36.579  0.00  0.00    +0.000 A 
ATOM     22  C   UNL     1     -14.812  52.837  35.974  0.00  0.00    +0.000 A 
ATOM     23  C   UNL     1     -15.550  51.659  35.834  0.00  0.00    +0.000 A 
ATOM     24  C   UNL     1     -15.344  54.119  35.490  0.00  0.00    +0.000 A 
ATOM     25  C   UNL     1     -13.284  55.150  36.279  0.00  0.00    +0.000 A 
ATOM     26  C   UNL     1     -14.480  55.300  35.687  0.00  0.00    +0.000 A 
ENDROOT
BRANCH  25  27
ATOM     27  C   UNL     1     -12.382  56.296  36.512  0.00  0.00    +0.000 A 
ATOM     28  C   UNL     1     -12.207  57.264  35.520  0.00  0.00    +0.000 A 
ATOM     29  C   UNL     1     -11.698  56.415  37.724  0.00  0.00    +0.000 A 
ATOM     30  C   UNL     1     -11.354  58.345  35.740  0.00  0.00    +0.000 A 
ATOM     31  C   UNL     1     -10.845  57.497  37.944  0.00  0.00    +0.000 A 
ATOM     32  C   UNL     1     -10.673  58.461  36.952  0.00  0.00    +0.000 A 
BRANCH  32  11
ATOM     11  O   UNL     1      -9.841  59.517  37.167  0.00  0.00    +0.000 OA
ATOM     39  H   UNL     1      -8.933  59.254  36.939  0.00  0.00    +0.000 HD
ENDBRANCH  32  11
ENDBRANCH  25  27
BRANCH  20   8
ATOM      8  O   UNL     1     -15.730  49.298  36.174  0.00  0.00    +0.000 OA
ATOM     37  H   UNL     1     -15.190  48.567  36.520  0.00  0.00    +0.000 HD
ENDBRANCH  20   8
BRANCH  23   9
ATOM      9  O   UNL     1     -16.779  51.641  35.248  0.00  0.00    +0.000 OA
ATOM     38  H   UNL     1     -16.736  51.233  34.369  0.00  0.00    +0.000 HD
ENDBRANCH  23   9
BRANCH  18   2
ATOM      2  O   UNL     1     -13.237  49.260  37.371  0.00  0.00    +0.000 OA
BRANCH   2  16
ATOM      1  O   UNL     1     -13.081  48.106  35.349  0.00  0.00    +0.000 OA
ATOM     12  C   UNL     1     -10.921  46.492  36.340  0.00  0.00    +0.000 C 
ATOM     13  C   UNL     1     -11.674  46.154  35.053  0.00  0.00    +0.000 C 
ATOM     14  C   UNL     1     -11.762  47.383  37.256  0.00  0.00    +0.000 C 
ATOM     15  C   UNL     1     -12.250  47.419  34.412  0.00  0.00    +0.000 C 
ATOM     16  C   UNL     1     -12.358  48.564  36.489  0.00  0.00    +0.000 C 
BRANCH  12   3
ATOM      3  O   UNL     1     -10.621  45.267  37.011  0.00  0.00    +0.000 OA
ATOM     33  H   UNL     1      -9.668  45.266  37.201  0.00  0.00    +0.000 HD
ENDBRANCH  12   3
BRANCH  13   4
ATOM      4  O   UNL     1     -10.783  45.525  34.137  0.00  0.00    +0.000 OA
ATOM     34  H   UNL     1     -10.472  46.200  33.509  0.00  0.00    +0.000 HD
ENDBRANCH  13   4
BRANCH  14   5
ATOM      5  O   UNL     1     -10.939  47.897  38.301  0.00  0.00    +0.000 OA
ATOM     35  H   UNL     1     -11.401  47.763  39.145  0.00  0.00    +0.000 HD
ENDBRANCH  14   5
BRANCH  15  17
ATOM     17  C   UNL     1     -13.105  47.095  33.191  0.00  0.00    +0.000 C 
BRANCH  17   6
ATOM      6  O   UNL     1     -13.931  48.209  32.909  0.00  0.00    +0.000 OA
ATOM     36  H   UNL     1     -14.741  48.116  33.439  0.00  0.00    +0.000 HD
ENDBRANCH  17   6
ENDBRANCH  15  17
ENDBRANCH   2  16
ENDBRANCH  18   2
TORSDOF 11
ENDMDL
MODEL 9
REMARK VINA RESULT:      -7.1     23.136     27.073
REMARK  Name = 5320623
REMARK  11 active torsions:
REMARK  status: ('A' for Active; 'I' for Inactive)
REMARK    1  A    between atoms: O_2  and  C_16
REMARK    2  A    between atoms: O_2  and  C_18
REMARK    3  A    between atoms: O_3  and  C_12
REMARK    4  A    between atoms: O_4  and  C_13
REMARK    5  A    between atoms: O_5  and  C_14
REMARK    6  A    between atoms: O_6  and  C_17
REMARK    7  A    between atoms: O_8  and  C_20
REMARK    8  A    between atoms: O_9  and  C_23
REMARK    9  A    between atoms: O_11  and  C_32
REMARK   10  A    between atoms: C_15  and  C_17
REMARK   11  A    between atoms: C_25  and  C_27
REMARK                            x       y       z     vdW  Elec       q    Type
REMARK                         _______ _______ _______ _____ _____    ______ ____
ROOT
ATOM      7  O   UNL     1     -13.080  54.318  35.740  0.00  0.00    +0.000 OA
ATOM     10  O   UNL     1     -16.827  54.090  37.324  0.00  0.00    +0.000 OA
ATOM     18  C   UNL     1     -13.963  50.965  34.620  0.00  0.00    +0.000 A 
ATOM     19  C   UNL     1     -13.250  52.145  34.833  0.00  0.00    +0.000 A 
ATOM     20  C   UNL     1     -15.252  50.823  35.134  0.00  0.00    +0.000 A 
ATOM     21  C   UNL     1     -13.829  53.183  35.563  0.00  0.00    +0.000 A 
ATOM     22  C   UNL     1     -15.118  53.039  36.076  0.00  0.00    +0.000 A 
ATOM     23  C   UNL     1     -15.834  51.859  35.865  0.00  0.00    +0.000 A 
ATOM     24  C   UNL     1     -15.704  54.149  36.842  0.00  0.00    +0.000 A 
ATOM     25  C   UNL     1     -13.634  55.370  36.454  0.00  0.00    +0.000 A 
ATOM     26  C   UNL     1     -14.859  55.349  37.002  0.00  0.00    +0.000 A 
ENDROOT
BRANCH  25  27
ATOM     27  C   UNL     1     -12.741  56.539  36.590  0.00  0.00    +0.000 A 
ATOM     28  C   UNL     1     -11.823  56.602  37.640  0.00  0.00    +0.000 A 
ATOM     29  C   UNL     1     -12.813  57.587  35.669  0.00  0.00    +0.000 A 
ATOM     30  C   UNL     1     -10.980  57.706  37.768  0.00  0.00    +0.000 A 
ATOM     31  C   UNL     1     -11.971  58.691  35.797  0.00  0.00    +0.000 A 
ATOM     32  C   UNL     1     -11.055  58.751  36.847  0.00  0.00    +0.000 A 
BRANCH  32  11
ATOM     11  O   UNL     1     -10.233  59.829  36.972  0.00  0.00    +0.000 OA
ATOM     39  H   UNL     1      -9.963  60.124  36.086  0.00  0.00    +0.000 HD
ENDBRANCH  32  11
ENDBRANCH  25  27
BRANCH  20   8
ATOM      8  O   UNL     1     -15.942  49.664  34.921  0.00  0.00    +0.000 OA
ATOM     37  H   UNL     1     -15.403  48.922  35.246  0.00  0.00    +0.000 HD
ENDBRANCH  20   8
BRANCH  23   9
ATOM      9  O   UNL     1     -17.095  51.683  36.350  0.00  0.00    +0.000 OA
ATOM     38  H   UNL     1     -17.332  52.397  36.962  0.00  0.00    +0.000 HD
ENDBRANCH  23   9
BRANCH  18   2
ATOM      2  O   UNL     1     -13.386  49.955  33.904  0.00  0.00    +0.000 OA
BRANCH   2  16
ATOM      1  O   UNL     1     -12.358  48.926  35.729  0.00  0.00    +0.000 OA
ATOM     12  C   UNL     1     -12.145  46.437  34.311  0.00  0.00    +0.000 C 
ATOM     13  C   UNL     1     -11.392  46.705  35.614  0.00  0.00    +0.000 C 
ATOM     14  C   UNL     1     -12.530  47.742  33.615  0.00  0.00    +0.000 C 
ATOM     15  C   UNL     1     -12.141  47.727  36.474  0.00  0.00    +0.000 C 
ATOM     16  C   UNL     1     -13.189  48.719  34.589  0.00  0.00    +0.000 C 
BRANCH  12   3
ATOM      3  O   UNL     1     -11.291  45.675  33.457  0.00  0.00    +0.000 OA
ATOM     33  H   UNL     1     -10.449  46.156  33.383  0.00  0.00    +0.000 HD
ENDBRANCH  12   3
BRANCH  13   4
ATOM      4  O   UNL     1     -11.257  45.487  36.341  0.00  0.00    +0.000 OA
ATOM     34  H   UNL     1     -12.145  45.108  36.459  0.00  0.00    +0.000 HD
ENDBRANCH  13   4
BRANCH  14   5
ATOM      5  O   UNL     1     -13.457  47.464  32.566  0.00  0.00    +0.000 OA
ATOM     35  H   UNL     1     -13.229  48.023  31.804  0.00  0.00    +0.000 HD
ENDBRANCH  14   5
BRANCH  15  17
ATOM     17  C   UNL     1     -11.352  48.100  37.724  0.00  0.00    +0.000 C 
BRANCH  17   6
ATOM      6  O   UNL     1     -11.590  47.121  38.718  0.00  0.00    +0.000 OA
ATOM     36  H   UNL     1     -12.508  47.225  39.020  0.00  0.00    +0.000 HD
ENDBRANCH  17   6
ENDBRANCH  15  17
ENDBRANCH   2  16
ENDBRANCH  18   2
TORSDOF 11
ENDMDL
