MODEL 1
REMARK VINA RESULT:     -10.5      0.000      0.000
REMARK  11 active torsions:
REMARK  status: ('A' for Active; 'I' for Inactive)
REMARK    1  A    between atoms: O_2  and  C_16 
REMARK    2  A    between atoms: O_2  and  C_18 
REMARK    3  A    between atoms: O_3  and  C_12 
REMARK    4  A    between atoms: O_4  and  C_13 
REMARK    5  A    between atoms: O_5  and  C_14 
REMARK    6  A    between atoms: O_6  and  C_17 
REMARK    7  A    between atoms: O_8  and  C_23 
REMARK    8  A    between atoms: O_10  and  C_30 
REMARK    9  A    between atoms: O_11  and  C_32 
REMARK   10  A    between atoms: C_15  and  C_17 
REMARK   11  A    between atoms: C_25  and  C_27 
ROOT
HETATM    1  O   UNK     0     188.158 175.227 179.058  0.00  0.00    -0.348 OA
HETATM    2  C   UNK     0     190.124 177.283 179.457  0.00  0.00     0.183 C 
HETATM    3  C   UNK     0     190.501 175.844 179.105  0.00  0.00     0.180 C 
HETATM    4  C   UNK     0     188.731 177.352 180.084  0.00  0.00     0.205 C 
HETATM    5  C   UNK     0     189.379 175.164 178.318  0.00  0.00     0.179 C 
HETATM    6  C   UNK     0     187.710 176.565 179.262  0.00  0.00     0.298 C 
ENDROOT
BRANCH   5   7
HETATM    7  C   UNK     0     189.684 173.693 178.057  0.00  0.00     0.198 C 
BRANCH   7   8
HETATM    8  O   UNK     0     190.465 173.596 176.880  0.00  0.00    -0.398 OA
HETATM    9  H   UNK     0     190.418 174.454 176.423  0.00  0.00     0.209 HD
ENDBRANCH   7   8
ENDBRANCH   5   7
BRANCH   6  10
HETATM   10  O   UNK     0     186.478 176.557 179.981  0.00  0.00    -0.318 OA
BRANCH  10  11
HETATM   11  C   UNK     0     185.370 176.963 179.298  0.00  0.00     0.077 A 
HETATM   12  C   UNK     0     184.115 176.897 179.906  0.00  0.00     0.075 A 
HETATM   13  C   UNK     0     182.983 177.312 179.207  0.00  0.00     0.095 A 
HETATM   14  O   UNK     0     181.777 177.224 179.856  0.00  0.00    -0.309 OA
HETATM   15  C   UNK     0     183.106 177.791 177.902  0.00  0.00     0.081 A 
HETATM   16  C   UNK     0     180.635 177.635 179.186  0.00  0.00     0.090 A 
HETATM   17  C   UNK     0     180.624 178.107 177.930  0.00  0.00     0.094 A 
HETATM   18  C   UNK     0     181.895 178.220 177.187  0.00  0.00     0.190 A 
HETATM   19  O   UNK     0     181.930 178.647 176.041  0.00  0.00    -0.287 OA
HETATM   20  C   UNK     0     184.360 177.858 177.290  0.00  0.00     0.085 A 
HETATM   21  C   UNK     0     185.491 177.442 177.994  0.00  0.00     0.074 A 
BRANCH  16  22
HETATM   22  C   UNK     0     179.394 177.492 179.975  0.00  0.00     0.001 A 
HETATM   23  C   UNK     0     178.204 177.119 179.346  0.00  0.00     0.053 A 
HETATM   24  C   UNK     0     177.032 176.983 180.091  0.00  0.00     0.099 A 
HETATM   25  C   UNK     0     177.047 177.221 181.464  0.00  0.00     0.098 A 
HETATM   26  C   UNK     0     178.234 177.593 182.095  0.00  0.00     0.040 A 
HETATM   27  C   UNK     0     179.406 177.729 181.352  0.00  0.00     0.017 A 
BRANCH  24  28
HETATM   28  O   UNK     0     175.877 176.620 179.464  0.00  0.00    -0.358 OA
HETATM   29  H   UNK     0     175.814 175.650 179.477  0.00  0.00     0.217 HD
ENDBRANCH  24  28
BRANCH  25  30
HETATM   30  O   UNK     0     175.909 177.090 182.202  0.00  0.00    -0.358 OA
HETATM   31  H   UNK     0     175.217 176.687 181.650  0.00  0.00     0.217 HD
ENDBRANCH  25  30
ENDBRANCH  16  22
BRANCH  20  32
HETATM   32  O   UNK     0     184.532 178.317 176.020  0.00  0.00    -0.360 OA
HETATM   33  H   UNK     0     184.933 179.199 176.027  0.00  0.00     0.217 HD
ENDBRANCH  20  32
ENDBRANCH  10  11
ENDBRANCH   6  10
BRANCH   3  34
HETATM   34  O   UNK     0     191.692 175.848 178.321  0.00  0.00    -0.390 OA
HETATM   35  H   UNK     0     191.866 176.764 178.045  0.00  0.00     0.210 HD
ENDBRANCH   3  34
BRANCH   4  36
HETATM   36  O   UNK     0     188.305 178.713 180.143  0.00  0.00    -0.388 OA
HETATM   37  H   UNK     0     187.390 178.757 179.816  0.00  0.00     0.210 HD
ENDBRANCH   4  36
BRANCH   2  38
HETATM   38  O   UNK     0     191.089 177.780 180.385  0.00  0.00    -0.390 OA
HETATM   39  H   UNK     0     191.728 177.066 180.550  0.00  0.00     0.210 HD
ENDBRANCH   2  38
TORSDOF 11
ENDMDL
MODEL 2
REMARK VINA RESULT:      -9.8      2.001      3.424
REMARK  11 active torsions:
REMARK  status: ('A' for Active; 'I' for Inactive)
REMARK    1  A    between atoms: O_2  and  C_16 
REMARK    2  A    between atoms: O_2  and  C_18 
REMARK    3  A    between atoms: O_3  and  C_12 
REMARK    4  A    between atoms: O_4  and  C_13 
REMARK    5  A    between atoms: O_5  and  C_14 
REMARK    6  A    between atoms: O_6  and  C_17 
REMARK    7  A    between atoms: O_8  and  C_23 
REMARK    8  A    between atoms: O_10  and  C_30 
REMARK    9  A    between atoms: O_11  and  C_32 
REMARK   10  A    between atoms: C_15  and  C_17 
REMARK   11  A    between atoms: C_25  and  C_27 
ROOT
HETATM    1  O   UNK     0     188.292 175.683 179.993  0.00  0.00    -0.348 OA
HETATM    2  C   UNK     0     189.692 176.930 177.817  0.00  0.00     0.183 C 
HETATM    3  C   UNK     0     190.137 175.599 178.425  0.00  0.00     0.180 C 
HETATM    4  C   UNK     0     188.835 177.727 178.801  0.00  0.00     0.205 C 
HETATM    5  C   UNK     0     188.947 174.853 179.032  0.00  0.00     0.179 C 
HETATM    6  C   UNK     0     187.735 176.859 179.412  0.00  0.00     0.298 C 
ENDROOT
BRANCH   5   7
HETATM    7  C   UNK     0     189.386 173.579 179.746  0.00  0.00     0.198 C 
BRANCH   7   8
HETATM    8  O   UNK     0     189.556 172.557 178.781  0.00  0.00    -0.398 OA
HETATM    9  H   UNK     0     189.289 171.716 179.190  0.00  0.00     0.209 HD
ENDBRANCH   7   8
ENDBRANCH   5   7
BRANCH   6  10
HETATM   10  O   UNK     0     187.075 177.628 180.416  0.00  0.00    -0.318 OA
BRANCH  10  11
HETATM   11  C   UNK     0     185.834 177.205 180.792  0.00  0.00     0.077 A 
HETATM   12  C   UNK     0     184.718 177.561 180.033  0.00  0.00     0.075 A 
HETATM   13  C   UNK     0     183.451 177.127 180.419  0.00  0.00     0.095 A 
HETATM   14  O   UNK     0     182.392 177.509 179.634  0.00  0.00    -0.309 OA
HETATM   15  C   UNK     0     183.300 176.342 181.562  0.00  0.00     0.081 A 
HETATM   16  C   UNK     0     181.120 177.087 179.991  0.00  0.00     0.090 A 
HETATM   17  C   UNK     0     180.847 176.336 181.068  0.00  0.00     0.094 A 
HETATM   18  C   UNK     0     181.951 175.901 181.947  0.00  0.00     0.190 A 
HETATM   19  O   UNK     0     181.747 175.214 182.938  0.00  0.00    -0.287 OA
HETATM   20  C   UNK     0     184.415 175.984 182.325  0.00  0.00     0.085 A 
HETATM   21  C   UNK     0     185.682 176.419 181.934  0.00  0.00     0.074 A 
BRANCH  16  22
HETATM   22  C   UNK     0     180.055 177.559 179.081  0.00  0.00     0.001 A 
HETATM   23  C   UNK     0     178.770 177.800 179.573  0.00  0.00     0.053 A 
HETATM   24  C   UNK     0     177.765 178.246 178.713  0.00  0.00     0.099 A 
HETATM   25  C   UNK     0     178.042 178.451 177.362  0.00  0.00     0.098 A 
HETATM   26  C   UNK     0     179.325 178.211 176.870  0.00  0.00     0.040 A 
HETATM   27  C   UNK     0     180.330 177.765 177.727  0.00  0.00     0.017 A 
BRANCH  24  28
HETATM   28  O   UNK     0     176.515 178.475 179.206  0.00  0.00    -0.358 OA
HETATM   29  H   UNK     0     176.468 179.400 179.501  0.00  0.00     0.217 HD
ENDBRANCH  24  28
BRANCH  25  30
HETATM   30  O   UNK     0     177.069 178.887 176.514  0.00  0.00    -0.358 OA
HETATM   31  H   UNK     0     177.482 179.385 175.788  0.00  0.00     0.217 HD
ENDBRANCH  25  30
ENDBRANCH  16  22
BRANCH  20  32
HETATM   32  O   UNK     0     184.320 175.220 183.447  0.00  0.00    -0.360 OA
HETATM   33  H   UNK     0     183.467 175.362 183.886  0.00  0.00     0.217 HD
ENDBRANCH  20  32
ENDBRANCH  10  11
ENDBRANCH   6  10
BRANCH   3  34
HETATM   34  O   UNK     0     190.730 174.793 177.409  0.00  0.00    -0.390 OA
HETATM   35  H   UNK     0     191.519 175.257 177.080  0.00  0.00     0.210 HD
ENDBRANCH   3  34
BRANCH   4  36
HETATM   36  O   UNK     0     188.217 178.816 178.115  0.00  0.00    -0.388 OA
HETATM   37  H   UNK     0     188.863 179.183 177.488  0.00  0.00     0.210 HD
ENDBRANCH   4  36
BRANCH   2  38
HETATM   38  O   UNK     0     190.861 177.681 177.488  0.00  0.00    -0.390 OA
HETATM   39  H   UNK     0     190.590 178.608 177.379  0.00  0.00     0.210 HD
ENDBRANCH   2  38
TORSDOF 11
ENDMDL
MODEL 3
REMARK VINA RESULT:      -9.5      2.474      3.731
REMARK  11 active torsions:
REMARK  status: ('A' for Active; 'I' for Inactive)
REMARK    1  A    between atoms: O_2  and  C_16 
REMARK    2  A    between atoms: O_2  and  C_18 
REMARK    3  A    between atoms: O_3  and  C_12 
REMARK    4  A    between atoms: O_4  and  C_13 
REMARK    5  A    between atoms: O_5  and  C_14 
REMARK    6  A    between atoms: O_6  and  C_17 
REMARK    7  A    between atoms: O_8  and  C_23 
REMARK    8  A    between atoms: O_10  and  C_30 
REMARK    9  A    between atoms: O_11  and  C_32 
REMARK   10  A    between atoms: C_15  and  C_17 
REMARK   11  A    between atoms: C_25  and  C_27 
ROOT
HETATM    1  O   UNK     0     188.217 176.047 178.093  0.00  0.00    -0.348 OA
HETATM    2  C   UNK     0     191.014 175.483 178.419  0.00  0.00     0.183 C 
HETATM    3  C   UNK     0     189.977 174.384 178.191  0.00  0.00     0.180 C 
HETATM    4  C   UNK     0     190.365 176.748 178.983  0.00  0.00     0.205 C 
HETATM    5  C   UNK     0     188.777 174.924 177.410  0.00  0.00     0.179 C 
HETATM    6  C   UNK     0     189.126 177.143 178.180  0.00  0.00     0.298 C 
ENDROOT
BRANCH   5   7
HETATM    7  C   UNK     0     187.677 173.876 177.271  0.00  0.00     0.198 C 
BRANCH   7   8
HETATM    8  O   UNK     0     187.755 172.991 178.374  0.00  0.00    -0.398 OA
HETATM    9  H   UNK     0     188.275 173.431 179.069  0.00  0.00     0.209 HD
ENDBRANCH   7   8
ENDBRANCH   5   7
BRANCH   6  10
HETATM   10  O   UNK     0     188.500 178.238 178.846  0.00  0.00    -0.318 OA
BRANCH  10  11
HETATM   11  C   UNK     0     187.370 177.955 179.556  0.00  0.00     0.077 A 
HETATM   12  C   UNK     0     186.158 177.770 178.889  0.00  0.00     0.075 A 
HETATM   13  C   UNK     0     185.004 177.481 179.616  0.00  0.00     0.095 A 
HETATM   14  O   UNK     0     183.842 177.310 178.907  0.00  0.00    -0.309 OA
HETATM   15  C   UNK     0     185.063 177.380 181.006  0.00  0.00     0.081 A 
HETATM   16  C   UNK     0     182.680 177.016 179.603  0.00  0.00     0.090 A 
HETATM   17  C   UNK     0     182.608 176.899 180.938  0.00  0.00     0.094 A 
HETATM   18  C   UNK     0     183.830 177.077 181.748  0.00  0.00     0.190 A 
HETATM   19  O   UNK     0     183.809 176.976 182.967  0.00  0.00    -0.287 OA
HETATM   20  C   UNK     0     186.274 177.565 181.677  0.00  0.00     0.085 A 
HETATM   21  C   UNK     0     187.428 177.853 180.946  0.00  0.00     0.074 A 
BRANCH  16  22
HETATM   22  C   UNK     0     181.489 176.858 178.743  0.00  0.00     0.001 A 
HETATM   23  C   UNK     0     180.751 175.673 178.780  0.00  0.00     0.053 A 
HETATM   24  C   UNK     0     179.626 175.524 177.969  0.00  0.00     0.099 A 
HETATM   25  C   UNK     0     179.236 176.558 177.119  0.00  0.00     0.098 A 
HETATM   26  C   UNK     0     179.971 177.743 177.081  0.00  0.00     0.040 A 
HETATM   27  C   UNK     0     181.096 177.893 177.892  0.00  0.00     0.017 A 
BRANCH  24  28
HETATM   28  O   UNK     0     178.916 174.361 178.013  0.00  0.00    -0.358 OA
HETATM   29  H   UNK     0     179.196 173.863 178.800  0.00  0.00     0.217 HD
ENDBRANCH  24  28
BRANCH  25  30
HETATM   30  O   UNK     0     178.139 176.425 176.324  0.00  0.00    -0.358 OA
HETATM   31  H   UNK     0     178.301 175.719 175.675  0.00  0.00     0.217 HD
ENDBRANCH  25  30
ENDBRANCH  16  22
BRANCH  20  32
HETATM   32  O   UNK     0     186.383 177.476 183.031  0.00  0.00    -0.360 OA
HETATM   33  H   UNK     0     187.247 177.115 183.281  0.00  0.00     0.217 HD
ENDBRANCH  20  32
ENDBRANCH  10  11
ENDBRANCH   6  10
BRANCH   3  34
HETATM   34  O   UNK     0     190.575 173.317 177.457  0.00  0.00    -0.390 OA
HETATM   35  H   UNK     0     190.850 172.634 178.093  0.00  0.00     0.210 HD
ENDBRANCH   3  34
BRANCH   4  36
HETATM   36  O   UNK     0     191.299 177.826 178.924  0.00  0.00    -0.388 OA
HETATM   37  H   UNK     0     192.121 177.491 178.526  0.00  0.00     0.210 HD
ENDBRANCH   4  36
BRANCH   2  38
HETATM   38  O   UNK     0     191.983 174.992 179.348  0.00  0.00    -0.390 OA
HETATM   39  H   UNK     0     192.597 174.422 178.853  0.00  0.00     0.210 HD
ENDBRANCH   2  38
TORSDOF 11
ENDMDL
MODEL 4
REMARK VINA RESULT:      -9.5      1.762      3.684
REMARK  11 active torsions:
REMARK  status: ('A' for Active; 'I' for Inactive)
REMARK    1  A    between atoms: O_2  and  C_16 
REMARK    2  A    between atoms: O_2  and  C_18 
REMARK    3  A    between atoms: O_3  and  C_12 
REMARK    4  A    between atoms: O_4  and  C_13 
REMARK    5  A    between atoms: O_5  and  C_14 
REMARK    6  A    between atoms: O_6  and  C_17 
REMARK    7  A    between atoms: O_8  and  C_23 
REMARK    8  A    between atoms: O_10  and  C_30 
REMARK    9  A    between atoms: O_11  and  C_32 
REMARK   10  A    between atoms: C_15  and  C_17 
REMARK   11  A    between atoms: C_25  and  C_27 
ROOT
HETATM    1  O   UNK     0     189.156 176.736 179.780  0.00  0.00    -0.348 OA
HETATM    2  C   UNK     0     190.365 174.680 178.180  0.00  0.00     0.183 C 
HETATM    3  C   UNK     0     191.167 175.535 179.161  0.00  0.00     0.180 C 
HETATM    4  C   UNK     0     189.070 175.382 177.767  0.00  0.00     0.205 C 
HETATM    5  C   UNK     0     190.279 176.026 180.306  0.00  0.00     0.179 C 
HETATM    6  C   UNK     0     188.310 175.909 178.984  0.00  0.00     0.298 C 
ENDROOT
BRANCH   5   7
HETATM    7  C   UNK     0     191.030 176.976 181.234  0.00  0.00     0.198 C 
BRANCH   7   8
HETATM    8  O   UNK     0     190.162 178.036 181.592  0.00  0.00    -0.398 OA
HETATM    9  H   UNK     0     189.349 177.643 181.953  0.00  0.00     0.209 HD
ENDBRANCH   7   8
ENDBRANCH   5   7
BRANCH   6  10
HETATM   10  O   UNK     0     187.198 176.669 178.513  0.00  0.00    -0.318 OA
BRANCH  10  11
HETATM   11  C   UNK     0     186.074 176.648 179.284  0.00  0.00     0.077 A 
HETATM   12  C   UNK     0     184.837 176.959 178.718  0.00  0.00     0.075 A 
HETATM   13  C   UNK     0     183.688 176.937 179.508  0.00  0.00     0.095 A 
HETATM   14  O   UNK     0     182.500 177.252 178.897  0.00  0.00    -0.309 OA
HETATM   15  C   UNK     0     183.778 176.607 180.860  0.00  0.00     0.081 A 
HETATM   16  C   UNK     0     181.341 177.233 179.657  0.00  0.00     0.090 A 
HETATM   17  C   UNK     0     181.300 176.937 180.965  0.00  0.00     0.094 A 
HETATM   18  C   UNK     0     182.551 176.593 181.671  0.00  0.00     0.190 A 
HETATM   19  O   UNK     0     182.557 176.316 182.862  0.00  0.00    -0.287 OA
HETATM   20  C   UNK     0     185.015 176.295 181.430  0.00  0.00     0.085 A 
HETATM   21  C   UNK     0     186.162 176.317 180.636  0.00  0.00     0.074 A 
BRANCH  16  22
HETATM   22  C   UNK     0     180.123 177.593 178.902  0.00  0.00     0.001 A 
HETATM   23  C   UNK     0     178.895 177.689 179.559  0.00  0.00     0.053 A 
HETATM   24  C   UNK     0     177.745 178.030 178.846  0.00  0.00     0.099 A 
HETATM   25  C   UNK     0     177.820 178.274 177.476  0.00  0.00     0.098 A 
HETATM   26  C   UNK     0     179.046 178.179 176.817  0.00  0.00     0.040 A 
HETATM   27  C   UNK     0     180.196 177.838 177.528  0.00  0.00     0.017 A 
BRANCH  24  28
HETATM   28  O   UNK     0     176.552 178.119 179.500  0.00  0.00    -0.358 OA
HETATM   29  H   UNK     0     175.838 178.045 178.844  0.00  0.00     0.217 HD
ENDBRANCH  24  28
BRANCH  25  30
HETATM   30  O   UNK     0     176.705 178.608 176.769  0.00  0.00    -0.358 OA
HETATM   31  H   UNK     0     176.945 179.259 176.086  0.00  0.00     0.217 HD
ENDBRANCH  25  30
ENDBRANCH  16  22
BRANCH  20  32
HETATM   32  O   UNK     0     185.154 175.966 182.744  0.00  0.00    -0.360 OA
HETATM   33  H   UNK     0     185.277 176.761 183.284  0.00  0.00     0.217 HD
ENDBRANCH  20  32
ENDBRANCH  10  11
ENDBRANCH   6  10
BRANCH   3  34
HETATM   34  O   UNK     0     192.238 174.758 179.695  0.00  0.00    -0.390 OA
HETATM   35  H   UNK     0     193.063 175.255 179.564  0.00  0.00     0.210 HD
ENDBRANCH   3  34
BRANCH   4  36
HETATM   36  O   UNK     0     188.228 174.456 177.081  0.00  0.00    -0.388 OA
HETATM   37  H   UNK     0     187.305 174.736 177.208  0.00  0.00     0.210 HD
ENDBRANCH   4  36
BRANCH   2  38
HETATM   38  O   UNK     0     191.173 174.456 177.024  0.00  0.00    -0.390 OA
HETATM   39  H   UNK     0     191.709 173.662 177.194  0.00  0.00     0.210 HD
ENDBRANCH   2  38
TORSDOF 11
ENDMDL
MODEL 5
REMARK VINA RESULT:      -9.1      2.217      9.525
REMARK  11 active torsions:
REMARK  status: ('A' for Active; 'I' for Inactive)
REMARK    1  A    between atoms: O_2  and  C_16 
REMARK    2  A    between atoms: O_2  and  C_18 
REMARK    3  A    between atoms: O_3  and  C_12 
REMARK    4  A    between atoms: O_4  and  C_13 
REMARK    5  A    between atoms: O_5  and  C_14 
REMARK    6  A    between atoms: O_6  and  C_17 
REMARK    7  A    between atoms: O_8  and  C_23 
REMARK    8  A    between atoms: O_10  and  C_30 
REMARK    9  A    between atoms: O_11  and  C_32 
REMARK   10  A    between atoms: C_15  and  C_17 
REMARK   11  A    between atoms: C_25  and  C_27 
ROOT
HETATM    1  O   UNK     0     180.594 177.173 178.980  0.00  0.00    -0.348 OA
HETATM    2  C   UNK     0     177.758 177.138 178.526  0.00  0.00     0.183 C 
HETATM    3  C   UNK     0     178.697 178.082 177.776  0.00  0.00     0.180 C 
HETATM    4  C   UNK     0     178.380 176.669 179.842  0.00  0.00     0.205 C 
HETATM    5  C   UNK     0     180.102 177.484 177.675  0.00  0.00     0.179 C 
HETATM    6  C   UNK     0     179.812 176.177 179.636  0.00  0.00     0.298 C 
ENDROOT
BRANCH   5   7
HETATM    7  C   UNK     0     181.085 178.458 177.033  0.00  0.00     0.198 C 
BRANCH   7   8
HETATM    8  O   UNK     0     182.010 177.719 176.257  0.00  0.00    -0.398 OA
HETATM    9  H   UNK     0     181.539 177.385 175.474  0.00  0.00     0.209 HD
ENDBRANCH   7   8
ENDBRANCH   5   7
BRANCH   6  10
HETATM   10  O   UNK     0     180.370 175.894 180.919  0.00  0.00    -0.318 OA
BRANCH  10  11
HETATM   11  C   UNK     0     181.639 176.337 181.144  0.00  0.00     0.077 A 
HETATM   12  C   UNK     0     182.710 175.757 180.462  0.00  0.00     0.075 A 
HETATM   13  C   UNK     0     184.007 176.212 180.694  0.00  0.00     0.095 A 
HETATM   14  O   UNK     0     185.019 175.604 179.994  0.00  0.00    -0.309 OA
HETATM   15  C   UNK     0     184.233 177.242 181.606  0.00  0.00     0.081 A 
HETATM   16  C   UNK     0     186.319 176.039 180.200  0.00  0.00     0.090 A 
HETATM   17  C   UNK     0     186.663 177.015 181.054  0.00  0.00     0.094 A 
HETATM   18  C   UNK     0     185.612 177.700 181.833  0.00  0.00     0.190 A 
HETATM   19  O   UNK     0     185.881 178.596 182.621  0.00  0.00    -0.287 OA
HETATM   20  C   UNK     0     183.164 177.824 182.292  0.00  0.00     0.085 A 
HETATM   21  C   UNK     0     181.866 177.368 182.056  0.00  0.00     0.074 A 
BRANCH  16  22
HETATM   22  C   UNK     0     187.328 175.313 179.401  0.00  0.00     0.001 A 
HETATM   23  C   UNK     0     188.346 174.601 180.039  0.00  0.00     0.053 A 
HETATM   24  C   UNK     0     189.299 173.915 179.284  0.00  0.00     0.099 A 
HETATM   25  C   UNK     0     189.236 173.940 177.892  0.00  0.00     0.098 A 
HETATM   26  C   UNK     0     188.219 174.650 177.253  0.00  0.00     0.040 A 
HETATM   27  C   UNK     0     187.267 175.336 178.006  0.00  0.00     0.017 A 
BRANCH  24  28
HETATM   28  O   UNK     0     190.288 173.226 179.919  0.00  0.00    -0.358 OA
HETATM   29  H   UNK     0     191.136 173.454 179.501  0.00  0.00     0.217 HD
ENDBRANCH  24  28
BRANCH  25  30
HETATM   30  O   UNK     0     190.159 173.273 177.144  0.00  0.00    -0.358 OA
HETATM   31  H   UNK     0     189.725 172.915 176.351  0.00  0.00     0.217 HD
ENDBRANCH  25  30
ENDBRANCH  16  22
BRANCH  20  32
HETATM   32  O   UNK     0     183.332 178.832 183.192  0.00  0.00    -0.360 OA
HETATM   33  H   UNK     0     183.123 179.688 182.789  0.00  0.00     0.217 HD
ENDBRANCH  20  32
ENDBRANCH  10  11
ENDBRANCH   6  10
BRANCH   3  34
HETATM   34  O   UNK     0     178.186 178.309 176.464  0.00  0.00    -0.390 OA
HETATM   35  H   UNK     0     177.220 178.398 176.530  0.00  0.00     0.210 HD
ENDBRANCH   3  34
BRANCH   4  36
HETATM   36  O   UNK     0     177.609 175.592 180.374  0.00  0.00    -0.388 OA
HETATM   37  H   UNK     0     178.059 174.760 180.150  0.00  0.00     0.210 HD
ENDBRANCH   4  36
BRANCH   2  38
HETATM   38  O   UNK     0     176.545 177.843 178.798  0.00  0.00    -0.390 OA
HETATM   39  H   UNK     0     176.430 177.861 179.764  0.00  0.00     0.210 HD
ENDBRANCH   2  38
TORSDOF 11
ENDMDL
MODEL 6
REMARK VINA RESULT:      -9.0      1.881      9.957
REMARK  11 active torsions:
REMARK  status: ('A' for Active; 'I' for Inactive)
REMARK    1  A    between atoms: O_2  and  C_16 
REMARK    2  A    between atoms: O_2  and  C_18 
REMARK    3  A    between atoms: O_3  and  C_12 
REMARK    4  A    between atoms: O_4  and  C_13 
REMARK    5  A    between atoms: O_5  and  C_14 
REMARK    6  A    between atoms: O_6  and  C_17 
REMARK    7  A    between atoms: O_8  and  C_23 
REMARK    8  A    between atoms: O_10  and  C_30 
REMARK    9  A    between atoms: O_11  and  C_32 
REMARK   10  A    between atoms: C_15  and  C_17 
REMARK   11  A    between atoms: C_25  and  C_27 
ROOT
HETATM    1  O   UNK     0     180.190 175.744 181.535  0.00  0.00    -0.348 OA
HETATM    2  C   UNK     0     177.855 176.256 179.942  0.00  0.00     0.183 C 
HETATM    3  C   UNK     0     177.778 175.957 181.439  0.00  0.00     0.180 C 
HETATM    4  C   UNK     0     179.155 175.722 179.338  0.00  0.00     0.205 C 
HETATM    5  C   UNK     0     179.067 176.382 182.146  0.00  0.00     0.179 C 
HETATM    6  C   UNK     0     180.367 176.133 180.174  0.00  0.00     0.298 C 
ENDROOT
BRANCH   5   7
HETATM    7  C   UNK     0     179.059 175.987 183.619  0.00  0.00     0.198 C 
BRANCH   7   8
HETATM    8  O   UNK     0     180.211 175.209 183.883  0.00  0.00    -0.398 OA
HETATM    9  H   UNK     0     180.934 175.554 183.331  0.00  0.00     0.209 HD
ENDBRANCH   7   8
ENDBRANCH   5   7
BRANCH   6  10
HETATM   10  O   UNK     0     181.516 175.484 179.633  0.00  0.00    -0.318 OA
BRANCH  10  11
HETATM   11  C   UNK     0     182.622 176.258 179.441  0.00  0.00     0.077 A 
HETATM   12  C   UNK     0     183.893 175.688 179.519  0.00  0.00     0.075 A 
HETATM   13  C   UNK     0     185.022 176.482 179.322  0.00  0.00     0.095 A 
HETATM   14  O   UNK     0     186.245 175.865 179.412  0.00  0.00    -0.309 OA
HETATM   15  C   UNK     0     184.880 177.842 179.049  0.00  0.00     0.081 A 
HETATM   16  C   UNK     0     187.385 176.629 179.216  0.00  0.00     0.090 A 
HETATM   17  C   UNK     0     187.378 177.945 178.953  0.00  0.00     0.094 A 
HETATM   18  C   UNK     0     186.088 178.656 178.848  0.00  0.00     0.190 A 
HETATM   19  O   UNK     0     186.036 179.854 178.609  0.00  0.00    -0.287 OA
HETATM   20  C   UNK     0     183.608 178.416 178.970  0.00  0.00     0.085 A 
HETATM   21  C   UNK     0     182.480 177.619 179.167  0.00  0.00     0.074 A 
BRANCH  16  22
HETATM   22  C   UNK     0     188.646 175.868 179.340  0.00  0.00     0.001 A 
HETATM   23  C   UNK     0     189.865 176.479 179.040  0.00  0.00     0.053 A 
HETATM   24  C   UNK     0     191.055 175.760 179.159  0.00  0.00     0.099 A 
HETATM   25  C   UNK     0     191.029 174.430 179.577  0.00  0.00     0.098 A 
HETATM   26  C   UNK     0     189.812 173.818 179.878  0.00  0.00     0.040 A 
HETATM   27  C   UNK     0     188.622 174.535 179.760  0.00  0.00     0.017 A 
BRANCH  24  28
HETATM   28  O   UNK     0     192.238 176.368 178.860  0.00  0.00    -0.358 OA
HETATM   29  H   UNK     0     192.359 177.117 179.468  0.00  0.00     0.217 HD
ENDBRANCH  24  28
BRANCH  25  30
HETATM   30  O   UNK     0     192.184 173.719 179.698  0.00  0.00    -0.358 OA
HETATM   31  H   UNK     0     192.813 174.017 179.019  0.00  0.00     0.217 HD
ENDBRANCH  25  30
ENDBRANCH  16  22
BRANCH  20  32
HETATM   32  O   UNK     0     183.417 179.738 178.706  0.00  0.00    -0.360 OA
HETATM   33  H   UNK     0     182.575 179.876 178.247  0.00  0.00     0.217 HD
ENDBRANCH  20  32
ENDBRANCH  10  11
ENDBRANCH   6  10
BRANCH   3  34
HETATM   34  O   UNK     0     176.676 176.663 182.004  0.00  0.00    -0.390 OA
HETATM   35  H   UNK     0     176.685 176.515 182.965  0.00  0.00     0.210 HD
ENDBRANCH   3  34
BRANCH   4  36
HETATM   36  O   UNK     0     179.318 176.252 178.023  0.00  0.00    -0.388 OA
HETATM   37  H   UNK     0     179.889 177.038 178.083  0.00  0.00     0.210 HD
ENDBRANCH   4  36
BRANCH   2  38
HETATM   38  O   UNK     0     176.742 175.626 179.306  0.00  0.00    -0.390 OA
HETATM   39  H   UNK     0     177.094 175.061 178.597  0.00  0.00     0.210 HD
ENDBRANCH   2  38
TORSDOF 11
ENDMDL
MODEL 7
REMARK VINA RESULT:      -8.7     13.986     19.158
REMARK  11 active torsions:
REMARK  status: ('A' for Active; 'I' for Inactive)
REMARK    1  A    between atoms: O_2  and  C_16 
REMARK    2  A    between atoms: O_2  and  C_18 
REMARK    3  A    between atoms: O_3  and  C_12 
REMARK    4  A    between atoms: O_4  and  C_13 
REMARK    5  A    between atoms: O_5  and  C_14 
REMARK    6  A    between atoms: O_6  and  C_17 
REMARK    7  A    between atoms: O_8  and  C_23 
REMARK    8  A    between atoms: O_10  and  C_30 
REMARK    9  A    between atoms: O_11  and  C_32 
REMARK   10  A    between atoms: C_15  and  C_17 
REMARK   11  A    between atoms: C_25  and  C_27 
ROOT
HETATM    1  O   UNK     0     170.544 180.591 172.098  0.00  0.00    -0.348 OA
HETATM    2  C   UNK     0     171.387 178.099 173.251  0.00  0.00     0.183 C 
HETATM    3  C   UNK     0     172.278 179.342 173.242  0.00  0.00     0.180 C 
HETATM    4  C   UNK     0     170.322 178.173 172.156  0.00  0.00     0.205 C 
HETATM    5  C   UNK     0     171.431 180.617 173.218  0.00  0.00     0.179 C 
HETATM    6  C   UNK     0     169.603 179.522 172.170  0.00  0.00     0.298 C 
ENDROOT
BRANCH   5   7
HETATM    7  C   UNK     0     172.297 181.866 173.090  0.00  0.00     0.198 C 
BRANCH   7   8
HETATM    8  O   UNK     0     172.928 182.106 174.334  0.00  0.00    -0.398 OA
HETATM    9  H   UNK     0     172.844 183.055 174.530  0.00  0.00     0.209 HD
ENDBRANCH   7   8
ENDBRANCH   5   7
BRANCH   6  10
HETATM   10  O   UNK     0     168.733 179.568 171.040  0.00  0.00    -0.318 OA
BRANCH  10  11
HETATM   11  C   UNK     0     167.570 180.263 171.193  0.00  0.00     0.077 A 
HETATM   12  C   UNK     0     166.530 179.722 171.951  0.00  0.00     0.075 A 
HETATM   13  C   UNK     0     165.342 180.435 172.105  0.00  0.00     0.095 A 
HETATM   14  O   UNK     0     164.356 179.852 172.861  0.00  0.00    -0.309 OA
HETATM   15  C   UNK     0     165.194 181.683 171.502  0.00  0.00     0.081 A 
HETATM   16  C   UNK     0     163.165 180.540 173.037  0.00  0.00     0.090 A 
HETATM   17  C   UNK     0     162.901 181.743 172.503  0.00  0.00     0.094 A 
HETATM   18  C   UNK     0     163.928 182.411 171.679  0.00  0.00     0.190 A 
HETATM   19  O   UNK     0     163.730 183.508 171.177  0.00  0.00    -0.287 OA
HETATM   20  C   UNK     0     166.232 182.228 170.742  0.00  0.00     0.085 A 
HETATM   21  C   UNK     0     167.421 181.512 170.590  0.00  0.00     0.074 A 
BRANCH  16  22
HETATM   22  C   UNK     0     162.173 179.820 173.862  0.00  0.00     0.001 A 
HETATM   23  C   UNK     0     162.553 178.689 174.586  0.00  0.00     0.053 A 
HETATM   24  C   UNK     0     161.615 178.010 175.366  0.00  0.00     0.099 A 
HETATM   25  C   UNK     0     160.297 178.461 175.423  0.00  0.00     0.098 A 
HETATM   26  C   UNK     0     159.916 179.592 174.700  0.00  0.00     0.040 A 
HETATM   27  C   UNK     0     160.851 180.270 173.921  0.00  0.00     0.017 A 
BRANCH  24  28
HETATM   28  O   UNK     0     161.999 176.906 176.067  0.00  0.00    -0.358 OA
HETATM   29  H   UNK     0     162.748 176.495 175.602  0.00  0.00     0.217 HD
ENDBRANCH  24  28
BRANCH  25  30
HETATM   30  O   UNK     0     159.374 177.808 176.181  0.00  0.00    -0.358 OA
HETATM   31  H   UNK     0     159.625 177.879 177.118  0.00  0.00     0.217 HD
ENDBRANCH  25  30
ENDBRANCH  16  22
BRANCH  20  32
HETATM   32  O   UNK     0     166.136 183.442 170.134  0.00  0.00    -0.360 OA
HETATM   33  H   UNK     0     165.859 183.340 169.210  0.00  0.00     0.217 HD
ENDBRANCH  20  32
ENDBRANCH  10  11
ENDBRANCH   6  10
BRANCH   3  34
HETATM   34  O   UNK     0     173.098 179.343 174.408  0.00  0.00    -0.390 OA
HETATM   35  H   UNK     0     172.750 178.671 175.020  0.00  0.00     0.210 HD
ENDBRANCH   3  34
BRANCH   4  36
HETATM   36  O   UNK     0     169.353 177.147 172.368  0.00  0.00    -0.388 OA
HETATM   37  H   UNK     0     169.353 176.924 173.315  0.00  0.00     0.210 HD
ENDBRANCH   4  36
BRANCH   2  38
HETATM   38  O   UNK     0     172.217 176.958 173.031  0.00  0.00    -0.390 OA
HETATM   39  H   UNK     0     172.972 177.248 172.489  0.00  0.00     0.210 HD
ENDBRANCH   2  38
TORSDOF 11
ENDMDL
MODEL 8
REMARK VINA RESULT:      -8.7     13.946     18.267
REMARK  11 active torsions:
REMARK  status: ('A' for Active; 'I' for Inactive)
REMARK    1  A    between atoms: O_2  and  C_16 
REMARK    2  A    between atoms: O_2  and  C_18 
REMARK    3  A    between atoms: O_3  and  C_12 
REMARK    4  A    between atoms: O_4  and  C_13 
REMARK    5  A    between atoms: O_5  and  C_14 
REMARK    6  A    between atoms: O_6  and  C_17 
REMARK    7  A    between atoms: O_8  and  C_23 
REMARK    8  A    between atoms: O_10  and  C_30 
REMARK    9  A    between atoms: O_11  and  C_32 
REMARK   10  A    between atoms: C_15  and  C_17 
REMARK   11  A    between atoms: C_25  and  C_27 
ROOT
HETATM    1  O   UNK     0     169.878 179.911 172.423  0.00  0.00    -0.348 OA
HETATM    2  C   UNK     0     172.038 179.183 174.171  0.00  0.00     0.183 C 
HETATM    3  C   UNK     0     171.246 178.149 173.371  0.00  0.00     0.180 C 
HETATM    4  C   UNK     0     171.235 180.472 174.357  0.00  0.00     0.205 C 
HETATM    5  C   UNK     0     170.674 178.771 172.095  0.00  0.00     0.179 C 
HETATM    6  C   UNK     0     170.638 180.951 173.035  0.00  0.00     0.298 C 
ENDROOT
BRANCH   5   7
HETATM    7  C   UNK     0     169.783 177.789 171.339  0.00  0.00     0.198 C 
BRANCH   7   8
HETATM    8  O   UNK     0     169.265 176.849 172.262  0.00  0.00    -0.398 OA
HETATM    9  H   UNK     0     169.006 177.335 173.064  0.00  0.00     0.209 HD
ENDBRANCH   7   8
ENDBRANCH   5   7
BRANCH   6  10
HETATM   10  O   UNK     0     169.792 182.066 173.312  0.00  0.00    -0.318 OA
BRANCH  10  11
HETATM   11  C   UNK     0     169.943 183.161 172.514  0.00  0.00     0.077 A 
HETATM   12  C   UNK     0     169.445 184.398 172.927  0.00  0.00     0.075 A 
HETATM   13  C   UNK     0     169.600 185.516 172.109  0.00  0.00     0.095 A 
HETATM   14  O   UNK     0     169.090 186.704 172.568  0.00  0.00    -0.309 OA
HETATM   15  C   UNK     0     170.250 185.397 170.881  0.00  0.00     0.081 A 
HETATM   16  C   UNK     0     169.235 187.834 171.778  0.00  0.00     0.090 A 
HETATM   17  C   UNK     0     169.834 187.845 170.578  0.00  0.00     0.094 A 
HETATM   18  C   UNK     0     170.398 186.592 170.037  0.00  0.00     0.190 A 
HETATM   19  O   UNK     0     170.954 186.559 168.948  0.00  0.00    -0.287 OA
HETATM   20  C   UNK     0     170.750 184.160 170.464  0.00  0.00     0.085 A 
HETATM   21  C   UNK     0     170.594 183.043 171.286  0.00  0.00     0.074 A 
BRANCH  16  22
HETATM   22  C   UNK     0     168.645 189.056 172.365  0.00  0.00     0.001 A 
HETATM   23  C   UNK     0     168.548 189.190 173.751  0.00  0.00     0.053 A 
HETATM   24  C   UNK     0     167.992 190.345 174.305  0.00  0.00     0.099 A 
HETATM   25  C   UNK     0     167.532 191.365 173.474  0.00  0.00     0.098 A 
HETATM   26  C   UNK     0     167.629 191.233 172.088  0.00  0.00     0.040 A 
HETATM   27  C   UNK     0     168.184 190.080 171.534  0.00  0.00     0.017 A 
BRANCH  24  28
HETATM   28  O   UNK     0     167.901 190.462 175.660  0.00  0.00    -0.358 OA
HETATM   29  H   UNK     0     168.721 190.116 176.052  0.00  0.00     0.217 HD
ENDBRANCH  24  28
BRANCH  25  30
HETATM   30  O   UNK     0     166.989 192.497 174.002  0.00  0.00    -0.358 OA
HETATM   31  H   UNK     0     166.152 192.271 174.443  0.00  0.00     0.217 HD
ENDBRANCH  25  30
ENDBRANCH  16  22
BRANCH  20  32
HETATM   32  O   UNK     0     171.392 183.993 169.275  0.00  0.00    -0.360 OA
HETATM   33  H   UNK     0     172.169 183.425 169.383  0.00  0.00     0.217 HD
ENDBRANCH  20  32
ENDBRANCH  10  11
ENDBRANCH   6  10
BRANCH   3  34
HETATM   34  O   UNK     0     172.105 177.065 173.023  0.00  0.00    -0.390 OA
HETATM   35  H   UNK     0     172.443 177.227 172.126  0.00  0.00     0.210 HD
ENDBRANCH   3  34
BRANCH   4  36
HETATM   36  O   UNK     0     172.094 181.496 174.858  0.00  0.00    -0.388 OA
HETATM   37  H   UNK     0     171.540 182.250 175.124  0.00  0.00     0.210 HD
ENDBRANCH   4  36
BRANCH   2  38
HETATM   38  O   UNK     0     172.337 178.620 175.449  0.00  0.00    -0.390 OA
HETATM   39  H   UNK     0     171.987 177.713 175.456  0.00  0.00     0.210 HD
ENDBRANCH   2  38
TORSDOF 11
ENDMDL
MODEL 9
REMARK VINA RESULT:      -8.6     14.173     19.502
REMARK  11 active torsions:
REMARK  status: ('A' for Active; 'I' for Inactive)
REMARK    1  A    between atoms: O_2  and  C_16 
REMARK    2  A    between atoms: O_2  and  C_18 
REMARK    3  A    between atoms: O_3  and  C_12 
REMARK    4  A    between atoms: O_4  and  C_13 
REMARK    5  A    between atoms: O_5  and  C_14 
REMARK    6  A    between atoms: O_6  and  C_17 
REMARK    7  A    between atoms: O_8  and  C_23 
REMARK    8  A    between atoms: O_10  and  C_30 
REMARK    9  A    between atoms: O_11  and  C_32 
REMARK   10  A    between atoms: C_15  and  C_17 
REMARK   11  A    between atoms: C_25  and  C_27 
ROOT
HETATM    1  O   UNK     0     170.631 181.505 171.800  0.00  0.00    -0.348 OA
HETATM    2  C   UNK     0     172.013 180.236 173.974  0.00  0.00     0.183 C 
HETATM    3  C   UNK     0     172.499 181.541 173.343  0.00  0.00     0.180 C 
HETATM    4  C   UNK     0     171.114 179.458 173.013  0.00  0.00     0.205 C 
HETATM    5  C   UNK     0     171.330 182.322 172.741  0.00  0.00     0.179 C 
HETATM    6  C   UNK     0     170.038 180.358 172.405  0.00  0.00     0.298 C 
ENDROOT
BRANCH   5   7
HETATM    7  C   UNK     0     171.805 183.570 172.004  0.00  0.00     0.198 C 
BRANCH   7   8
HETATM    8  O   UNK     0     173.092 183.315 171.470  0.00  0.00    -0.398 OA
HETATM    9  H   UNK     0     173.443 182.523 171.912  0.00  0.00     0.209 HD
ENDBRANCH   7   8
ENDBRANCH   5   7
BRANCH   6  10
HETATM   10  O   UNK     0     169.337 179.602 171.419  0.00  0.00    -0.318 OA
BRANCH  10  11
HETATM   11  C   UNK     0     167.982 179.527 171.557  0.00  0.00     0.077 A 
HETATM   12  C   UNK     0     167.204 180.677 171.412  0.00  0.00     0.075 A 
HETATM   13  C   UNK     0     165.819 180.598 171.553  0.00  0.00     0.095 A 
HETATM   14  O   UNK     0     165.107 181.761 171.400  0.00  0.00    -0.309 OA
HETATM   15  C   UNK     0     165.215 179.374 171.839  0.00  0.00     0.081 A 
HETATM   16  C   UNK     0     163.727 181.712 171.529  0.00  0.00     0.090 A 
HETATM   17  C   UNK     0     163.033 180.598 171.808  0.00  0.00     0.094 A 
HETATM   18  C   UNK     0     163.753 179.321 171.984  0.00  0.00     0.190 A 
HETATM   19  O   UNK     0     163.159 178.282 172.238  0.00  0.00    -0.287 OA
HETATM   20  C   UNK     0     165.991 178.221 171.985  0.00  0.00     0.085 A 
HETATM   21  C   UNK     0     167.377 178.303 171.842  0.00  0.00     0.074 A 
BRANCH  16  22
HETATM   22  C   UNK     0     163.061 183.019 171.351  0.00  0.00     0.001 A 
HETATM   23  C   UNK     0     163.153 183.994 172.347  0.00  0.00     0.053 A 
HETATM   24  C   UNK     0     162.525 185.228 172.178  0.00  0.00     0.099 A 
HETATM   25  C   UNK     0     161.804 185.491 171.014  0.00  0.00     0.098 A 
HETATM   26  C   UNK     0     161.712 184.519 170.017  0.00  0.00     0.040 A 
HETATM   27  C   UNK     0     162.339 183.285 170.185  0.00  0.00     0.017 A 
BRANCH  24  28
HETATM   28  O   UNK     0     162.621 186.169 173.159  0.00  0.00    -0.358 OA
HETATM   29  H   UNK     0     163.407 185.972 173.696  0.00  0.00     0.217 HD
ENDBRANCH  24  28
BRANCH  25  30
HETATM   30  O   UNK     0     161.188 186.692 170.837  0.00  0.00    -0.358 OA
HETATM   31  H   UNK     0     161.440 187.288 171.563  0.00  0.00     0.217 HD
ENDBRANCH  25  30
ENDBRANCH  16  22
BRANCH  20  32
HETATM   32  O   UNK     0     165.449 177.004 172.264  0.00  0.00    -0.360 OA
HETATM   33  H   UNK     0     165.386 176.870 173.221  0.00  0.00     0.217 HD
ENDBRANCH  20  32
ENDBRANCH  10  11
ENDBRANCH   6  10
BRANCH   3  34
HETATM   34  O   UNK     0     173.136 182.337 174.340  0.00  0.00    -0.390 OA
HETATM   35  H   UNK     0     172.592 182.301 175.145  0.00  0.00     0.210 HD
ENDBRANCH   3  34
BRANCH   4  36
HETATM   36  O   UNK     0     170.465 178.402 173.721  0.00  0.00    -0.388 OA
HETATM   37  H   UNK     0     170.419 177.628 173.134  0.00  0.00     0.210 HD
ENDBRANCH   4  36
BRANCH   2  38
HETATM   38  O   UNK     0     173.158 179.446 174.298  0.00  0.00    -0.390 OA
HETATM   39  H   UNK     0     172.842 178.553 174.520  0.00  0.00     0.210 HD
ENDBRANCH   2  38
TORSDOF 11
ENDMDL
