MODEL 1
REMARK VINA RESULT:      -8.0      0.000      0.000
REMARK  11 active torsions:
REMARK  status: ('A' for Active; 'I' for Inactive)
REMARK    1  A    between atoms: O_1  and  C_9 
REMARK    2  A    between atoms: O_2  and  C_19 
REMARK    3  A    between atoms: O_3  and  C_26 
REMARK    4  A    between atoms: O_4  and  C_27 
REMARK    5  A    between atoms: O_6  and  C_28 
REMARK    6  A    between atoms: O_7  and  C_32 
REMARK    7  A    between atoms: C_10  and  C_19 
REMARK    8  A    between atoms: C_19  and  C_27 
REMARK    9  A    between atoms: C_27  and  C_30 
REMARK   10  A    between atoms: C_30  and  C_31 
REMARK   11  A    between atoms: C_31  and  C_32 
ROOT
HETATM    1  O   UNK     0     -10.899  43.190  12.514  0.00  0.00    -0.384 OA
HETATM    2  H   UNK     0     -10.045  42.940  12.122  0.00  0.00     0.211 HD
ENDROOT
BRANCH   1   3
HETATM    3  C   UNK     0     -11.933  42.889  11.549  0.00  0.00     0.089 C 
HETATM    4  C   UNK     0     -11.690  41.476  10.958  0.00  0.00    -0.002 C 
HETATM    5  C   UNK     0     -10.341  41.697  10.227  0.00  0.00     0.034 C 
HETATM    6  C   UNK     0     -11.612  40.466  12.117  0.00  0.00     0.014 C 
HETATM    7  C   UNK     0     -12.795  41.040   9.958  0.00  0.00     0.019 C 
HETATM    8  C   UNK     0     -10.489  43.102   9.600  0.00  0.00     0.012 C 
HETATM    9  C   UNK     0     -11.649  43.799  10.344  0.00  0.00     0.044 C 
HETATM   10  C   UNK     0     -12.910  40.472  12.941  0.00  0.00     0.011 C 
HETATM   11  C   UNK     0     -13.399  41.881  13.399  0.00  0.00     0.027 C 
HETATM   12  C   UNK     0     -14.848  41.840  14.026  0.00  0.00    -0.023 C 
HETATM   13  C   UNK     0     -13.237  42.958  12.315  0.00  0.00    -0.037 C 
HETATM   14  C   UNK     0     -15.360  43.286  14.279  0.00  0.00     0.071 C 
HETATM   15  C   UNK     0     -14.866  41.068  15.376  0.00  0.00     0.044 C 
HETATM   16  C   UNK     0     -15.858  41.130  13.084  0.00  0.00     0.016 C 
HETATM   17  C   UNK     0     -14.621  44.009  15.418  0.00  0.00     0.047 C 
HETATM   18  C   UNK     0     -15.284  44.123  13.016  0.00  0.00     0.154 C 
HETATM   19  C   UNK     0     -14.667  43.210  16.719  0.00  0.00     0.147 C 
HETATM   20  C   UNK     0     -14.131  41.793  16.509  0.00  0.00     0.147 C 
HETATM   21  O   UNK     0     -16.122  44.986  12.761  0.00  0.00    -0.293 OA
HETATM   22  C   UNK     0     -14.123  43.945  12.114  0.00  0.00     0.057 C 
BRANCH   5  23
HETATM   23  C   UNK     0      -9.936  40.637   9.210  0.00  0.00     0.084 C 
HETATM   24  C   UNK     0     -10.402  41.056   7.806  0.00  0.00     0.049 C 
BRANCH  23  25
HETATM   25  O   UNK     0      -8.504  40.561   9.181  0.00  0.00    -0.387 OA
HETATM   26  H   UNK     0      -8.242  39.660   8.930  0.00  0.00     0.210 HD
ENDBRANCH  23  25
BRANCH  23  27
HETATM   27  C   UNK     0     -10.488  39.232   9.575  0.00  0.00     0.152 C 
BRANCH  27  28
HETATM   28  O   UNK     0      -9.730  38.686  10.659  0.00  0.00    -0.393 OA
HETATM   29  H   UNK     0     -10.261  37.973  11.056  0.00  0.00     0.210 HD
ENDBRANCH  27  28
BRANCH  27  30
HETATM   30  C   UNK     0     -10.466  38.222   8.412  0.00  0.00     0.037 C 
BRANCH  30  31
HETATM   31  C   UNK     0     -11.588  37.173   8.537  0.00  0.00     0.040 C 
BRANCH  31  32
HETATM   32  C   UNK     0     -11.155  35.851   9.204  0.00  0.00     0.051 C 
HETATM   33  C   UNK     0     -11.812  35.735  10.584  0.00  0.00     0.045 C 
HETATM   34  C   UNK     0     -11.503  34.625   8.357  0.00  0.00     0.045 C 
BRANCH  32  35
HETATM   35  O   UNK     0      -9.739  35.885   9.394  0.00  0.00    -0.391 OA
HETATM   36  H   UNK     0      -9.567  36.143  10.315  0.00  0.00     0.210 HD
ENDBRANCH  32  35
ENDBRANCH  31  32
ENDBRANCH  30  31
ENDBRANCH  27  30
ENDBRANCH  23  27
ENDBRANCH   5  23
BRANCH  19  37
HETATM   37  O   UNK     0     -16.018  43.139  17.179  0.00  0.00    -0.393 OA
HETATM   38  H   UNK     0     -16.226  42.203  17.336  0.00  0.00     0.210 HD
ENDBRANCH  19  37
BRANCH  20  39
HETATM   39  O   UNK     0     -14.277  41.057  17.721  0.00  0.00    -0.393 OA
HETATM   40  H   UNK     0     -13.980  41.630  18.449  0.00  0.00     0.210 HD
ENDBRANCH  20  39
ENDBRANCH   1   3
TORSDOF 11
ENDMDL
MODEL 2
REMARK VINA RESULT:      -7.7      9.985     14.277
REMARK  11 active torsions:
REMARK  status: ('A' for Active; 'I' for Inactive)
REMARK    1  A    between atoms: O_1  and  C_9 
REMARK    2  A    between atoms: O_2  and  C_19 
REMARK    3  A    between atoms: O_3  and  C_26 
REMARK    4  A    between atoms: O_4  and  C_27 
REMARK    5  A    between atoms: O_6  and  C_28 
REMARK    6  A    between atoms: O_7  and  C_32 
REMARK    7  A    between atoms: C_10  and  C_19 
REMARK    8  A    between atoms: C_19  and  C_27 
REMARK    9  A    between atoms: C_27  and  C_30 
REMARK   10  A    between atoms: C_30  and  C_31 
REMARK   11  A    between atoms: C_31  and  C_32 
ROOT
HETATM    1  O   UNK     0     -18.695  52.501  10.485  0.00  0.00    -0.384 OA
HETATM    2  H   UNK     0     -18.785  53.315  11.010  0.00  0.00     0.211 HD
ENDROOT
BRANCH   1   3
HETATM    3  C   UNK     0     -19.890  51.711  10.685  0.00  0.00     0.089 C 
HETATM    4  C   UNK     0     -19.788  50.956  12.036  0.00  0.00    -0.002 C 
HETATM    5  C   UNK     0     -18.585  50.020  11.753  0.00  0.00     0.034 C 
HETATM    6  C   UNK     0     -19.529  51.983  13.153  0.00  0.00     0.014 C 
HETATM    7  C   UNK     0     -21.062  50.133  12.367  0.00  0.00     0.019 C 
HETATM    8  C   UNK     0     -18.809  49.564  10.293  0.00  0.00     0.012 C 
HETATM    9  C   UNK     0     -19.803  50.566   9.665  0.00  0.00     0.044 C 
HETATM   10  C   UNK     0     -20.660  53.022  13.220  0.00  0.00     0.011 C 
HETATM   11  C   UNK     0     -21.028  53.690  11.858  0.00  0.00     0.027 C 
HETATM   12  C   UNK     0     -22.344  54.558  11.951  0.00  0.00    -0.023 C 
HETATM   13  C   UNK     0     -21.037  52.700  10.683  0.00  0.00    -0.037 C 
HETATM   14  C   UNK     0     -22.770  55.033  10.534  0.00  0.00     0.071 C 
HETATM   15  C   UNK     0     -22.140  55.811  12.850  0.00  0.00     0.044 C 
HETATM   16  C   UNK     0     -23.520  53.749  12.562  0.00  0.00     0.016 C 
HETATM   17  C   UNK     0     -21.825  56.085   9.928  0.00  0.00     0.047 C 
HETATM   18  C   UNK     0     -22.900  53.861   9.579  0.00  0.00     0.154 C 
HETATM   19  C   UNK     0     -21.658  57.292  10.849  0.00  0.00     0.147 C 
HETATM   20  C   UNK     0     -21.201  56.858  12.242  0.00  0.00     0.147 C 
HETATM   21  O   UNK     0     -23.750  53.842   8.690  0.00  0.00    -0.293 OA
HETATM   22  C   UNK     0     -21.921  52.754   9.676  0.00  0.00     0.057 C 
BRANCH   5  23
HETATM   23  C   UNK     0     -18.390  48.853  12.713  0.00  0.00     0.084 C 
HETATM   24  C   UNK     0     -19.383  47.728  12.374  0.00  0.00     0.049 C 
BRANCH  23  25
HETATM   25  O   UNK     0     -17.069  48.328  12.525  0.00  0.00    -0.387 OA
HETATM   26  H   UNK     0     -16.762  47.941  13.362  0.00  0.00     0.210 HD
ENDBRANCH  23  25
BRANCH  23  27
HETATM   27  C   UNK     0     -18.534  49.283  14.198  0.00  0.00     0.152 C 
BRANCH  27  28
HETATM   28  O   UNK     0     -17.258  49.688  14.706  0.00  0.00    -0.393 OA
HETATM   29  H   UNK     0     -17.006  50.504  14.239  0.00  0.00     0.210 HD
ENDBRANCH  27  28
BRANCH  27  30
HETATM   30  C   UNK     0     -19.097  48.187  15.122  0.00  0.00     0.037 C 
BRANCH  30  31
HETATM   31  C   UNK     0     -17.984  47.461  15.902  0.00  0.00     0.040 C 
BRANCH  31  32
HETATM   32  C   UNK     0     -17.881  47.859  17.389  0.00  0.00     0.051 C 
HETATM   33  C   UNK     0     -19.154  48.602  17.810  0.00  0.00     0.045 C 
HETATM   34  C   UNK     0     -17.654  46.654  18.305  0.00  0.00     0.045 C 
BRANCH  32  35
HETATM   35  O   UNK     0     -16.779  48.756  17.539  0.00  0.00    -0.391 OA
HETATM   36  H   UNK     0     -16.913  49.258  18.360  0.00  0.00     0.210 HD
ENDBRANCH  32  35
ENDBRANCH  31  32
ENDBRANCH  30  31
ENDBRANCH  27  30
ENDBRANCH  23  27
ENDBRANCH   5  23
BRANCH  19  37
HETATM   37  O   UNK     0     -22.908  57.977  10.955  0.00  0.00    -0.393 OA
HETATM   38  H   UNK     0     -23.081  58.126  11.900  0.00  0.00     0.210 HD
ENDBRANCH  19  37
BRANCH  20  39
HETATM   39  O   UNK     0     -21.147  58.003  13.090  0.00  0.00    -0.393 OA
HETATM   40  H   UNK     0     -21.947  57.995  13.643  0.00  0.00     0.210 HD
ENDBRANCH  20  39
ENDBRANCH   1   3
TORSDOF 11
ENDMDL
MODEL 3
REMARK VINA RESULT:      -7.6     12.756     17.179
REMARK  11 active torsions:
REMARK  status: ('A' for Active; 'I' for Inactive)
REMARK    1  A    between atoms: O_1  and  C_9 
REMARK    2  A    between atoms: O_2  and  C_19 
REMARK    3  A    between atoms: O_3  and  C_26 
REMARK    4  A    between atoms: O_4  and  C_27 
REMARK    5  A    between atoms: O_6  and  C_28 
REMARK    6  A    between atoms: O_7  and  C_32 
REMARK    7  A    between atoms: C_10  and  C_19 
REMARK    8  A    between atoms: C_19  and  C_27 
REMARK    9  A    between atoms: C_27  and  C_30 
REMARK   10  A    between atoms: C_30  and  C_31 
REMARK   11  A    between atoms: C_31  and  C_32 
ROOT
HETATM    1  O   UNK     0     -23.628  54.713  12.604  0.00  0.00    -0.384 OA
HETATM    2  H   UNK     0     -23.849  55.578  12.990  0.00  0.00     0.211 HD
ENDROOT
BRANCH   1   3
HETATM    3  C   UNK     0     -22.379  54.852  11.889  0.00  0.00     0.089 C 
HETATM    4  C   UNK     0     -21.882  53.453  11.443  0.00  0.00    -0.002 C 
HETATM    5  C   UNK     0     -21.626  52.785  12.818  0.00  0.00     0.034 C 
HETATM    6  C   UNK     0     -22.994  52.777  10.620  0.00  0.00     0.014 C 
HETATM    7  C   UNK     0     -20.576  53.513  10.606  0.00  0.00     0.019 C 
HETATM    8  C   UNK     0     -21.000  53.916  13.665  0.00  0.00     0.012 C 
HETATM    9  C   UNK     0     -21.339  55.243  12.951  0.00  0.00     0.044 C 
HETATM   10  C   UNK     0     -23.357  53.621   9.387  0.00  0.00     0.011 C 
HETATM   11  C   UNK     0     -23.648  55.127   9.676  0.00  0.00     0.027 C 
HETATM   12  C   UNK     0     -23.776  55.979   8.353  0.00  0.00    -0.023 C 
HETATM   13  C   UNK     0     -22.685  55.742  10.703  0.00  0.00    -0.037 C 
HETATM   14  C   UNK     0     -23.866  57.492   8.700  0.00  0.00     0.071 C 
HETATM   15  C   UNK     0     -25.040  55.585   7.537  0.00  0.00     0.044 C 
HETATM   16  C   UNK     0     -22.552  55.772   7.420  0.00  0.00     0.016 C 
HETATM   17  C   UNK     0     -25.190  57.890   9.375  0.00  0.00     0.047 C 
HETATM   18  C   UNK     0     -22.703  57.923   9.574  0.00  0.00     0.154 C 
HETATM   19  C   UNK     0     -26.399  57.479   8.536  0.00  0.00     0.147 C 
HETATM   20  C   UNK     0     -26.357  55.985   8.211  0.00  0.00     0.147 C 
HETATM   21  O   UNK     0     -22.202  59.043   9.476  0.00  0.00    -0.293 OA
HETATM   22  C   UNK     0     -22.221  56.998  10.623  0.00  0.00     0.057 C 
BRANCH   5  23
HETATM   23  C   UNK     0     -20.782  51.516  12.812  0.00  0.00     0.084 C 
HETATM   24  C   UNK     0     -21.698  50.281  12.850  0.00  0.00     0.049 C 
BRANCH  23  25
HETATM   25  O   UNK     0     -20.048  51.466  11.582  0.00  0.00    -0.387 OA
HETATM   26  H   UNK     0     -20.213  52.283  11.083  0.00  0.00     0.210 HD
ENDBRANCH  23  25
BRANCH  23  27
HETATM   27  C   UNK     0     -19.765  51.481  13.985  0.00  0.00     0.152 C 
BRANCH  27  28
HETATM   28  O   UNK     0     -18.449  51.738  13.486  0.00  0.00    -0.393 OA
HETATM   29  H   UNK     0     -17.828  51.613  14.226  0.00  0.00     0.210 HD
ENDBRANCH  27  28
BRANCH  27  30
HETATM   30  C   UNK     0     -19.738  50.149  14.760  0.00  0.00     0.037 C 
BRANCH  30  31
HETATM   31  C   UNK     0     -18.303  49.714  15.109  0.00  0.00     0.040 C 
BRANCH  31  32
HETATM   32  C   UNK     0     -17.842  50.106  16.528  0.00  0.00     0.051 C 
HETATM   33  C   UNK     0     -19.014  49.960  17.506  0.00  0.00     0.045 C 
HETATM   34  C   UNK     0     -16.654  49.273  17.011  0.00  0.00     0.045 C 
BRANCH  32  35
HETATM   35  O   UNK     0     -17.455  51.481  16.511  0.00  0.00    -0.391 OA
HETATM   36  H   UNK     0     -17.745  51.863  15.666  0.00  0.00     0.210 HD
ENDBRANCH  32  35
ENDBRANCH  31  32
ENDBRANCH  30  31
ENDBRANCH  27  30
ENDBRANCH  23  27
ENDBRANCH   5  23
BRANCH  19  37
HETATM   37  O   UNK     0     -26.399  58.225   7.318  0.00  0.00    -0.393 OA
HETATM   38  H   UNK     0     -26.994  57.773   6.696  0.00  0.00     0.210 HD
ENDBRANCH  19  37
BRANCH  20  39
HETATM   39  O   UNK     0     -27.450  55.666   7.354  0.00  0.00    -0.393 OA
HETATM   40  H   UNK     0     -27.779  54.788   7.614  0.00  0.00     0.210 HD
ENDBRANCH  20  39
ENDBRANCH   1   3
TORSDOF 11
ENDMDL
MODEL 4
REMARK VINA RESULT:      -7.5     12.001     16.933
REMARK  11 active torsions:
REMARK  status: ('A' for Active; 'I' for Inactive)
REMARK    1  A    between atoms: O_1  and  C_9 
REMARK    2  A    between atoms: O_2  and  C_19 
REMARK    3  A    between atoms: O_3  and  C_26 
REMARK    4  A    between atoms: O_4  and  C_27 
REMARK    5  A    between atoms: O_6  and  C_28 
REMARK    6  A    between atoms: O_7  and  C_32 
REMARK    7  A    between atoms: C_10  and  C_19 
REMARK    8  A    between atoms: C_19  and  C_27 
REMARK    9  A    between atoms: C_27  and  C_30 
REMARK   10  A    between atoms: C_30  and  C_31 
REMARK   11  A    between atoms: C_31  and  C_32 
ROOT
HETATM    1  O   UNK     0     -23.673  52.534  12.185  0.00  0.00    -0.384 OA
HETATM    2  H   UNK     0     -23.962  53.292  12.722  0.00  0.00     0.211 HD
ENDROOT
BRANCH   1   3
HETATM    3  C   UNK     0     -22.584  52.978  11.344  0.00  0.00     0.089 C 
HETATM    4  C   UNK     0     -21.966  54.269  11.940  0.00  0.00    -0.002 C 
HETATM    5  C   UNK     0     -23.160  55.248  11.809  0.00  0.00     0.034 C 
HETATM    6  C   UNK     0     -21.549  53.986  13.395  0.00  0.00     0.014 C 
HETATM    7  C   UNK     0     -20.740  54.781  11.136  0.00  0.00     0.019 C 
HETATM    8  C   UNK     0     -23.773  54.899  10.433  0.00  0.00     0.012 C 
HETATM    9  C   UNK     0     -23.243  53.497  10.057  0.00  0.00     0.044 C 
HETATM   10  C   UNK     0     -20.528  52.838  13.463  0.00  0.00     0.011 C 
HETATM   11  C   UNK     0     -20.932  51.546  12.687  0.00  0.00     0.027 C 
HETATM   12  C   UNK     0     -19.747  50.505  12.597  0.00  0.00    -0.023 C 
HETATM   13  C   UNK     0     -21.589  51.837  11.330  0.00  0.00    -0.037 C 
HETATM   14  C   UNK     0     -20.138  49.335  11.651  0.00  0.00     0.071 C 
HETATM   15  C   UNK     0     -19.394  49.915  13.992  0.00  0.00     0.044 C 
HETATM   16  C   UNK     0     -18.453  51.160  12.042  0.00  0.00     0.016 C 
HETATM   17  C   UNK     0     -21.227  48.415  12.230  0.00  0.00     0.047 C 
HETATM   18  C   UNK     0     -20.580  49.850  10.295  0.00  0.00     0.154 C 
HETATM   19  C   UNK     0     -20.833  47.864  13.599  0.00  0.00     0.147 C 
HETATM   20  C   UNK     0     -20.480  48.997  14.563  0.00  0.00     0.147 C 
HETATM   21  O   UNK     0     -20.344  49.229   9.259  0.00  0.00    -0.293 OA
HETATM   22  C   UNK     0     -21.386  51.090  10.234  0.00  0.00     0.057 C 
BRANCH   5  23
HETATM   23  C   UNK     0     -22.843  56.732  11.954  0.00  0.00     0.084 C 
HETATM   24  C   UNK     0     -24.131  57.558  11.799  0.00  0.00     0.049 C 
BRANCH  23  25
HETATM   25  O   UNK     0     -22.345  56.961  13.279  0.00  0.00    -0.387 OA
HETATM   26  H   UNK     0     -23.081  56.891  13.909  0.00  0.00     0.210 HD
ENDBRANCH  23  25
BRANCH  23  27
HETATM   27  C   UNK     0     -21.764  57.204  10.942  0.00  0.00     0.152 C 
BRANCH  27  28
HETATM   28  O   UNK     0     -20.732  57.911  11.637  0.00  0.00    -0.393 OA
HETATM   29  H   UNK     0     -20.687  58.806  11.258  0.00  0.00     0.210 HD
ENDBRANCH  27  28
BRANCH  27  30
HETATM   30  C   UNK     0     -22.302  58.112   9.820  0.00  0.00     0.037 C 
BRANCH  30  31
HETATM   31  C   UNK     0     -22.115  57.481   8.427  0.00  0.00     0.040 C 
BRANCH  31  32
HETATM   32  C   UNK     0     -22.692  58.315   7.265  0.00  0.00     0.051 C 
HETATM   33  C   UNK     0     -23.196  57.377   6.162  0.00  0.00     0.045 C 
HETATM   34  C   UNK     0     -23.820  59.246   7.713  0.00  0.00     0.045 C 
BRANCH  32  35
HETATM   35  O   UNK     0     -21.639  59.110   6.716  0.00  0.00    -0.391 OA
HETATM   36  H   UNK     0     -21.585  59.932   7.233  0.00  0.00     0.210 HD
ENDBRANCH  32  35
ENDBRANCH  31  32
ENDBRANCH  30  31
ENDBRANCH  27  30
ENDBRANCH  23  27
ENDBRANCH   5  23
BRANCH  19  37
HETATM   37  O   UNK     0     -19.702  47.003  13.451  0.00  0.00    -0.393 OA
HETATM   38  H   UNK     0     -19.223  47.283  12.652  0.00  0.00     0.210 HD
ENDBRANCH  19  37
BRANCH  20  39
HETATM   39  O   UNK     0     -20.033  48.436  15.795  0.00  0.00    -0.393 OA
HETATM   40  H   UNK     0     -19.088  48.226  15.695  0.00  0.00     0.210 HD
ENDBRANCH  20  39
ENDBRANCH   1   3
TORSDOF 11
ENDMDL
MODEL 5
REMARK VINA RESULT:      -7.4      3.244      6.092
REMARK  11 active torsions:
REMARK  status: ('A' for Active; 'I' for Inactive)
REMARK    1  A    between atoms: O_1  and  C_9 
REMARK    2  A    between atoms: O_2  and  C_19 
REMARK    3  A    between atoms: O_3  and  C_26 
REMARK    4  A    between atoms: O_4  and  C_27 
REMARK    5  A    between atoms: O_6  and  C_28 
REMARK    6  A    between atoms: O_7  and  C_32 
REMARK    7  A    between atoms: C_10  and  C_19 
REMARK    8  A    between atoms: C_19  and  C_27 
REMARK    9  A    between atoms: C_27  and  C_30 
REMARK   10  A    between atoms: C_30  and  C_31 
REMARK   11  A    between atoms: C_31  and  C_32 
ROOT
HETATM    1  O   UNK     0     -11.716  38.885   7.464  0.00  0.00    -0.384 OA
HETATM    2  H   UNK     0     -11.314  39.748   7.666  0.00  0.00     0.211 HD
ENDROOT
BRANCH   1   3
HETATM    3  C   UNK     0     -12.649  38.572   8.523  0.00  0.00     0.089 C 
HETATM    4  C   UNK     0     -12.240  37.232   9.190  0.00  0.00    -0.002 C 
HETATM    5  C   UNK     0     -12.441  36.248   8.009  0.00  0.00     0.034 C 
HETATM    6  C   UNK     0     -10.780  37.347   9.664  0.00  0.00     0.014 C 
HETATM    7  C   UNK     0     -13.151  36.851  10.389  0.00  0.00     0.019 C 
HETATM    8  C   UNK     0     -13.738  36.748   7.331  0.00  0.00     0.012 C 
HETATM    9  C   UNK     0     -13.961  38.196   7.818  0.00  0.00     0.044 C 
HETATM   10  C   UNK     0     -10.615  38.501  10.666  0.00  0.00     0.011 C 
HETATM   11  C   UNK     0     -11.209  39.868  10.206  0.00  0.00     0.027 C 
HETATM   12  C   UNK     0     -11.221  40.940  11.366  0.00  0.00    -0.023 C 
HETATM   13  C   UNK     0     -12.565  39.729   9.495  0.00  0.00    -0.037 C 
HETATM   14  C   UNK     0     -12.000  42.207  10.914  0.00  0.00     0.071 C 
HETATM   15  C   UNK     0      -9.780  41.364  11.768  0.00  0.00     0.044 C 
HETATM   16  C   UNK     0     -11.904  40.387  12.647  0.00  0.00     0.016 C 
HETATM   17  C   UNK     0     -11.269  43.024   9.834  0.00  0.00     0.047 C 
HETATM   18  C   UNK     0     -13.390  41.849  10.423  0.00  0.00     0.154 C 
HETATM   19  C   UNK     0      -9.860  43.414  10.277  0.00  0.00     0.147 C 
HETATM   20  C   UNK     0      -9.056  42.181  10.692  0.00  0.00     0.147 C 
HETATM   21  O   UNK     0     -14.350  42.597  10.602  0.00  0.00    -0.293 OA
HETATM   22  C   UNK     0     -13.569  40.608   9.637  0.00  0.00     0.057 C 
BRANCH   5  23
HETATM   23  C   UNK     0     -12.491  34.766   8.359  0.00  0.00     0.084 C 
HETATM   24  C   UNK     0     -11.814  34.528   9.719  0.00  0.00     0.049 C 
BRANCH  23  25
HETATM   25  O   UNK     0     -13.865  34.378   8.491  0.00  0.00    -0.387 OA
HETATM   26  H   UNK     0     -14.029  34.109   9.410  0.00  0.00     0.210 HD
ENDBRANCH  23  25
BRANCH  23  27
HETATM   27  C   UNK     0     -11.841  33.881   7.260  0.00  0.00     0.152 C 
BRANCH  27  28
HETATM   28  O   UNK     0     -10.904  34.660   6.510  0.00  0.00    -0.393 OA
HETATM   29  H   UNK     0     -10.436  35.237   7.139  0.00  0.00     0.210 HD
ENDBRANCH  27  28
BRANCH  27  30
HETATM   30  C   UNK     0     -12.848  33.254   6.276  0.00  0.00     0.037 C 
BRANCH  30  31
HETATM   31  C   UNK     0     -12.476  33.540   4.809  0.00  0.00     0.040 C 
BRANCH  31  32
HETATM   32  C   UNK     0     -11.757  32.378   4.093  0.00  0.00     0.051 C 
HETATM   33  C   UNK     0     -12.792  31.355   3.611  0.00  0.00     0.045 C 
HETATM   34  C   UNK     0     -10.905  32.852   2.914  0.00  0.00     0.045 C 
BRANCH  32  35
HETATM   35  O   UNK     0     -10.904  31.727   5.037  0.00  0.00    -0.391 OA
HETATM   36  H   UNK     0     -10.512  32.410   5.606  0.00  0.00     0.210 HD
ENDBRANCH  32  35
ENDBRANCH  31  32
ENDBRANCH  30  31
ENDBRANCH  27  30
ENDBRANCH  23  27
ENDBRANCH   5  23
BRANCH  19  37
HETATM   37  O   UNK     0      -9.949  44.313  11.384  0.00  0.00    -0.393 OA
HETATM   38  H   UNK     0      -9.361  45.064  11.200  0.00  0.00     0.210 HD
ENDBRANCH  19  37
BRANCH  20  39
HETATM   39  O   UNK     0      -7.785  42.599  11.182  0.00  0.00    -0.393 OA
HETATM   40  H   UNK     0      -7.935  43.075  12.017  0.00  0.00     0.210 HD
ENDBRANCH  20  39
ENDBRANCH   1   3
TORSDOF 11
ENDMDL
MODEL 6
REMARK VINA RESULT:      -7.4      2.230      7.446
REMARK  11 active torsions:
REMARK  status: ('A' for Active; 'I' for Inactive)
REMARK    1  A    between atoms: O_1  and  C_9 
REMARK    2  A    between atoms: O_2  and  C_19 
REMARK    3  A    between atoms: O_3  and  C_26 
REMARK    4  A    between atoms: O_4  and  C_27 
REMARK    5  A    between atoms: O_6  and  C_28 
REMARK    6  A    between atoms: O_7  and  C_32 
REMARK    7  A    between atoms: C_10  and  C_19 
REMARK    8  A    between atoms: C_19  and  C_27 
REMARK    9  A    between atoms: C_27  and  C_30 
REMARK   10  A    between atoms: C_30  and  C_31 
REMARK   11  A    between atoms: C_31  and  C_32 
ROOT
HETATM    1  O   UNK     0     -12.841  40.854   8.705  0.00  0.00    -0.384 OA
HETATM    2  H   UNK     0     -13.100  40.534   7.823  0.00  0.00     0.211 HD
ENDROOT
BRANCH   1   3
HETATM    3  C   UNK     0     -11.456  40.497   8.916  0.00  0.00     0.089 C 
HETATM    4  C   UNK     0     -11.016  40.956  10.330  0.00  0.00    -0.002 C 
HETATM    5  C   UNK     0     -11.144  42.494  10.188  0.00  0.00     0.034 C 
HETATM    6  C   UNK     0     -11.978  40.344  11.365  0.00  0.00     0.014 C 
HETATM    7  C   UNK     0      -9.556  40.551  10.671  0.00  0.00     0.019 C 
HETATM    8  C   UNK     0     -10.612  42.777   8.764  0.00  0.00     0.012 C 
HETATM    9  C   UNK     0     -10.647  41.433   8.005  0.00  0.00     0.044 C 
HETATM   10  C   UNK     0     -11.968  38.809  11.287  0.00  0.00     0.011 C 
HETATM   11  C   UNK     0     -12.163  38.216   9.856  0.00  0.00     0.027 C 
HETATM   12  C   UNK     0     -11.903  36.659   9.810  0.00  0.00    -0.023 C 
HETATM   13  C   UNK     0     -11.397  38.991   8.773  0.00  0.00    -0.037 C 
HETATM   14  C   UNK     0     -11.915  36.161   8.338  0.00  0.00     0.071 C 
HETATM   15  C   UNK     0     -12.986  35.875  10.605  0.00  0.00     0.044 C 
HETATM   16  C   UNK     0     -10.529  36.291  10.432  0.00  0.00     0.016 C 
HETATM   17  C   UNK     0     -13.310  36.195   7.688  0.00  0.00     0.047 C 
HETATM   18  C   UNK     0     -10.940  36.950   7.484  0.00  0.00     0.154 C 
HETATM   19  C   UNK     0     -14.335  35.413   8.508  0.00  0.00     0.147 C 
HETATM   20  C   UNK     0     -14.373  35.909   9.953  0.00  0.00     0.147 C 
HETATM   21  O   UNK     0     -10.319  36.426   6.561  0.00  0.00    -0.293 OA
HETATM   22  C   UNK     0     -10.802  38.404   7.723  0.00  0.00     0.057 C 
BRANCH   5  23
HETATM   23  C   UNK     0     -10.453  43.336  11.254  0.00  0.00     0.084 C 
HETATM   24  C   UNK     0     -10.020  42.440  12.427  0.00  0.00     0.049 C 
BRANCH  23  25
HETATM   25  O   UNK     0      -9.265  43.901  10.686  0.00  0.00    -0.387 OA
HETATM   26  H   UNK     0      -8.684  44.201  11.404  0.00  0.00     0.210 HD
ENDBRANCH  23  25
BRANCH  23  27
HETATM   27  C   UNK     0     -11.351  44.500  11.756  0.00  0.00     0.152 C 
BRANCH  27  28
HETATM   28  O   UNK     0     -10.529  45.602  12.155  0.00  0.00    -0.393 OA
HETATM   29  H   UNK     0     -10.340  45.494  13.104  0.00  0.00     0.210 HD
ENDBRANCH  27  28
BRANCH  27  30
HETATM   30  C   UNK     0     -12.269  44.128  12.935  0.00  0.00     0.037 C 
BRANCH  30  31
HETATM   31  C   UNK     0     -13.743  44.476  12.653  0.00  0.00     0.040 C 
BRANCH  31  32
HETATM   32  C   UNK     0     -14.692  43.261  12.615  0.00  0.00     0.051 C 
HETATM   33  C   UNK     0     -14.774  42.718  11.184  0.00  0.00     0.045 C 
HETATM   34  C   UNK     0     -14.257  42.147  13.570  0.00  0.00     0.045 C 
BRANCH  32  35
HETATM   35  O   UNK     0     -15.999  43.698  12.994  0.00  0.00    -0.391 OA
HETATM   36  H   UNK     0     -16.638  43.038  12.680  0.00  0.00     0.210 HD
ENDBRANCH  32  35
ENDBRANCH  31  32
ENDBRANCH  30  31
ENDBRANCH  27  30
ENDBRANCH  23  27
ENDBRANCH   5  23
BRANCH  19  37
HETATM   37  O   UNK     0     -13.986  34.027   8.494  0.00  0.00    -0.393 OA
HETATM   38  H   UNK     0     -14.258  33.665   7.634  0.00  0.00     0.210 HD
ENDBRANCH  19  37
BRANCH  20  39
HETATM   39  O   UNK     0     -15.272  35.094  10.700  0.00  0.00    -0.393 OA
HETATM   40  H   UNK     0     -15.977  34.805  10.095  0.00  0.00     0.210 HD
ENDBRANCH  20  39
ENDBRANCH   1   3
TORSDOF 11
ENDMDL
MODEL 7
REMARK VINA RESULT:      -7.4      9.936     14.203
REMARK  11 active torsions:
REMARK  status: ('A' for Active; 'I' for Inactive)
REMARK    1  A    between atoms: O_1  and  C_9 
REMARK    2  A    between atoms: O_2  and  C_19 
REMARK    3  A    between atoms: O_3  and  C_26 
REMARK    4  A    between atoms: O_4  and  C_27 
REMARK    5  A    between atoms: O_6  and  C_28 
REMARK    6  A    between atoms: O_7  and  C_32 
REMARK    7  A    between atoms: C_10  and  C_19 
REMARK    8  A    between atoms: C_19  and  C_27 
REMARK    9  A    between atoms: C_27  and  C_30 
REMARK   10  A    between atoms: C_30  and  C_31 
REMARK   11  A    between atoms: C_31  and  C_32 
ROOT
HETATM    1  O   UNK     0     -19.119  35.214  19.482  0.00  0.00    -0.384 OA
HETATM    2  H   UNK     0     -18.572  34.479  19.154  0.00  0.00     0.211 HD
ENDROOT
BRANCH   1   3
HETATM    3  C   UNK     0     -18.312  35.993  20.394  0.00  0.00     0.089 C 
HETATM    4  C   UNK     0     -19.188  36.461  21.585  0.00  0.00    -0.002 C 
HETATM    5  C   UNK     0     -20.195  37.388  20.857  0.00  0.00     0.034 C 
HETATM    6  C   UNK     0     -19.836  35.224  22.233  0.00  0.00     0.014 C 
HETATM    7  C   UNK     0     -18.384  37.250  22.654  0.00  0.00     0.019 C 
HETATM    8  C   UNK     0     -19.324  38.132  19.819  0.00  0.00     0.012 C 
HETATM    9  C   UNK     0     -18.023  37.314  19.664  0.00  0.00     0.044 C 
HETATM   10  C   UNK     0     -18.767  34.236  22.727  0.00  0.00     0.011 C 
HETATM   11  C   UNK     0     -17.671  33.866  21.680  0.00  0.00     0.027 C 
HETATM   12  C   UNK     0     -16.482  33.047  22.318  0.00  0.00    -0.023 C 
HETATM   13  C   UNK     0     -17.201  35.069  20.846  0.00  0.00    -0.037 C 
HETATM   14  C   UNK     0     -15.334  32.879  21.282  0.00  0.00     0.071 C 
HETATM   15  C   UNK     0     -16.941  31.634  22.778  0.00  0.00     0.044 C 
HETATM   16  C   UNK     0     -15.901  33.763  23.567  0.00  0.00     0.016 C 
HETATM   17  C   UNK     0     -15.687  31.933  20.122  0.00  0.00     0.047 C 
HETATM   18  C   UNK     0     -14.898  34.221  20.725  0.00  0.00     0.154 C 
HETATM   19  C   UNK     0     -16.133  30.561  20.626  0.00  0.00     0.147 C 
HETATM   20  C   UNK     0     -17.289  30.693  21.619  0.00  0.00     0.147 C 
HETATM   21  O   UNK     0     -13.726  34.448  20.429  0.00  0.00    -0.293 OA
HETATM   22  C   UNK     0     -15.930  35.248  20.458  0.00  0.00     0.057 C 
BRANCH   5  23
HETATM   23  C   UNK     0     -21.006  38.334  21.733  0.00  0.00     0.084 C 
HETATM   24  C   UNK     0     -21.908  39.216  20.852  0.00  0.00     0.049 C 
BRANCH  23  25
HETATM   25  O   UNK     0     -21.864  37.550  22.573  0.00  0.00    -0.387 OA
HETATM   26  H   UNK     0     -21.340  37.185  23.305  0.00  0.00     0.210 HD
ENDBRANCH  23  25
BRANCH  23  27
HETATM   27  C   UNK     0     -20.104  39.209  22.645  0.00  0.00     0.152 C 
BRANCH  27  28
HETATM   28  O   UNK     0     -20.727  39.370  23.924  0.00  0.00    -0.393 OA
HETATM   29  H   UNK     0     -21.338  40.125  23.857  0.00  0.00     0.210 HD
ENDBRANCH  27  28
BRANCH  27  30
HETATM   30  C   UNK     0     -19.798  40.608  22.076  0.00  0.00     0.037 C 
BRANCH  30  31
HETATM   31  C   UNK     0     -18.284  40.864  21.957  0.00  0.00     0.040 C 
BRANCH  31  32
HETATM   32  C   UNK     0     -17.868  41.674  20.711  0.00  0.00     0.051 C 
HETATM   33  C   UNK     0     -16.701  40.971  20.009  0.00  0.00     0.045 C 
HETATM   34  C   UNK     0     -19.024  41.873  19.728  0.00  0.00     0.045 C 
BRANCH  32  35
HETATM   35  O   UNK     0     -17.413  42.958  21.141  0.00  0.00    -0.391 OA
HETATM   36  H   UNK     0     -18.015  43.272  21.836  0.00  0.00     0.210 HD
ENDBRANCH  32  35
ENDBRANCH  31  32
ENDBRANCH  30  31
ENDBRANCH  27  30
ENDBRANCH  23  27
ENDBRANCH   5  23
BRANCH  19  37
HETATM   37  O   UNK     0     -15.032  29.918  21.269  0.00  0.00    -0.393 OA
HETATM   38  H   UNK     0     -15.274  28.986  21.403  0.00  0.00     0.210 HD
ENDBRANCH  19  37
BRANCH  20  39
HETATM   39  O   UNK     0     -17.611  29.402  22.131  0.00  0.00    -0.393 OA
HETATM   40  H   UNK     0     -17.641  28.788  21.377  0.00  0.00     0.210 HD
ENDBRANCH  20  39
ENDBRANCH   1   3
TORSDOF 11
ENDMDL
MODEL 8
REMARK VINA RESULT:      -7.4     12.265     17.287
REMARK  11 active torsions:
REMARK  status: ('A' for Active; 'I' for Inactive)
REMARK    1  A    between atoms: O_1  and  C_9 
REMARK    2  A    between atoms: O_2  and  C_19 
REMARK    3  A    between atoms: O_3  and  C_26 
REMARK    4  A    between atoms: O_4  and  C_27 
REMARK    5  A    between atoms: O_6  and  C_28 
REMARK    6  A    between atoms: O_7  and  C_32 
REMARK    7  A    between atoms: C_10  and  C_19 
REMARK    8  A    between atoms: C_19  and  C_27 
REMARK    9  A    between atoms: C_27  and  C_30 
REMARK   10  A    between atoms: C_30  and  C_31 
REMARK   11  A    between atoms: C_31  and  C_32 
ROOT
HETATM    1  O   UNK     0     -20.716  54.343  10.726  0.00  0.00    -0.384 OA
HETATM    2  H   UNK     0     -20.400  53.531  10.292  0.00  0.00     0.211 HD
ENDROOT
BRANCH   1   3
HETATM    3  C   UNK     0     -21.638  53.955  11.770  0.00  0.00     0.089 C 
HETATM    4  C   UNK     0     -23.023  53.643  11.145  0.00  0.00    -0.002 C 
HETATM    5  C   UNK     0     -23.413  55.040  10.595  0.00  0.00     0.034 C 
HETATM    6  C   UNK     0     -22.838  52.574  10.053  0.00  0.00     0.014 C 
HETATM    7  C   UNK     0     -24.061  53.150  12.189  0.00  0.00     0.019 C 
HETATM    8  C   UNK     0     -22.938  56.014  11.698  0.00  0.00     0.012 C 
HETATM    9  C   UNK     0     -21.923  55.238  12.566  0.00  0.00     0.044 C 
HETATM   10  C   UNK     0     -22.227  51.289  10.637  0.00  0.00     0.011 C 
HETATM   11  C   UNK     0     -20.946  51.498  11.502  0.00  0.00     0.027 C 
HETATM   12  C   UNK     0     -20.513  50.184  12.263  0.00  0.00    -0.023 C 
HETATM   13  C   UNK     0     -21.029  52.730  12.418  0.00  0.00    -0.037 C 
HETATM   14  C   UNK     0     -19.359  50.499  13.256  0.00  0.00     0.071 C 
HETATM   15  C   UNK     0     -20.027  49.084  11.276  0.00  0.00     0.044 C 
HETATM   16  C   UNK     0     -21.692  49.578  13.072  0.00  0.00     0.016 C 
HETATM   17  C   UNK     0     -18.025  50.830  12.564  0.00  0.00     0.047 C 
HETATM   18  C   UNK     0     -19.736  51.629  14.194  0.00  0.00     0.154 C 
HETATM   19  C   UNK     0     -17.595  49.721  11.605  0.00  0.00     0.147 C 
HETATM   20  C   UNK     0     -18.698  49.417  10.590  0.00  0.00     0.147 C 
HETATM   21  O   UNK     0     -19.350  51.657  15.362  0.00  0.00    -0.293 OA
HETATM   22  C   UNK     0     -20.520  52.765  13.659  0.00  0.00     0.057 C 
BRANCH   5  23
HETATM   23  C   UNK     0     -24.876  55.240  10.221  0.00  0.00     0.084 C 
HETATM   24  C   UNK     0     -25.092  54.869   8.744  0.00  0.00     0.049 C 
BRANCH  23  25
HETATM   25  O   UNK     0     -25.672  54.344  11.008  0.00  0.00    -0.387 OA
HETATM   26  H   UNK     0     -25.391  53.431  10.826  0.00  0.00     0.210 HD
ENDBRANCH  23  25
BRANCH  23  27
HETATM   27  C   UNK     0     -25.360  56.689  10.499  0.00  0.00     0.152 C 
BRANCH  27  28
HETATM   28  O   UNK     0     -26.663  56.654  11.092  0.00  0.00    -0.393 OA
HETATM   29  H   UNK     0     -27.242  56.153  10.491  0.00  0.00     0.210 HD
ENDBRANCH  27  28
BRANCH  27  30
HETATM   30  C   UNK     0     -25.422  57.586   9.248  0.00  0.00     0.037 C 
BRANCH  30  31
HETATM   31  C   UNK     0     -24.165  58.466   9.106  0.00  0.00     0.040 C 
BRANCH  31  32
HETATM   32  C   UNK     0     -23.419  58.304   7.766  0.00  0.00     0.051 C 
HETATM   33  C   UNK     0     -22.314  57.253   7.919  0.00  0.00     0.045 C 
HETATM   34  C   UNK     0     -24.352  57.915   6.618  0.00  0.00     0.045 C 
BRANCH  32  35
HETATM   35  O   UNK     0     -22.798  59.550   7.443  0.00  0.00    -0.391 OA
HETATM   36  H   UNK     0     -22.857  59.672   6.481  0.00  0.00     0.210 HD
ENDBRANCH  32  35
ENDBRANCH  31  32
ENDBRANCH  30  31
ENDBRANCH  27  30
ENDBRANCH  23  27
ENDBRANCH   5  23
BRANCH  19  37
HETATM   37  O   UNK     0     -17.306  48.540  12.355  0.00  0.00    -0.393 OA
HETATM   38  H   UNK     0     -17.599  48.693  13.269  0.00  0.00     0.210 HD
ENDBRANCH  19  37
BRANCH  20  39
HETATM   39  O   UNK     0     -18.290  48.319   9.778  0.00  0.00    -0.393 OA
HETATM   40  H   UNK     0     -17.677  47.777  10.304  0.00  0.00     0.210 HD
ENDBRANCH  20  39
ENDBRANCH   1   3
TORSDOF 11
ENDMDL
MODEL 9
REMARK VINA RESULT:      -7.4      3.452      6.082
REMARK  11 active torsions:
REMARK  status: ('A' for Active; 'I' for Inactive)
REMARK    1  A    between atoms: O_1  and  C_9 
REMARK    2  A    between atoms: O_2  and  C_19 
REMARK    3  A    between atoms: O_3  and  C_26 
REMARK    4  A    between atoms: O_4  and  C_27 
REMARK    5  A    between atoms: O_6  and  C_28 
REMARK    6  A    between atoms: O_7  and  C_32 
REMARK    7  A    between atoms: C_10  and  C_19 
REMARK    8  A    between atoms: C_19  and  C_27 
REMARK    9  A    between atoms: C_27  and  C_30 
REMARK   10  A    between atoms: C_30  and  C_31 
REMARK   11  A    between atoms: C_31  and  C_32 
ROOT
HETATM    1  O   UNK     0     -11.162  39.150   6.899  0.00  0.00    -0.384 OA
HETATM    2  H   UNK     0     -11.127  38.515   6.163  0.00  0.00     0.211 HD
ENDROOT
BRANCH   1   3
HETATM    3  C   UNK     0     -12.165  38.691   7.833  0.00  0.00     0.089 C 
HETATM    4  C   UNK     0     -11.727  37.328   8.429  0.00  0.00    -0.002 C 
HETATM    5  C   UNK     0     -11.749  36.438   7.160  0.00  0.00     0.034 C 
HETATM    6  C   UNK     0     -10.329  37.491   9.052  0.00  0.00     0.014 C 
HETATM    7  C   UNK     0     -12.716  36.790   9.498  0.00  0.00     0.019 C 
HETATM    8  C   UNK     0     -13.009  36.912   6.400  0.00  0.00     0.012 C 
HETATM    9  C   UNK     0     -13.377  38.297   6.975  0.00  0.00     0.044 C 
HETATM   10  C   UNK     0     -10.338  38.564  10.153  0.00  0.00     0.011 C 
HETATM   11  C   UNK     0     -10.981  39.926   9.746  0.00  0.00     0.027 C 
HETATM   12  C   UNK     0     -11.175  40.891  10.981  0.00  0.00    -0.023 C 
HETATM   13  C   UNK     0     -12.252  39.764   8.897  0.00  0.00    -0.037 C 
HETATM   14  C   UNK     0     -11.995  42.142  10.556  0.00  0.00     0.071 C 
HETATM   15  C   UNK     0      -9.810  41.368  11.555  0.00  0.00     0.044 C 
HETATM   16  C   UNK     0     -11.933  40.190  12.140  0.00  0.00     0.016 C 
HETATM   17  C   UNK     0     -11.226  43.092   9.621  0.00  0.00     0.047 C 
HETATM   18  C   UNK     0     -13.305  41.743   9.904  0.00  0.00     0.154 C 
HETATM   19  C   UNK     0      -9.894  43.529  10.229  0.00  0.00     0.147 C 
HETATM   20  C   UNK     0      -9.049  42.317  10.622  0.00  0.00     0.147 C 
HETATM   21  O   UNK     0     -14.328  42.411  10.047  0.00  0.00    -0.293 OA
HETATM   22  C   UNK     0     -13.323  40.564   9.009  0.00  0.00     0.057 C 
BRANCH   5  23
HETATM   23  C   UNK     0     -11.728  34.931   7.385  0.00  0.00     0.084 C 
HETATM   24  C   UNK     0     -11.369  34.213   6.073  0.00  0.00     0.049 C 
BRANCH  23  25
HETATM   25  O   UNK     0     -10.697  34.629   8.334  0.00  0.00    -0.387 OA
HETATM   26  H   UNK     0     -10.830  33.725   8.666  0.00  0.00     0.210 HD
ENDBRANCH  23  25
BRANCH  23  27
HETATM   27  C   UNK     0     -13.075  34.402   7.948  0.00  0.00     0.152 C 
BRANCH  27  28
HETATM   28  O   UNK     0     -12.820  33.434   8.971  0.00  0.00    -0.393 OA
HETATM   29  H   UNK     0     -13.571  33.460   9.590  0.00  0.00     0.210 HD
ENDBRANCH  27  28
BRANCH  27  30
HETATM   30  C   UNK     0     -13.995  33.760   6.891  0.00  0.00     0.037 C 
BRANCH  30  31
HETATM   31  C   UNK     0     -15.484  34.000   7.200  0.00  0.00     0.040 C 
BRANCH  31  32
HETATM   32  C   UNK     0     -16.180  32.839   7.940  0.00  0.00     0.051 C 
HETATM   33  C   UNK     0     -16.711  33.336   9.289  0.00  0.00     0.045 C 
HETATM   34  C   UNK     0     -17.320  32.223   7.126  0.00  0.00     0.045 C 
BRANCH  32  35
HETATM   35  O   UNK     0     -15.207  31.824   8.199  0.00  0.00    -0.391 OA
HETATM   36  H   UNK     0     -14.588  32.166   8.865  0.00  0.00     0.210 HD
ENDBRANCH  32  35
ENDBRANCH  31  32
ENDBRANCH  30  31
ENDBRANCH  27  30
ENDBRANCH  23  27
ENDBRANCH   5  23
BRANCH  19  37
HETATM   37  O   UNK     0     -10.147  44.323  11.390  0.00  0.00    -0.393 OA
HETATM   38  H   UNK     0     -11.069  44.628  11.341  0.00  0.00     0.210 HD
ENDBRANCH  19  37
BRANCH  20  39
HETATM   39  O   UNK     0      -7.860  42.769  11.266  0.00  0.00    -0.393 OA
HETATM   40  H   UNK     0      -8.116  43.128  12.134  0.00  0.00     0.210 HD
ENDBRANCH  20  39
ENDBRANCH   1   3
TORSDOF 11
ENDMDL
