MODEL 1
REMARK VINA RESULT:   -11.780      0.000      0.000
REMARK INTER + INTRA:         -34.552
REMARK INTER:                 -32.096
REMARK INTRA:                  -2.456
REMARK UNBOUND:                -2.456
REMARK WARNING: 32 MAX_TORS EXCEEDED!!!
REMARK  43 active torsions:
REMARK  status: ('A' for Active; 'I' for Inactive)
REMARK    1  A    between atoms: O_2  and  C_27 
REMARK    2  A    between atoms: O_2  and  C_33 
REMARK    3  A    between atoms: O_3  and  C_28 
REMARK    4  A    between atoms: O_3  and  C_34 
REMARK    5  A    between atoms: O_4  and  C_29 
REMARK    6  A    between atoms: O_4  and  C_35 
REMARK    7  A    between atoms: O_5  and  C_31 
REMARK    8  A    between atoms: O_5  and  C_36 
REMARK    9  A    between atoms: O_6  and  C_32 
REMARK   10  A    between atoms: O_6  and  C_39 
REMARK   11  A    between atoms: O_12  and  C_51 
REMARK   12  A    between atoms: O_13  and  C_52 
REMARK   13  A    between atoms: O_13  and  C_99 
REMARK   14  A    between atoms: O_14  and  C_53 
REMARK   15  A    between atoms: O_15  and  C_54 
REMARK   16  A    between atoms: O_16  and  C_55 
REMARK   17  A    between atoms: O_17  and  C_56 
REMARK   18  A    between atoms: O_18  and  C_59 
REMARK   19  A    between atoms: O_19  and  C_60 
REMARK   20  A    between atoms: O_20  and  C_61 
REMARK   21  A    between atoms: O_21  and  C_62 
REMARK   22  A    between atoms: O_22  and  C_63 
REMARK   23  A    between atoms: O_23  and  C_64 
REMARK   24  A    between atoms: O_24  and  C_65 
REMARK   25  A    between atoms: O_24  and  C_85 
REMARK   26  A    between atoms: O_25  and  C_66 
REMARK   27  A    between atoms: O_26  and  C_67 
REMARK   28  A    between atoms: C_28  and  C_30 
REMARK   29  A    between atoms: C_29  and  C_31 
REMARK   30  A    between atoms: C_30  and  C_32 
REMARK   31  A    between atoms: C_33  and  C_37 
REMARK   32  A    between atoms: C_34  and  C_38 
REMARK   33  A    between atoms: C_35  and  C_40 
REMARK   34  A    between atoms: C_36  and  C_41 
REMARK   35  A    between atoms: C_39  and  C_42 
REMARK   36  A    between atoms: O_82  and  C_89 
REMARK   37  A    between atoms: O_83  and  C_90 
REMARK   38  A    between atoms: O_84  and  C_91 
REMARK   39  A    between atoms: C_85  and  C_86 
REMARK   40  A    between atoms: O_96  and  C_103 
REMARK   41  A    between atoms: O_97  and  C_104 
REMARK   42  A    between atoms: O_98  and  C_105 
REMARK   43  A    between atoms: C_99  and  C_100 
ROOT
HETATM    1  O   UNL     1     107.521 144.453 161.738  1.00  0.00    -0.348 OA
HETATM    2  C   UNL     1     106.635 145.490 161.765  1.00  0.00     0.201 A 
HETATM    3  C   UNL     1     106.463 144.325 162.575  1.00  0.00     0.282 A 
ENDROOT
BRANCH   2   4
HETATM    4  C   UNL     1     105.873 145.394 161.465  1.00  0.00     0.199 A 
HETATM    5  C   UNL     1     105.476 146.708 160.615  1.00  0.00     0.198 A 
HETATM    6  C   UNL     1     106.364 145.631 160.144  1.00  0.00     0.215 A 
BRANCH   4   7
HETATM    7  O   UNL     1     105.113 146.264 162.761  1.00  0.00    -0.306 OA
BRANCH   7   8
HETATM    8  C   UNL     1     104.047 146.417 163.531  1.00  0.00     0.294 C 
HETATM    9  O   UNL     1     103.315 147.398 163.463  1.00  0.00    -0.259 OA
BRANCH   8  10
HETATM   10  C   UNL     1     103.657 145.323 164.403  1.00  0.00     0.045 A 
HETATM   11  C   UNL     1     103.760 145.537 165.783  1.00  0.00     0.057 A 
HETATM   12  C   UNL     1     102.992 144.766 166.636  1.00  0.00     0.102 A 
HETATM   13  C   UNL     1     102.169 143.775 166.113  1.00  0.00     0.132 A 
HETATM   14  C   UNL     1     102.177 143.490 164.750  1.00  0.00     0.102 A 
HETATM   15  C   UNL     1     102.902 144.278 163.874  1.00  0.00     0.057 A 
BRANCH  12  16
HETATM   16  O   UNL     1     102.977 144.984 167.984  1.00  0.00    -0.358 OA
HETATM   17  H   UNL     1     102.435 144.279 168.386  1.00  0.00     0.217 HD
ENDBRANCH  12  16
BRANCH  13  18
HETATM   18  O   UNL     1     101.290 143.104 166.918  1.00  0.00    -0.356 OA
HETATM   19  H   UNL     1     100.693 142.654 166.285  1.00  0.00     0.218 HD
ENDBRANCH  13  18
BRANCH  14  20
HETATM   20  O   UNL     1     101.418 142.462 164.273  1.00  0.00    -0.358 OA
HETATM   21  H   UNL     1     100.560 142.882 164.067  1.00  0.00     0.217 HD
ENDBRANCH  14  20
ENDBRANCH   8  10
ENDBRANCH   7   8
ENDBRANCH   4   7
BRANCH   5  22
HETATM   22  O   UNL     1     104.141 146.656 160.049  1.00  0.00    -0.306 OA
BRANCH  22  23
HETATM   23  C   UNL     1     103.563 147.843 159.776  1.00  0.00     0.294 C 
HETATM   24  O   UNL     1     103.023 148.687 160.480  1.00  0.00    -0.259 OA
BRANCH  23  25
HETATM   25  C   UNL     1     103.620 148.063 158.388  1.00  0.00     0.045 C 
HETATM   26  C   UNL     1     103.703 149.411 158.150  1.00  0.00     0.058 C 
HETATM   27  C   UNL     1     102.818 149.860 157.223  1.00  0.00     0.116 C 
HETATM   28  C   UNL     1     102.289 148.976 156.265  1.00  0.00     0.133 C 
HETATM   29  C   UNL     1     102.417 147.599 156.443  1.00  0.00     0.102 C 
HETATM   30  C   UNL     1     102.959 147.134 157.602  1.00  0.00     0.057 C 
BRANCH  27  31
HETATM   31  O   UNL     1     102.299 151.156 157.363  1.00  0.00    -0.272 OA
BRANCH  31  32
HETATM   32  C   UNL     1     102.978 152.266 156.816  1.00  0.00     0.298 C 
HETATM   33  O   UNL     1     104.110 152.649 156.910  1.00  0.00    -0.259 OA
BRANCH  32  34
HETATM   34  C   UNL     1     102.005 152.657 155.795  1.00  0.00     0.045 C 
HETATM   35  C   UNL     1     102.476 153.285 154.643  1.00  0.00     0.057 C 
HETATM   36  C   UNL     1     101.704 154.320 154.151  1.00  0.00     0.102 C 
HETATM   37  C   UNL     1     100.608 154.786 154.878  1.00  0.00     0.132 C 
HETATM   38  C   UNL     1     100.156 154.103 155.994  1.00  0.00     0.102 C 
HETATM   39  C   UNL     1     100.751 152.925 156.365  1.00  0.00     0.057 C 
BRANCH  36  40
HETATM   40  O   UNL     1     102.051 154.992 153.018  1.00  0.00    -0.358 OA
HETATM   41  H   UNL     1     101.233 155.418 152.699  1.00  0.00     0.217 HD
ENDBRANCH  36  40
BRANCH  37  42
HETATM   42  O   UNL     1     100.013 155.969 154.549  1.00  0.00    -0.356 OA
HETATM   43  H   UNL     1      99.270 155.710 153.966  1.00  0.00     0.218 HD
ENDBRANCH  37  42
BRANCH  38  44
HETATM   44  O   UNL     1      99.277 154.675 156.864  1.00  0.00    -0.358 OA
HETATM   45  H   UNL     1      98.864 155.407 156.365  1.00  0.00     0.217 HD
ENDBRANCH  38  44
ENDBRANCH  32  34
ENDBRANCH  31  32
ENDBRANCH  27  31
BRANCH  28  46
HETATM   46  O   UNL     1     101.630 149.411 155.155  1.00  0.00    -0.356 OA
HETATM   47  H   UNL     1     101.464 150.363 155.282  1.00  0.00     0.218 HD
ENDBRANCH  28  46
BRANCH  29  48
HETATM   48  O   UNL     1     101.963 146.681 155.554  1.00  0.00    -0.358 OA
HETATM   49  H   UNL     1     101.108 146.387 155.910  1.00  0.00     0.217 HD
ENDBRANCH  29  48
ENDBRANCH  23  25
ENDBRANCH  22  23
ENDBRANCH   5  22
BRANCH   6  50
HETATM   50  O   UNL     1     106.518 145.824 158.508  1.00  0.00    -0.304 OA
BRANCH  50  51
HETATM   51  C   UNL     1     107.619 146.189 157.792  1.00  0.00     0.294 C 
HETATM   52  O   UNL     1     108.650 145.584 157.578  1.00  0.00    -0.259 OA
BRANCH  51  53
HETATM   53  C   UNL     1     107.321 147.534 157.304  1.00  0.00     0.045 A 
HETATM   54  C   UNL     1     107.817 148.587 158.074  1.00  0.00     0.057 A 
HETATM   55  C   UNL     1     107.547 149.883 157.695  1.00  0.00     0.102 A 
HETATM   56  C   UNL     1     106.828 150.130 156.537  1.00  0.00     0.132 A 
HETATM   57  C   UNL     1     106.372 149.076 155.748  1.00  0.00     0.102 A 
HETATM   58  C   UNL     1     106.597 147.758 156.128  1.00  0.00     0.057 A 
BRANCH  55  59
HETATM   59  O   UNL     1     108.033 150.901 158.454  1.00  0.00    -0.358 OA
HETATM   60  H   UNL     1     108.753 150.499 158.979  1.00  0.00     0.217 HD
ENDBRANCH  55  59
BRANCH  56  61
HETATM   61  O   UNL     1     106.625 151.425 156.148  1.00  0.00    -0.356 OA
HETATM   62  H   UNL     1     107.037 151.954 156.861  1.00  0.00     0.218 HD
ENDBRANCH  56  61
BRANCH  57  63
HETATM   63  O   UNL     1     105.751 149.394 154.573  1.00  0.00    -0.358 OA
HETATM   64  H   UNL     1     105.603 148.561 154.088  1.00  0.00     0.217 HD
ENDBRANCH  57  63
ENDBRANCH  51  53
ENDBRANCH  50  51
ENDBRANCH   6  50
ENDBRANCH   2   4
BRANCH   2  65
HETATM   65  C   UNL     1     106.762 147.088 162.152  1.00  0.00     0.216 C 
BRANCH  65  66
HETATM   66  O   UNL     1     108.161 147.343 162.249  1.00  0.00    -0.315 OA
BRANCH  66  67
HETATM   67  C   UNL     1     108.501 148.554 161.794  1.00  0.00     0.293 C 
HETATM   68  O   UNL     1     107.740 149.404 161.372  1.00  0.00    -0.259 OA
BRANCH  67  69
HETATM   69  C   UNL     1     109.969 148.631 161.819  1.00  0.00     0.045 C 
HETATM   70  C   UNL     1     110.712 148.608 163.014  1.00  0.00     0.057 C 
HETATM   71  C   UNL     1     112.095 148.591 162.956  1.00  0.00     0.102 C 
HETATM   72  C   UNL     1     112.730 148.429 161.737  1.00  0.00     0.133 C 
HETATM   73  C   UNL     1     111.959 148.322 160.577  1.00  0.00     0.116 C 
HETATM   74  C   UNL     1     110.597 148.587 160.585  1.00  0.00     0.058 C 
BRANCH  71  75
HETATM   75  O   UNL     1     112.830 148.626 164.107  1.00  0.00    -0.358 OA
HETATM   76  H   UNL     1     113.689 148.228 163.857  1.00  0.00     0.217 HD
ENDBRANCH  71  75
BRANCH  72  77
HETATM   77  O   UNL     1     114.086 148.269 161.749  1.00  0.00    -0.356 OA
HETATM   78  H   UNL     1     114.490 149.159 161.760  1.00  0.00     0.218 HD
ENDBRANCH  72  77
BRANCH  73  79
HETATM   79  O   UNL     1     112.450 147.689 159.437  1.00  0.00    -0.272 OA
BRANCH  79  80
HETATM   80  C   UNL     1     112.735 148.717 158.551  1.00  0.00     0.298 C 
HETATM   81  O   UNL     1     113.673 149.485 158.707  1.00  0.00    -0.259 OA
BRANCH  80  82
HETATM   82  C   UNL     1     111.799 148.826 157.394  1.00  0.00     0.045 A 
HETATM   83  C   UNL     1     111.379 147.650 156.754  1.00  0.00     0.057 A 
HETATM   84  C   UNL     1     110.542 147.733 155.646  1.00  0.00     0.102 A 
HETATM   85  C   UNL     1     110.141 148.970 155.161  1.00  0.00     0.132 A 
HETATM   86  C   UNL     1     110.566 150.134 155.795  1.00  0.00     0.102 A 
HETATM   87  C   UNL     1     111.378 150.078 156.928  1.00  0.00     0.057 A 
BRANCH  84  88
HETATM   88  O   UNL     1     110.159 146.569 155.058  1.00  0.00    -0.358 OA
HETATM   89  H   UNL     1     109.355 146.223 155.500  1.00  0.00     0.217 HD
ENDBRANCH  84  88
BRANCH  85  90
HETATM   90  O   UNL     1     109.343 149.042 154.053  1.00  0.00    -0.356 OA
HETATM   91  H   UNL     1     109.709 148.398 153.415  1.00  0.00     0.218 HD
ENDBRANCH  85  90
BRANCH  86  92
HETATM   92  O   UNL     1     110.178 151.324 155.244  1.00  0.00    -0.358 OA
HETATM   93  H   UNL     1     109.706 151.128 154.414  1.00  0.00     0.217 HD
ENDBRANCH  86  92
ENDBRANCH  80  82
ENDBRANCH  79  80
ENDBRANCH  73  79
ENDBRANCH  67  69
ENDBRANCH  66  67
ENDBRANCH  65  66
ENDBRANCH   2  65
BRANCH   3  94
HETATM   94  O   UNL     1     107.188 143.475 163.608  1.00  0.00    -0.285 OA
BRANCH  94  95
HETATM   95  C   UNL     1     106.440 142.641 164.381  1.00  0.00     0.295 C 
HETATM   96  O   UNL     1     105.522 141.920 164.027  1.00  0.00    -0.259 OA
BRANCH  95  97
HETATM   97  C   UNL     1     106.911 142.747 165.755  1.00  0.00     0.045 A 
HETATM   98  C   UNL     1     106.027 142.479 166.803  1.00  0.00     0.057 A 
HETATM   99  C   UNL     1     106.518 142.476 168.093  1.00  0.00     0.102 A 
HETATM  100  C   UNL     1     107.850 142.796 168.333  1.00  0.00     0.132 A 
HETATM  101  C   UNL     1     108.707 143.118 167.284  1.00  0.00     0.102 A 
HETATM  102  C   UNL     1     108.247 143.091 165.978  1.00  0.00     0.057 A 
BRANCH  99 103
HETATM  103  O   UNL     1     105.692 142.124 169.119  1.00  0.00    -0.358 OA
HETATM  104  H   UNL     1     106.156 142.453 169.917  1.00  0.00     0.217 HD
ENDBRANCH  99 103
BRANCH 100 105
HETATM  105  O   UNL     1     108.307 142.784 169.622  1.00  0.00    -0.356 OA
HETATM  106  H   UNL     1     109.127 142.250 169.575  1.00  0.00     0.218 HD
ENDBRANCH 100 105
BRANCH 101 107
HETATM  107  O   UNL     1     110.002 143.436 167.579  1.00  0.00    -0.358 OA
HETATM  108  H   UNL     1     110.510 142.605 167.625  1.00  0.00     0.217 HD
ENDBRANCH 101 107
ENDBRANCH  95  97
ENDBRANCH  94  95
ENDBRANCH   3  94
TORSDOF 43
ENDMDL
MODEL 2
REMARK VINA RESULT:   -11.498      1.296      2.172
REMARK INTER + INTRA:         -33.784
REMARK INTER:                 -31.374
REMARK INTRA:                  -2.410
REMARK UNBOUND:                -2.456
REMARK WARNING: 32 MAX_TORS EXCEEDED!!!
REMARK  43 active torsions:
REMARK  status: ('A' for Active; 'I' for Inactive)
REMARK    1  A    between atoms: O_2  and  C_27 
REMARK    2  A    between atoms: O_2  and  C_33 
REMARK    3  A    between atoms: O_3  and  C_28 
REMARK    4  A    between atoms: O_3  and  C_34 
REMARK    5  A    between atoms: O_4  and  C_29 
REMARK    6  A    between atoms: O_4  and  C_35 
REMARK    7  A    between atoms: O_5  and  C_31 
REMARK    8  A    between atoms: O_5  and  C_36 
REMARK    9  A    between atoms: O_6  and  C_32 
REMARK   10  A    between atoms: O_6  and  C_39 
REMARK   11  A    between atoms: O_12  and  C_51 
REMARK   12  A    between atoms: O_13  and  C_52 
REMARK   13  A    between atoms: O_13  and  C_99 
REMARK   14  A    between atoms: O_14  and  C_53 
REMARK   15  A    between atoms: O_15  and  C_54 
REMARK   16  A    between atoms: O_16  and  C_55 
REMARK   17  A    between atoms: O_17  and  C_56 
REMARK   18  A    between atoms: O_18  and  C_59 
REMARK   19  A    between atoms: O_19  and  C_60 
REMARK   20  A    between atoms: O_20  and  C_61 
REMARK   21  A    between atoms: O_21  and  C_62 
REMARK   22  A    between atoms: O_22  and  C_63 
REMARK   23  A    between atoms: O_23  and  C_64 
REMARK   24  A    between atoms: O_24  and  C_65 
REMARK   25  A    between atoms: O_24  and  C_85 
REMARK   26  A    between atoms: O_25  and  C_66 
REMARK   27  A    between atoms: O_26  and  C_67 
REMARK   28  A    between atoms: C_28  and  C_30 
REMARK   29  A    between atoms: C_29  and  C_31 
REMARK   30  A    between atoms: C_30  and  C_32 
REMARK   31  A    between atoms: C_33  and  C_37 
REMARK   32  A    between atoms: C_34  and  C_38 
REMARK   33  A    between atoms: C_35  and  C_40 
REMARK   34  A    between atoms: C_36  and  C_41 
REMARK   35  A    between atoms: C_39  and  C_42 
REMARK   36  A    between atoms: O_82  and  C_89 
REMARK   37  A    between atoms: O_83  and  C_90 
REMARK   38  A    between atoms: O_84  and  C_91 
REMARK   39  A    between atoms: C_85  and  C_86 
REMARK   40  A    between atoms: O_96  and  C_103 
REMARK   41  A    between atoms: O_97  and  C_104 
REMARK   42  A    between atoms: O_98  and  C_105 
REMARK   43  A    between atoms: C_99  and  C_100 
ROOT
HETATM    1  O   UNL     1     107.732 144.241 161.890  1.00  0.00    -0.348 OA
HETATM    2  C   UNL     1     106.826 145.254 162.015  1.00  0.00     0.201 A 
HETATM    3  C   UNL     1     106.707 144.035 162.752  1.00  0.00     0.282 A 
ENDROOT
BRANCH   2   4
HETATM    4  C   UNL     1     106.056 145.160 161.735  1.00  0.00     0.199 A 
HETATM    5  C   UNL     1     105.600 146.518 160.990  1.00  0.00     0.198 A 
HETATM    6  C   UNL     1     106.494 145.497 160.417  1.00  0.00     0.215 A 
BRANCH   4   7
HETATM    7  O   UNL     1     105.324 145.921 163.112  1.00  0.00    -0.306 OA
BRANCH   7   8
HETATM    8  C   UNL     1     104.212 146.210 163.771  1.00  0.00     0.294 C 
HETATM    9  O   UNL     1     103.691 147.319 163.740  1.00  0.00    -0.259 OA
BRANCH   8  10
HETATM   10  C   UNL     1     103.512 145.137 164.456  1.00  0.00     0.045 A 
HETATM   11  C   UNL     1     103.200 143.996 163.706  1.00  0.00     0.057 A 
HETATM   12  C   UNL     1     102.982 142.802 164.370  1.00  0.00     0.102 A 
HETATM   13  C   UNL     1     103.038 142.768 165.759  1.00  0.00     0.132 A 
HETATM   14  C   UNL     1     103.221 143.937 166.492  1.00  0.00     0.102 A 
HETATM   15  C   UNL     1     103.487 145.133 165.849  1.00  0.00     0.057 A 
BRANCH  12  16
HETATM   16  O   UNL     1     102.763 141.636 163.696  1.00  0.00    -0.358 OA
HETATM   17  H   UNL     1     102.055 141.805 163.046  1.00  0.00     0.217 HD
ENDBRANCH  12  16
BRANCH  13  18
HETATM   18  O   UNL     1     102.977 141.577 166.428  1.00  0.00    -0.356 OA
HETATM   19  H   UNL     1     102.023 141.351 166.413  1.00  0.00     0.218 HD
ENDBRANCH  13  18
BRANCH  14  20
HETATM   20  O   UNL     1     103.196 143.888 167.855  1.00  0.00    -0.358 OA
HETATM   21  H   UNL     1     103.641 143.044 168.067  1.00  0.00     0.217 HD
ENDBRANCH  14  20
ENDBRANCH   8  10
ENDBRANCH   7   8
ENDBRANCH   4   7
BRANCH   5  22
HETATM   22  O   UNL     1     104.248 146.471 160.468  1.00  0.00    -0.306 OA
BRANCH  22  23
HETATM   23  C   UNL     1     103.972 147.313 159.451  1.00  0.00     0.294 C 
HETATM   24  O   UNL     1     104.468 148.374 159.092  1.00  0.00    -0.259 OA
BRANCH  23  25
HETATM   25  C   UNL     1     102.878 146.805 158.729  1.00  0.00     0.045 C 
HETATM   26  C   UNL     1     102.646 147.608 157.642  1.00  0.00     0.058 C 
HETATM   27  C   UNL     1     101.347 147.978 157.500  1.00  0.00     0.116 C 
HETATM   28  C   UNL     1     100.324 147.197 158.070  1.00  0.00     0.133 C 
HETATM   29  C   UNL     1     100.636 146.234 159.028  1.00  0.00     0.102 C 
HETATM   30  C   UNL     1     101.918 146.142 159.475  1.00  0.00     0.057 C 
BRANCH  27  31
HETATM   31  O   UNL     1     101.064 149.240 156.956  1.00  0.00    -0.272 OA
BRANCH  31  32
HETATM   32  C   UNL     1     100.473 149.357 155.679  1.00  0.00     0.298 C 
HETATM   33  O   UNL     1      99.498 148.860 155.190  1.00  0.00    -0.259 OA
BRANCH  32  34
HETATM   34  C   UNL     1     101.186 150.541 155.199  1.00  0.00     0.045 C 
HETATM   35  C   UNL     1     102.312 150.353 154.398  1.00  0.00     0.057 C 
HETATM   36  C   UNL     1     103.374 151.207 154.627  1.00  0.00     0.102 C 
HETATM   37  C   UNL     1     103.347 152.089 155.708  1.00  0.00     0.132 C 
HETATM   38  C   UNL     1     102.190 152.268 156.446  1.00  0.00     0.102 C 
HETATM   39  C   UNL     1     101.038 151.618 156.087  1.00  0.00     0.057 C 
BRANCH  36  40
HETATM   40  O   UNL     1     104.519 151.133 153.892  1.00  0.00    -0.358 OA
HETATM   41  H   UNL     1     104.779 150.193 153.897  1.00  0.00     0.217 HD
ENDBRANCH  36  40
BRANCH  37  42
HETATM   42  O   UNL     1     104.483 152.730 156.107  1.00  0.00    -0.356 OA
HETATM   43  H   UNL     1     105.082 152.663 155.334  1.00  0.00     0.218 HD
ENDBRANCH  37  42
BRANCH  38  44
HETATM   44  O   UNL     1     102.213 152.904 157.651  1.00  0.00    -0.358 OA
HETATM   45  H   UNL     1     101.295 152.852 157.984  1.00  0.00     0.217 HD
ENDBRANCH  38  44
ENDBRANCH  32  34
ENDBRANCH  31  32
ENDBRANCH  27  31
BRANCH  28  46
HETATM   46  O   UNL     1      99.013 147.353 157.732  1.00  0.00    -0.356 OA
HETATM   47  H   UNL     1      98.737 146.529 157.293  1.00  0.00     0.218 HD
ENDBRANCH  28  46
BRANCH  29  48
HETATM   48  O   UNL     1      99.715 145.420 159.603  1.00  0.00    -0.358 OA
HETATM   49  H   UNL     1      99.137 145.139 158.873  1.00  0.00     0.217 HD
ENDBRANCH  29  48
ENDBRANCH  23  25
ENDBRANCH  22  23
ENDBRANCH   5  22
BRANCH   6  50
HETATM   50  O   UNL     1     106.586 145.804 158.795  1.00  0.00    -0.304 OA
BRANCH  50  51
HETATM   51  C   UNL     1     107.687 146.079 158.039  1.00  0.00     0.294 C 
HETATM   52  O   UNL     1     108.656 145.392 157.789  1.00  0.00    -0.259 OA
BRANCH  51  53
HETATM   53  C   UNL     1     107.482 147.445 157.560  1.00  0.00     0.045 A 
HETATM   54  C   UNL     1     106.823 147.571 156.337  1.00  0.00     0.057 A 
HETATM   55  C   UNL     1     106.624 148.826 155.806  1.00  0.00     0.102 A 
HETATM   56  C   UNL     1     107.038 149.947 156.505  1.00  0.00     0.132 A 
HETATM   57  C   UNL     1     107.657 149.818 157.748  1.00  0.00     0.102 A 
HETATM   58  C   UNL     1     107.905 148.562 158.289  1.00  0.00     0.057 A 
BRANCH  55  59
HETATM   59  O   UNL     1     105.984 148.936 154.612  1.00  0.00    -0.358 OA
HETATM   60  H   UNL     1     105.064 149.173 154.842  1.00  0.00     0.217 HD
ENDBRANCH  55  59
BRANCH  56  61
HETATM   61  O   UNL     1     106.776 151.185 155.988  1.00  0.00    -0.356 OA
HETATM   62  H   UNL     1     106.175 151.593 156.644  1.00  0.00     0.218 HD
ENDBRANCH  56  61
BRANCH  57  63
HETATM   63  O   UNL     1     107.954 150.968 158.423  1.00  0.00    -0.358 OA
HETATM   64  H   UNL     1     108.925 151.019 158.496  1.00  0.00     0.217 HD
ENDBRANCH  57  63
ENDBRANCH  51  53
ENDBRANCH  50  51
ENDBRANCH   6  50
ENDBRANCH   2   4
BRANCH   2  65
HETATM   65  C   UNL     1     106.933 146.826 162.501  1.00  0.00     0.216 C 
BRANCH  65  66
HETATM   66  O   UNL     1     108.327 147.126 162.505  1.00  0.00    -0.315 OA
BRANCH  66  67
HETATM   67  C   UNL     1     108.589 148.378 162.115  1.00  0.00     0.293 C 
HETATM   68  O   UNL     1     107.770 149.227 161.819  1.00  0.00    -0.259 OA
BRANCH  67  69
HETATM   69  C   UNL     1     110.051 148.507 162.028  1.00  0.00     0.045 C 
HETATM   70  C   UNL     1     110.883 148.526 163.164  1.00  0.00     0.057 C 
HETATM   71  C   UNL     1     112.257 148.558 163.002  1.00  0.00     0.102 C 
HETATM   72  C   UNL     1     112.804 148.403 161.739  1.00  0.00     0.133 C 
HETATM   73  C   UNL     1     111.951 148.253 160.642  1.00  0.00     0.116 C 
HETATM   74  C   UNL     1     110.586 148.470 160.751  1.00  0.00     0.058 C 
BRANCH  71  75
HETATM   75  O   UNL     1     113.075 148.633 164.093  1.00  0.00    -0.358 OA
HETATM   76  H   UNL     1     113.729 149.323 163.858  1.00  0.00     0.217 HD
ENDBRANCH  71  75
BRANCH  72  77
HETATM   77  O   UNL     1     114.162 148.291 161.650  1.00  0.00    -0.356 OA
HETATM   78  H   UNL     1     114.387 147.343 161.722  1.00  0.00     0.218 HD
ENDBRANCH  72  77
BRANCH  73  79
HETATM   79  O   UNL     1     112.378 147.625 159.475  1.00  0.00    -0.272 OA
BRANCH  79  80
HETATM   80  C   UNL     1     112.665 148.658 158.595  1.00  0.00     0.298 C 
HETATM   81  O   UNL     1     113.562 149.464 158.791  1.00  0.00    -0.259 OA
BRANCH  80  82
HETATM   82  C   UNL     1     111.784 148.720 157.392  1.00  0.00     0.045 A 
HETATM   83  C   UNL     1     111.318 147.520 156.835  1.00  0.00     0.057 A 
HETATM   84  C   UNL     1     110.532 147.556 155.687  1.00  0.00     0.102 A 
HETATM   85  C   UNL     1     110.229 148.767 155.083  1.00  0.00     0.132 A 
HETATM   86  C   UNL     1     110.699 149.955 155.635  1.00  0.00     0.102 A 
HETATM   87  C   UNL     1     111.461 149.950 156.805  1.00  0.00     0.057 A 
BRANCH  84  88
HETATM   88  O   UNL     1     110.102 146.369 155.183  1.00  0.00    -0.358 OA
HETATM   89  H   UNL     1     109.537 146.528 154.397  1.00  0.00     0.217 HD
ENDBRANCH  84  88
BRANCH  85  90
HETATM   90  O   UNL     1     109.481 148.790 153.939  1.00  0.00    -0.356 OA
HETATM   91  H   UNL     1     110.121 148.836 153.200  1.00  0.00     0.218 HD
ENDBRANCH  85  90
BRANCH  86  92
HETATM   92  O   UNL     1     110.408 151.113 154.969  1.00  0.00    -0.358 OA
HETATM   93  H   UNL     1     110.827 151.848 155.454  1.00  0.00     0.217 HD
ENDBRANCH  86  92
ENDBRANCH  80  82
ENDBRANCH  79  80
ENDBRANCH  73  79
ENDBRANCH  67  69
ENDBRANCH  66  67
ENDBRANCH  65  66
ENDBRANCH   2  65
BRANCH   3  94
HETATM   94  O   UNL     1     107.486 143.137 163.703  1.00  0.00    -0.285 OA
BRANCH  94  95
HETATM   95  C   UNL     1     106.776 142.311 164.518  1.00  0.00     0.295 C 
HETATM   96  O   UNL     1     105.888 141.536 164.204  1.00  0.00    -0.259 OA
BRANCH  95  97
HETATM   97  C   UNL     1     107.246 142.501 165.883  1.00  0.00     0.045 A 
HETATM   98  C   UNL     1     106.357 142.320 166.945  1.00  0.00     0.057 A 
HETATM   99  C   UNL     1     106.845 142.395 168.233  1.00  0.00     0.102 A 
HETATM  100  C   UNL     1     108.182 142.709 168.455  1.00  0.00     0.132 A 
HETATM  101  C   UNL     1     109.046 142.946 167.389  1.00  0.00     0.102 A 
HETATM  102  C   UNL     1     108.587 142.838 166.086  1.00  0.00     0.057 A 
BRANCH  99 103
HETATM  103  O   UNL     1     106.012 142.127 169.279  1.00  0.00    -0.358 OA
HETATM  104  H   UNL     1     106.113 141.162 169.416  1.00  0.00     0.217 HD
ENDBRANCH  99 103
BRANCH 100 105
HETATM  105  O   UNL     1     108.637 142.778 169.743  1.00  0.00    -0.356 OA
HETATM  106  H   UNL     1     107.942 142.322 170.262  1.00  0.00     0.218 HD
ENDBRANCH 100 105
BRANCH 101 107
HETATM  107  O   UNL     1     110.345 143.262 167.665  1.00  0.00    -0.358 OA
HETATM  108  H   UNL     1     110.905 142.532 167.343  1.00  0.00     0.217 HD
ENDBRANCH 101 107
ENDBRANCH  95  97
ENDBRANCH  94  95
ENDBRANCH   3  94
TORSDOF 43
ENDMDL
MODEL 3
REMARK VINA RESULT:   -11.339      1.581      2.252
REMARK INTER + INTRA:         -33.349
REMARK INTER:                 -31.197
REMARK INTRA:                  -2.152
REMARK UNBOUND:                -2.456
REMARK WARNING: 32 MAX_TORS EXCEEDED!!!
REMARK  43 active torsions:
REMARK  status: ('A' for Active; 'I' for Inactive)
REMARK    1  A    between atoms: O_2  and  C_27 
REMARK    2  A    between atoms: O_2  and  C_33 
REMARK    3  A    between atoms: O_3  and  C_28 
REMARK    4  A    between atoms: O_3  and  C_34 
REMARK    5  A    between atoms: O_4  and  C_29 
REMARK    6  A    between atoms: O_4  and  C_35 
REMARK    7  A    between atoms: O_5  and  C_31 
REMARK    8  A    between atoms: O_5  and  C_36 
REMARK    9  A    between atoms: O_6  and  C_32 
REMARK   10  A    between atoms: O_6  and  C_39 
REMARK   11  A    between atoms: O_12  and  C_51 
REMARK   12  A    between atoms: O_13  and  C_52 
REMARK   13  A    between atoms: O_13  and  C_99 
REMARK   14  A    between atoms: O_14  and  C_53 
REMARK   15  A    between atoms: O_15  and  C_54 
REMARK   16  A    between atoms: O_16  and  C_55 
REMARK   17  A    between atoms: O_17  and  C_56 
REMARK   18  A    between atoms: O_18  and  C_59 
REMARK   19  A    between atoms: O_19  and  C_60 
REMARK   20  A    between atoms: O_20  and  C_61 
REMARK   21  A    between atoms: O_21  and  C_62 
REMARK   22  A    between atoms: O_22  and  C_63 
REMARK   23  A    between atoms: O_23  and  C_64 
REMARK   24  A    between atoms: O_24  and  C_65 
REMARK   25  A    between atoms: O_24  and  C_85 
REMARK   26  A    between atoms: O_25  and  C_66 
REMARK   27  A    between atoms: O_26  and  C_67 
REMARK   28  A    between atoms: C_28  and  C_30 
REMARK   29  A    between atoms: C_29  and  C_31 
REMARK   30  A    between atoms: C_30  and  C_32 
REMARK   31  A    between atoms: C_33  and  C_37 
REMARK   32  A    between atoms: C_34  and  C_38 
REMARK   33  A    between atoms: C_35  and  C_40 
REMARK   34  A    between atoms: C_36  and  C_41 
REMARK   35  A    between atoms: C_39  and  C_42 
REMARK   36  A    between atoms: O_82  and  C_89 
REMARK   37  A    between atoms: O_83  and  C_90 
REMARK   38  A    between atoms: O_84  and  C_91 
REMARK   39  A    between atoms: C_85  and  C_86 
REMARK   40  A    between atoms: O_96  and  C_103 
REMARK   41  A    between atoms: O_97  and  C_104 
REMARK   42  A    between atoms: O_98  and  C_105 
REMARK   43  A    between atoms: C_99  and  C_100 
ROOT
HETATM    1  O   UNL     1     107.976 144.235 161.882  1.00  0.00    -0.348 OA
HETATM    2  C   UNL     1     107.034 145.209 162.038  1.00  0.00     0.201 A 
HETATM    3  C   UNL     1     106.997 143.994 162.787  1.00  0.00     0.282 A 
ENDROOT
BRANCH   2   4
HETATM    4  C   UNL     1     106.257 145.080 161.791  1.00  0.00     0.199 A 
HETATM    5  C   UNL     1     105.714 146.411 161.055  1.00  0.00     0.198 A 
HETATM    6  C   UNL     1     106.626 145.423 160.453  1.00  0.00     0.215 A 
BRANCH   4   7
HETATM    7  O   UNL     1     105.551 145.824 163.191  1.00  0.00    -0.306 OA
BRANCH   7   8
HETATM    8  C   UNL     1     104.495 145.945 163.980  1.00  0.00     0.294 C 
HETATM    9  O   UNL     1     103.793 146.949 163.999  1.00  0.00    -0.259 OA
BRANCH   8  10
HETATM   10  C   UNL     1     104.077 144.795 164.763  1.00  0.00     0.045 A 
HETATM   11  C   UNL     1     103.687 145.031 166.088  1.00  0.00     0.057 A 
HETATM   12  C   UNL     1     102.860 144.114 166.711  1.00  0.00     0.102 A 
HETATM   13  C   UNL     1     102.468 142.967 166.030  1.00  0.00     0.132 A 
HETATM   14  C   UNL     1     102.970 142.687 164.763  1.00  0.00     0.102 A 
HETATM   15  C   UNL     1     103.761 143.610 164.102  1.00  0.00     0.057 A 
BRANCH  12  16
HETATM   16  O   UNL     1     102.370 144.328 167.967  1.00  0.00    -0.358 OA
HETATM   17  H   UNL     1     102.018 143.477 168.290  1.00  0.00     0.217 HD
ENDBRANCH  12  16
BRANCH  13  18
HETATM   18  O   UNL     1     101.533 142.125 166.567  1.00  0.00    -0.356 OA
HETATM   19  H   UNL     1     101.760 141.253 166.182  1.00  0.00     0.218 HD
ENDBRANCH  13  18
BRANCH  14  20
HETATM   20  O   UNL     1     102.630 141.518 164.147  1.00  0.00    -0.358 OA
HETATM   21  H   UNL     1     102.154 141.807 163.344  1.00  0.00     0.217 HD
ENDBRANCH  14  20
ENDBRANCH   8  10
ENDBRANCH   7   8
ENDBRANCH   4   7
BRANCH   5  22
HETATM   22  O   UNL     1     104.344 146.303 160.590  1.00  0.00    -0.306 OA
BRANCH  22  23
HETATM   23  C   UNL     1     103.972 147.168 159.625  1.00  0.00     0.294 C 
HETATM   24  O   UNL     1     104.408 148.257 159.272  1.00  0.00    -0.259 OA
BRANCH  23  25
HETATM   25  C   UNL     1     102.849 146.647 158.961  1.00  0.00     0.045 C 
HETATM   26  C   UNL     1     102.565 147.433 157.873  1.00  0.00     0.058 C 
HETATM   27  C   UNL     1     101.260 147.798 157.785  1.00  0.00     0.116 C 
HETATM   28  C   UNL     1     100.266 147.023 158.412  1.00  0.00     0.133 C 
HETATM   29  C   UNL     1     100.624 146.074 159.369  1.00  0.00     0.102 C 
HETATM   30  C   UNL     1     101.925 145.993 159.759  1.00  0.00     0.057 C 
BRANCH  27  31
HETATM   31  O   UNL     1     100.949 149.051 157.236  1.00  0.00    -0.272 OA
BRANCH  31  32
HETATM   32  C   UNL     1     101.511 150.230 157.769  1.00  0.00     0.298 C 
HETATM   33  O   UNL     1     102.102 150.456 158.787  1.00  0.00    -0.259 OA
BRANCH  32  34
HETATM   34  C   UNL     1     101.488 151.066 156.568  1.00  0.00     0.045 C 
HETATM   35  C   UNL     1     100.887 150.551 155.420  1.00  0.00     0.057 C 
HETATM   36  C   UNL     1     101.517 150.832 154.222  1.00  0.00     0.102 C 
HETATM   37  C   UNL     1     102.763 151.459 154.213  1.00  0.00     0.132 C 
HETATM   38  C   UNL     1     103.298 151.988 155.376  1.00  0.00     0.102 C 
HETATM   39  C   UNL     1     102.579 151.948 156.542  1.00  0.00     0.057 C 
BRANCH  36  40
HETATM   40  O   UNL     1     101.011 150.402 153.033  1.00  0.00    -0.358 OA
HETATM   41  H   UNL     1     101.457 150.932 152.345  1.00  0.00     0.217 HD
ENDBRANCH  36  40
BRANCH  37  42
HETATM   42  O   UNL     1     103.514 151.491 153.075  1.00  0.00    -0.356 OA
HETATM   43  H   UNL     1     104.433 151.360 153.388  1.00  0.00     0.218 HD
ENDBRANCH  37  42
BRANCH  38  44
HETATM   44  O   UNL     1     104.608 152.355 155.447  1.00  0.00    -0.358 OA
HETATM   45  H   UNL     1     104.595 153.305 155.676  1.00  0.00     0.217 HD
ENDBRANCH  38  44
ENDBRANCH  32  34
ENDBRANCH  31  32
ENDBRANCH  27  31
BRANCH  28  46
HETATM   46  O   UNL     1      98.941 147.171 158.131  1.00  0.00    -0.356 OA
HETATM   47  H   UNL     1      98.457 146.993 158.958  1.00  0.00     0.218 HD
ENDBRANCH  28  46
BRANCH  29  48
HETATM   48  O   UNL     1      99.732 145.267 159.996  1.00  0.00    -0.358 OA
HETATM   49  H   UNL     1      99.486 145.746 160.805  1.00  0.00     0.217 HD
ENDBRANCH  29  48
ENDBRANCH  23  25
ENDBRANCH  22  23
ENDBRANCH   5  22
BRANCH   6  50
HETATM   50  O   UNL     1     106.638 145.718 158.826  1.00  0.00    -0.304 OA
BRANCH  50  51
HETATM   51  C   UNL     1     107.688 146.063 158.028  1.00  0.00     0.294 C 
HETATM   52  O   UNL     1     108.628 145.398 157.641  1.00  0.00    -0.259 OA
BRANCH  51  53
HETATM   53  C   UNL     1     107.471 147.472 157.709  1.00  0.00     0.045 A 
HETATM   54  C   UNL     1     108.107 148.392 158.544  1.00  0.00     0.057 A 
HETATM   55  C   UNL     1     107.922 149.739 158.326  1.00  0.00     0.102 A 
HETATM   56  C   UNL     1     107.147 150.167 157.261  1.00  0.00     0.132 A 
HETATM   57  C   UNL     1     106.551 149.245 156.403  1.00  0.00     0.102 A 
HETATM   58  C   UNL     1     106.689 147.880 156.623  1.00  0.00     0.057 A 
BRANCH  55  59
HETATM   59  O   UNL     1     108.543 150.625 159.148  1.00  0.00    -0.358 OA
HETATM   60  H   UNL     1     108.782 150.106 159.941  1.00  0.00     0.217 HD
ENDBRANCH  55  59
BRANCH  56  61
HETATM   61  O   UNL     1     107.028 151.509 157.027  1.00  0.00    -0.356 OA
HETATM   62  H   UNL     1     106.404 151.563 156.275  1.00  0.00     0.218 HD
ENDBRANCH  56  61
BRANCH  57  63
HETATM   63  O   UNL     1     105.879 149.739 155.320  1.00  0.00    -0.358 OA
HETATM   64  H   UNL     1     106.501 150.307 154.827  1.00  0.00     0.217 HD
ENDBRANCH  57  63
ENDBRANCH  51  53
ENDBRANCH  50  51
ENDBRANCH   6  50
ENDBRANCH   2   4
BRANCH   2  65
HETATM   65  C   UNL     1     107.094 146.789 162.508  1.00  0.00     0.216 C 
BRANCH  65  66
HETATM   66  O   UNL     1     108.479 147.124 162.533  1.00  0.00    -0.315 OA
BRANCH  66  67
HETATM   67  C   UNL     1     108.715 148.388 162.166  1.00  0.00     0.293 C 
HETATM   68  O   UNL     1     107.878 149.219 161.869  1.00  0.00    -0.259 OA
BRANCH  67  69
HETATM   69  C   UNL     1     110.174 148.556 162.104  1.00  0.00     0.045 C 
HETATM   70  C   UNL     1     110.992 148.538 163.250  1.00  0.00     0.057 C 
HETATM   71  C   UNL     1     112.367 148.611 163.107  1.00  0.00     0.102 C 
HETATM   72  C   UNL     1     112.932 148.532 161.846  1.00  0.00     0.133 C 
HETATM   73  C   UNL     1     112.096 148.417 160.732  1.00  0.00     0.116 C 
HETATM   74  C   UNL     1     110.725 148.596 160.834  1.00  0.00     0.058 C 
BRANCH  71  75
HETATM   75  O   UNL     1     113.170 148.652 164.211  1.00  0.00    -0.358 OA
HETATM   76  H   UNL     1     112.904 147.866 164.732  1.00  0.00     0.217 HD
ENDBRANCH  71  75
BRANCH  72  77
HETATM   77  O   UNL     1     114.293 148.458 161.769  1.00  0.00    -0.356 OA
HETATM   78  H   UNL     1     114.658 148.852 162.585  1.00  0.00     0.218 HD
ENDBRANCH  72  77
BRANCH  73  79
HETATM   79  O   UNL     1     112.552 147.858 159.541  1.00  0.00    -0.272 OA
BRANCH  79  80
HETATM   80  C   UNL     1     112.715 148.932 158.678  1.00  0.00     0.298 C 
HETATM   81  O   UNL     1     113.516 149.831 158.885  1.00  0.00    -0.259 OA
BRANCH  80  82
HETATM   82  C   UNL     1     111.824 148.916 157.481  1.00  0.00     0.045 A 
HETATM   83  C   UNL     1     111.383 150.138 156.952  1.00  0.00     0.057 A 
HETATM   84  C   UNL     1     110.516 150.142 155.864  1.00  0.00     0.102 A 
HETATM   85  C   UNL     1     110.071 148.947 155.317  1.00  0.00     0.132 A 
HETATM   86  C   UNL     1     110.505 147.737 155.850  1.00  0.00     0.102 A 
HETATM   87  C   UNL     1     111.401 147.704 156.920  1.00  0.00     0.057 A 
BRANCH  84  88
HETATM   88  O   UNL     1     110.117 151.349 155.384  1.00  0.00    -0.358 OA
HETATM   89  H   UNL     1     109.265 151.251 154.907  1.00  0.00     0.217 HD
ENDBRANCH  84  88
BRANCH  85  90
HETATM   90  O   UNL     1     109.196 148.961 154.267  1.00  0.00    -0.356 OA
HETATM   91  H   UNL     1     108.693 149.797 154.347  1.00  0.00     0.218 HD
ENDBRANCH  85  90
BRANCH  86  92
HETATM   92  O   UNL     1     109.996 146.593 155.301  1.00  0.00    -0.358 OA
HETATM   93  H   UNL     1     109.260 146.846 154.714  1.00  0.00     0.217 HD
ENDBRANCH  86  92
ENDBRANCH  80  82
ENDBRANCH  79  80
ENDBRANCH  73  79
ENDBRANCH  67  69
ENDBRANCH  66  67
ENDBRANCH  65  66
ENDBRANCH   2  65
BRANCH   3  94
HETATM   94  O   UNL     1     107.853 143.138 163.711  1.00  0.00    -0.285 OA
BRANCH  94  95
HETATM   95  C   UNL     1     108.336 143.717 164.844  1.00  0.00     0.295 C 
HETATM   96  O   UNL     1     108.807 144.835 164.967  1.00  0.00    -0.259 OA
BRANCH  95  97
HETATM   97  C   UNL     1     108.212 142.760 165.935  1.00  0.00     0.045 A 
HETATM   98  C   UNL     1     107.827 141.447 165.652  1.00  0.00     0.057 A 
HETATM   99  C   UNL     1     107.823 140.527 166.681  1.00  0.00     0.102 A 
HETATM  100  C   UNL     1     108.134 140.927 167.976  1.00  0.00     0.132 A 
HETATM  101  C   UNL     1     108.460 142.252 168.255  1.00  0.00     0.102 A 
HETATM  102  C   UNL     1     108.509 143.185 167.233  1.00  0.00     0.057 A 
BRANCH  99 103
HETATM  103  O   UNL     1     107.542 139.222 166.405  1.00  0.00    -0.358 OA
HETATM  104  H   UNL     1     108.055 139.039 165.590  1.00  0.00     0.217 HD
ENDBRANCH  99 103
BRANCH 100 105
HETATM  105  O   UNL     1     108.120 139.993 168.975  1.00  0.00    -0.356 OA
HETATM  106  H   UNL     1     108.921 140.199 169.500  1.00  0.00     0.218 HD
ENDBRANCH 100 105
BRANCH 101 107
HETATM  107  O   UNL     1     108.745 142.591 169.546  1.00  0.00    -0.358 OA
HETATM  108  H   UNL     1     109.350 141.916 169.905  1.00  0.00     0.217 HD
ENDBRANCH 101 107
ENDBRANCH  95  97
ENDBRANCH  94  95
ENDBRANCH   3  94
TORSDOF 43
ENDMDL
MODEL 4
REMARK VINA RESULT:   -11.315      2.108      4.664
REMARK INTER + INTRA:         -33.286
REMARK INTER:                 -33.334
REMARK INTRA:                   0.048
REMARK UNBOUND:                -2.456
REMARK WARNING: 32 MAX_TORS EXCEEDED!!!
REMARK  43 active torsions:
REMARK  status: ('A' for Active; 'I' for Inactive)
REMARK    1  A    between atoms: O_2  and  C_27 
REMARK    2  A    between atoms: O_2  and  C_33 
REMARK    3  A    between atoms: O_3  and  C_28 
REMARK    4  A    between atoms: O_3  and  C_34 
REMARK    5  A    between atoms: O_4  and  C_29 
REMARK    6  A    between atoms: O_4  and  C_35 
REMARK    7  A    between atoms: O_5  and  C_31 
REMARK    8  A    between atoms: O_5  and  C_36 
REMARK    9  A    between atoms: O_6  and  C_32 
REMARK   10  A    between atoms: O_6  and  C_39 
REMARK   11  A    between atoms: O_12  and  C_51 
REMARK   12  A    between atoms: O_13  and  C_52 
REMARK   13  A    between atoms: O_13  and  C_99 
REMARK   14  A    between atoms: O_14  and  C_53 
REMARK   15  A    between atoms: O_15  and  C_54 
REMARK   16  A    between atoms: O_16  and  C_55 
REMARK   17  A    between atoms: O_17  and  C_56 
REMARK   18  A    between atoms: O_18  and  C_59 
REMARK   19  A    between atoms: O_19  and  C_60 
REMARK   20  A    between atoms: O_20  and  C_61 
REMARK   21  A    between atoms: O_21  and  C_62 
REMARK   22  A    between atoms: O_22  and  C_63 
REMARK   23  A    between atoms: O_23  and  C_64 
REMARK   24  A    between atoms: O_24  and  C_65 
REMARK   25  A    between atoms: O_24  and  C_85 
REMARK   26  A    between atoms: O_25  and  C_66 
REMARK   27  A    between atoms: O_26  and  C_67 
REMARK   28  A    between atoms: C_28  and  C_30 
REMARK   29  A    between atoms: C_29  and  C_31 
REMARK   30  A    between atoms: C_30  and  C_32 
REMARK   31  A    between atoms: C_33  and  C_37 
REMARK   32  A    between atoms: C_34  and  C_38 
REMARK   33  A    between atoms: C_35  and  C_40 
REMARK   34  A    between atoms: C_36  and  C_41 
REMARK   35  A    between atoms: C_39  and  C_42 
REMARK   36  A    between atoms: O_82  and  C_89 
REMARK   37  A    between atoms: O_83  and  C_90 
REMARK   38  A    between atoms: O_84  and  C_91 
REMARK   39  A    between atoms: C_85  and  C_86 
REMARK   40  A    between atoms: O_96  and  C_103 
REMARK   41  A    between atoms: O_97  and  C_104 
REMARK   42  A    between atoms: O_98  and  C_105 
REMARK   43  A    between atoms: C_99  and  C_100 
ROOT
HETATM    1  O   UNL     1     108.758 145.432 162.498  1.00  0.00    -0.348 OA
HETATM    2  C   UNL     1     107.876 146.283 161.899  1.00  0.00     0.201 A 
HETATM    3  C   UNL     1     107.449 145.267 162.808  1.00  0.00     0.282 A 
ENDROOT
BRANCH   2   4
HETATM    4  C   UNL     1     107.344 146.002 161.335  1.00  0.00     0.199 A 
HETATM    5  C   UNL     1     107.234 147.079 160.137  1.00  0.00     0.198 A 
HETATM    6  C   UNL     1     108.347 146.132 160.325  1.00  0.00     0.215 A 
BRANCH   4   7
HETATM    7  O   UNL     1     105.997 146.892 161.973  1.00  0.00    -0.306 OA
BRANCH   7   8
HETATM    8  C   UNL     1     104.685 146.978 162.123  1.00  0.00     0.294 C 
HETATM    9  O   UNL     1     103.985 147.712 161.434  1.00  0.00    -0.259 OA
BRANCH   8  10
HETATM   10  C   UNL     1     104.031 146.077 163.055  1.00  0.00     0.045 A 
HETATM   11  C   UNL     1     103.519 144.881 162.536  1.00  0.00     0.057 A 
HETATM   12  C   UNL     1     103.328 143.812 163.393  1.00  0.00     0.102 A 
HETATM   13  C   UNL     1     103.607 143.957 164.746  1.00  0.00     0.132 A 
HETATM   14  C   UNL     1     103.992 145.190 165.264  1.00  0.00     0.102 A 
HETATM   15  C   UNL     1     104.234 146.260 164.421  1.00  0.00     0.057 A 
BRANCH  12  16
HETATM   16  O   UNL     1     102.918 142.592 162.936  1.00  0.00    -0.358 OA
HETATM   17  H   UNL     1     101.942 142.605 162.910  1.00  0.00     0.217 HD
ENDBRANCH  12  16
BRANCH  13  18
HETATM   18  O   UNL     1     103.571 142.875 165.583  1.00  0.00    -0.356 OA
HETATM   19  H   UNL     1     102.921 143.135 166.269  1.00  0.00     0.218 HD
ENDBRANCH  13  18
BRANCH  14  20
HETATM   20  O   UNL     1     104.186 145.325 166.608  1.00  0.00    -0.358 OA
HETATM   21  H   UNL     1     103.382 145.787 166.915  1.00  0.00     0.217 HD
ENDBRANCH  14  20
ENDBRANCH   8  10
ENDBRANCH   7   8
ENDBRANCH   4   7
BRANCH   5  22
HETATM   22  O   UNL     1     106.308 146.693 159.089  1.00  0.00    -0.306 OA
BRANCH  22  23
HETATM   23  C   UNL     1     106.522 147.238 157.874  1.00  0.00     0.294 C 
HETATM   24  O   UNL     1     106.793 146.755 156.782  1.00  0.00    -0.259 OA
BRANCH  23  25
HETATM   25  C   UNL     1     106.412 148.636 157.982  1.00  0.00     0.045 C 
HETATM   26  C   UNL     1     105.089 148.974 158.102  1.00  0.00     0.058 C 
HETATM   27  C   UNL     1     104.696 149.964 157.258  1.00  0.00     0.116 C 
HETATM   28  C   UNL     1     105.643 150.868 156.742  1.00  0.00     0.133 C 
HETATM   29  C   UNL     1     107.003 150.579 156.833  1.00  0.00     0.102 C 
HETATM   30  C   UNL     1     107.387 149.370 157.326  1.00  0.00     0.057 C 
BRANCH  27  31
HETATM   31  O   UNL     1     103.383 149.942 156.763  1.00  0.00    -0.272 OA
BRANCH  31  32
HETATM   32  C   UNL     1     102.299 150.322 157.584  1.00  0.00     0.298 C 
HETATM   33  O   UNL     1     102.131 150.288 158.770  1.00  0.00    -0.259 OA
BRANCH  32  34
HETATM   34  C   UNL     1     101.537 151.111 156.615  1.00  0.00     0.045 C 
HETATM   35  C   UNL     1     101.033 150.462 155.489  1.00  0.00     0.057 C 
HETATM   36  C   UNL     1     101.094 151.164 154.300  1.00  0.00     0.102 C 
HETATM   37  C   UNL     1     101.771 152.382 154.237  1.00  0.00     0.132 C 
HETATM   38  C   UNL     1     102.217 153.004 155.391  1.00  0.00     0.102 C 
HETATM   39  C   UNL     1     101.949 152.452 156.616  1.00  0.00     0.057 C 
BRANCH  36  40
HETATM   40  O   UNL     1     100.612 150.642 153.138  1.00  0.00    -0.358 OA
HETATM   41  H   UNL     1     100.620 151.374 152.493  1.00  0.00     0.217 HD
ENDBRANCH  36  40
BRANCH  37  42
HETATM   42  O   UNL     1     102.077 152.943 153.032  1.00  0.00    -0.356 OA
HETATM   43  H   UNL     1     102.729 153.641 153.249  1.00  0.00     0.218 HD
ENDBRANCH  37  42
BRANCH  38  44
HETATM   44  O   UNL     1     103.104 154.037 155.339  1.00  0.00    -0.358 OA
HETATM   45  H   UNL     1     102.708 154.741 155.890  1.00  0.00     0.217 HD
ENDBRANCH  38  44
ENDBRANCH  32  34
ENDBRANCH  31  32
ENDBRANCH  27  31
BRANCH  28  46
HETATM   46  O   UNL     1     105.282 152.031 156.129  1.00  0.00    -0.356 OA
HETATM   47  H   UNL     1     106.108 152.488 155.888  1.00  0.00     0.218 HD
ENDBRANCH  28  46
BRANCH  29  48
HETATM   48  O   UNL     1     107.979 151.410 156.388  1.00  0.00    -0.358 OA
HETATM   49  H   UNL     1     108.812 150.955 156.600  1.00  0.00     0.217 HD
ENDBRANCH  29  48
ENDBRANCH  23  25
ENDBRANCH  22  23
ENDBRANCH   5  22
BRANCH   6  50
HETATM   50  O   UNL     1     109.196 146.111 158.906  1.00  0.00    -0.304 OA
BRANCH  50  51
HETATM   51  C   UNL     1     110.504 146.429 158.688  1.00  0.00     0.294 C 
HETATM   52  O   UNL     1     111.502 146.095 159.295  1.00  0.00    -0.259 OA
BRANCH  51  53
HETATM   53  C   UNL     1     110.488 147.312 157.524  1.00  0.00     0.045 A 
HETATM   54  C   UNL     1     110.085 146.729 156.322  1.00  0.00     0.057 A 
HETATM   55  C   UNL     1     110.076 147.491 155.174  1.00  0.00     0.102 A 
HETATM   56  C   UNL     1     110.424 148.830 155.230  1.00  0.00     0.132 A 
HETATM   57  C   UNL     1     110.784 149.419 156.441  1.00  0.00     0.102 A 
HETATM   58  C   UNL     1     110.838 148.663 157.607  1.00  0.00     0.057 A 
BRANCH  55  59
HETATM   59  O   UNL     1     109.685 146.912 154.009  1.00  0.00    -0.358 OA
HETATM   60  H   UNL     1     110.517 146.693 153.546  1.00  0.00     0.217 HD
ENDBRANCH  55  59
BRANCH  56  61
HETATM   61  O   UNL     1     110.350 149.581 154.090  1.00  0.00    -0.356 OA
HETATM   62  H   UNL     1     111.278 149.839 153.917  1.00  0.00     0.218 HD
ENDBRANCH  56  61
BRANCH  57  63
HETATM   63  O   UNL     1     111.024 150.764 156.439  1.00  0.00    -0.358 OA
HETATM   64  H   UNL     1     111.390 150.991 155.563  1.00  0.00     0.217 HD
ENDBRANCH  57  63
ENDBRANCH  51  53
ENDBRANCH  50  51
ENDBRANCH   6  50
ENDBRANCH   2   4
BRANCH   2  65
HETATM   65  C   UNL     1     107.685 147.921 161.913  1.00  0.00     0.216 C 
BRANCH  65  66
HETATM   66  O   UNL     1     108.784 148.424 162.669  1.00  0.00    -0.315 OA
BRANCH  66  67
HETATM   67  C   UNL     1     109.764 148.910 161.901  1.00  0.00     0.293 C 
HETATM   68  O   UNL     1     109.634 149.418 160.804  1.00  0.00    -0.259 OA
BRANCH  67  69
HETATM   69  C   UNL     1     111.033 148.636 162.592  1.00  0.00     0.045 C 
HETATM   70  C   UNL     1     112.267 148.566 161.919  1.00  0.00     0.057 C 
HETATM   71  C   UNL     1     113.432 148.395 162.648  1.00  0.00     0.102 C 
HETATM   72  C   UNL     1     113.394 148.463 164.030  1.00  0.00     0.133 C 
HETATM   73  C   UNL     1     112.167 148.666 164.668  1.00  0.00     0.116 C 
HETATM   74  C   UNL     1     110.969 148.587 163.975  1.00  0.00     0.058 C 
BRANCH  71  75
HETATM   75  O   UNL     1     114.630 148.268 162.005  1.00  0.00    -0.358 OA
HETATM   76  H   UNL     1     115.292 148.549 162.670  1.00  0.00     0.217 HD
ENDBRANCH  71  75
BRANCH  72  77
HETATM   77  O   UNL     1     114.586 148.438 164.695  1.00  0.00    -0.356 OA
HETATM   78  H   UNL     1     114.474 147.873 165.485  1.00  0.00     0.218 HD
ENDBRANCH  72  77
BRANCH  73  79
HETATM   79  O   UNL     1     112.099 149.220 165.944  1.00  0.00    -0.272 OA
BRANCH  79  80
HETATM   80  C   UNL     1     111.662 150.522 165.748  1.00  0.00     0.298 C 
HETATM   81  O   UNL     1     110.528 150.887 166.021  1.00  0.00    -0.259 OA
BRANCH  80  82
HETATM   82  C   UNL     1     112.678 151.444 165.162  1.00  0.00     0.045 A 
HETATM   83  C   UNL     1     112.427 152.014 163.905  1.00  0.00     0.057 A 
HETATM   84  C   UNL     1     113.382 152.840 163.322  1.00  0.00     0.102 A 
HETATM   85  C   UNL     1     114.586 153.083 163.967  1.00  0.00     0.132 A 
HETATM   86  C   UNL     1     114.834 152.510 165.211  1.00  0.00     0.102 A 
HETATM   87  C   UNL     1     113.879 151.705 165.834  1.00  0.00     0.057 A 
BRANCH  84  88
HETATM   88  O   UNL     1     113.095 153.371 162.105  1.00  0.00    -0.358 OA
HETATM   89  H   UNL     1     113.727 154.092 161.900  1.00  0.00     0.217 HD
ENDBRANCH  84  88
BRANCH  85  90
HETATM   90  O   UNL     1     115.531 153.873 163.374  1.00  0.00    -0.356 OA
HETATM   91  H   UNL     1     116.382 153.403 163.484  1.00  0.00     0.218 HD
ENDBRANCH  85  90
BRANCH  86  92
HETATM   92  O   UNL     1     116.057 152.747 165.777  1.00  0.00    -0.358 OA
HETATM   93  H   UNL     1     116.578 153.278 165.147  1.00  0.00     0.217 HD
ENDBRANCH  86  92
ENDBRANCH  80  82
ENDBRANCH  79  80
ENDBRANCH  73  79
ENDBRANCH  67  69
ENDBRANCH  66  67
ENDBRANCH  65  66
ENDBRANCH   2  65
BRANCH   3  94
HETATM   94  O   UNL     1     107.691 144.755 164.221  1.00  0.00    -0.285 OA
BRANCH  94  95
HETATM   95  C   UNL     1     107.299 143.484 164.511  1.00  0.00     0.295 C 
HETATM   96  O   UNL     1     106.691 142.710 163.791  1.00  0.00    -0.259 OA
BRANCH  95  97
HETATM   97  C   UNL     1     107.722 143.174 165.869  1.00  0.00     0.045 A 
HETATM   98  C   UNL     1     109.080 143.225 166.191  1.00  0.00     0.057 A 
HETATM   99  C   UNL     1     109.452 143.038 167.506  1.00  0.00     0.102 A 
HETATM  100  C   UNL     1     108.492 142.742 168.468  1.00  0.00     0.132 A 
HETATM  101  C   UNL     1     107.146 142.637 168.124  1.00  0.00     0.102 A 
HETATM  102  C   UNL     1     106.745 142.858 166.817  1.00  0.00     0.057 A 
BRANCH  99 103
HETATM  103  O   UNL     1     110.763 143.178 167.854  1.00  0.00    -0.358 OA
HETATM  104  H   UNL     1     110.889 142.516 168.566  1.00  0.00     0.217 HD
ENDBRANCH  99 103
BRANCH 100 105
HETATM  105  O   UNL     1     108.891 142.561 169.763  1.00  0.00    -0.356 OA
HETATM  106  H   UNL     1     109.869 142.597 169.714  1.00  0.00     0.218 HD
ENDBRANCH 100 105
BRANCH 101 107
HETATM  107  O   UNL     1     106.248 142.332 169.106  1.00  0.00    -0.358 OA
HETATM  108  H   UNL     1     105.640 143.088 169.199  1.00  0.00     0.217 HD
ENDBRANCH 101 107
ENDBRANCH  95  97
ENDBRANCH  94  95
ENDBRANCH   3  94
TORSDOF 43
ENDMDL
MODEL 5
REMARK VINA RESULT:   -11.231      2.504      5.651
REMARK INTER + INTRA:         -33.055
REMARK INTER:                 -33.213
REMARK INTRA:                   0.158
REMARK UNBOUND:                -2.456
REMARK WARNING: 32 MAX_TORS EXCEEDED!!!
REMARK  43 active torsions:
REMARK  status: ('A' for Active; 'I' for Inactive)
REMARK    1  A    between atoms: O_2  and  C_27 
REMARK    2  A    between atoms: O_2  and  C_33 
REMARK    3  A    between atoms: O_3  and  C_28 
REMARK    4  A    between atoms: O_3  and  C_34 
REMARK    5  A    between atoms: O_4  and  C_29 
REMARK    6  A    between atoms: O_4  and  C_35 
REMARK    7  A    between atoms: O_5  and  C_31 
REMARK    8  A    between atoms: O_5  and  C_36 
REMARK    9  A    between atoms: O_6  and  C_32 
REMARK   10  A    between atoms: O_6  and  C_39 
REMARK   11  A    between atoms: O_12  and  C_51 
REMARK   12  A    between atoms: O_13  and  C_52 
REMARK   13  A    between atoms: O_13  and  C_99 
REMARK   14  A    between atoms: O_14  and  C_53 
REMARK   15  A    between atoms: O_15  and  C_54 
REMARK   16  A    between atoms: O_16  and  C_55 
REMARK   17  A    between atoms: O_17  and  C_56 
REMARK   18  A    between atoms: O_18  and  C_59 
REMARK   19  A    between atoms: O_19  and  C_60 
REMARK   20  A    between atoms: O_20  and  C_61 
REMARK   21  A    between atoms: O_21  and  C_62 
REMARK   22  A    between atoms: O_22  and  C_63 
REMARK   23  A    between atoms: O_23  and  C_64 
REMARK   24  A    between atoms: O_24  and  C_65 
REMARK   25  A    between atoms: O_24  and  C_85 
REMARK   26  A    between atoms: O_25  and  C_66 
REMARK   27  A    between atoms: O_26  and  C_67 
REMARK   28  A    between atoms: C_28  and  C_30 
REMARK   29  A    between atoms: C_29  and  C_31 
REMARK   30  A    between atoms: C_30  and  C_32 
REMARK   31  A    between atoms: C_33  and  C_37 
REMARK   32  A    between atoms: C_34  and  C_38 
REMARK   33  A    between atoms: C_35  and  C_40 
REMARK   34  A    between atoms: C_36  and  C_41 
REMARK   35  A    between atoms: C_39  and  C_42 
REMARK   36  A    between atoms: O_82  and  C_89 
REMARK   37  A    between atoms: O_83  and  C_90 
REMARK   38  A    between atoms: O_84  and  C_91 
REMARK   39  A    between atoms: C_85  and  C_86 
REMARK   40  A    between atoms: O_96  and  C_103 
REMARK   41  A    between atoms: O_97  and  C_104 
REMARK   42  A    between atoms: O_98  and  C_105 
REMARK   43  A    between atoms: C_99  and  C_100 
ROOT
HETATM    1  O   UNL     1     108.841 145.567 162.497  1.00  0.00    -0.348 OA
HETATM    2  C   UNL     1     107.914 146.378 161.909  1.00  0.00     0.201 A 
HETATM    3  C   UNL     1     107.550 145.379 162.864  1.00  0.00     0.282 A 
ENDROOT
BRANCH   2   4
HETATM    4  C   UNL     1     107.368 146.066 161.375  1.00  0.00     0.199 A 
HETATM    5  C   UNL     1     107.180 147.103 160.152  1.00  0.00     0.198 A 
HETATM    6  C   UNL     1     108.326 146.192 160.322  1.00  0.00     0.215 A 
BRANCH   4   7
HETATM    7  O   UNL     1     106.024 146.939 162.041  1.00  0.00    -0.306 OA
BRANCH   7   8
HETATM    8  C   UNL     1     104.752 146.922 162.410  1.00  0.00     0.294 C 
HETATM    9  O   UNL     1     103.911 147.672 161.927  1.00  0.00    -0.259 OA
BRANCH   8  10
HETATM   10  C   UNL     1     104.310 145.892 163.334  1.00  0.00     0.045 A 
HETATM   11  C   UNL     1     104.495 146.136 164.701  1.00  0.00     0.057 A 
HETATM   12  C   UNL     1     103.703 145.460 165.611  1.00  0.00     0.102 A 
HETATM   13  C   UNL     1     102.775 144.531 165.157  1.00  0.00     0.132 A 
HETATM   14  C   UNL     1     102.695 144.207 163.805  1.00  0.00     0.102 A 
HETATM   15  C   UNL     1     103.444 144.903 162.873  1.00  0.00     0.057 A 
BRANCH  12  16
HETATM   16  O   UNL     1     103.769 145.718 166.950  1.00  0.00    -0.358 OA
HETATM   17  H   UNL     1     102.939 146.165 167.201  1.00  0.00     0.217 HD
ENDBRANCH  12  16
BRANCH  13  18
HETATM   18  O   UNL     1     101.879 143.963 166.021  1.00  0.00    -0.356 OA
HETATM   19  H   UNL     1     101.157 143.654 165.436  1.00  0.00     0.218 HD
ENDBRANCH  13  18
BRANCH  14  20
HETATM   20  O   UNL     1     101.829 143.236 163.395  1.00  0.00    -0.358 OA
HETATM   21  H   UNL     1     102.047 142.473 163.966  1.00  0.00     0.217 HD
ENDBRANCH  14  20
ENDBRANCH   8  10
ENDBRANCH   7   8
ENDBRANCH   4   7
BRANCH   5  22
HETATM   22  O   UNL     1     106.224 146.662 159.154  1.00  0.00    -0.306 OA
BRANCH  22  23
HETATM   23  C   UNL     1     106.366 147.188 157.921  1.00  0.00     0.294 C 
HETATM   24  O   UNL     1     106.536 146.685 156.817  1.00  0.00    -0.259 OA
BRANCH  23  25
HETATM   25  C   UNL     1     106.312 148.590 158.019  1.00  0.00     0.045 C 
HETATM   26  C   UNL     1     105.001 148.986 158.073  1.00  0.00     0.058 C 
HETATM   27  C   UNL     1     104.695 149.988 157.208  1.00  0.00     0.116 C 
HETATM   28  C   UNL     1     105.705 150.847 156.737  1.00  0.00     0.133 C 
HETATM   29  C   UNL     1     107.045 150.500 156.897  1.00  0.00     0.102 C 
HETATM   30  C   UNL     1     107.350 149.277 157.411  1.00  0.00     0.057 C 
BRANCH  27  31
HETATM   31  O   UNL     1     103.408 150.023 156.649  1.00  0.00    -0.272 OA
BRANCH  31  32
HETATM   32  C   UNL     1     102.377 150.767 157.261  1.00  0.00     0.298 C 
HETATM   33  O   UNL     1     102.091 151.930 157.231  1.00  0.00    -0.259 OA
BRANCH  32  34
HETATM   34  C   UNL     1     101.513 149.665 157.686  1.00  0.00     0.045 C 
HETATM   35  C   UNL     1     101.489 149.331 159.040  1.00  0.00     0.057 C 
HETATM   36  C   UNL     1     101.435 147.982 159.336  1.00  0.00     0.102 C 
HETATM   37  C   UNL     1     101.560 147.034 158.320  1.00  0.00     0.132 C 
HETATM   38  C   UNL     1     101.538 147.415 156.989  1.00  0.00     0.102 C 
HETATM   39  C   UNL     1     101.339 148.729 156.655  1.00  0.00     0.057 C 
BRANCH  36  40
HETATM   40  O   UNL     1     101.384 147.536 160.622  1.00  0.00    -0.358 OA
HETATM   41  H   UNL     1     101.614 148.303 161.179  1.00  0.00     0.217 HD
ENDBRANCH  36  40
BRANCH  37  42
HETATM   42  O   UNL     1     101.786 145.723 158.621  1.00  0.00    -0.356 OA
HETATM   43  H   UNL     1     102.751 145.611 158.499  1.00  0.00     0.218 HD
ENDBRANCH  37  42
BRANCH  38  44
HETATM   44  O   UNL     1     101.926 146.559 156.003  1.00  0.00    -0.358 OA
HETATM   45  H   UNL     1     102.793 146.893 155.701  1.00  0.00     0.217 HD
ENDBRANCH  38  44
ENDBRANCH  32  34
ENDBRANCH  31  32
ENDBRANCH  27  31
BRANCH  28  46
HETATM   46  O   UNL     1     105.427 152.022 156.105  1.00  0.00    -0.356 OA
HETATM   47  H   UNL     1     106.229 152.272 155.611  1.00  0.00     0.218 HD
ENDBRANCH  28  46
BRANCH  29  48
HETATM   48  O   UNL     1     108.077 151.284 156.499  1.00  0.00    -0.358 OA
HETATM   49  H   UNL     1     108.570 151.485 157.312  1.00  0.00     0.217 HD
ENDBRANCH  29  48
ENDBRANCH  23  25
ENDBRANCH  22  23
ENDBRANCH   5  22
BRANCH   6  50
HETATM   50  O   UNL     1     109.118 146.151 158.871  1.00  0.00    -0.304 OA
BRANCH  50  51
HETATM   51  C   UNL     1     110.428 146.420 158.605  1.00  0.00     0.294 C 
HETATM   52  O   UNL     1     111.432 146.082 159.198  1.00  0.00    -0.259 OA
BRANCH  51  53
HETATM   53  C   UNL     1     110.404 147.253 157.404  1.00  0.00     0.045 A 
HETATM   54  C   UNL     1     110.975 148.520 157.529  1.00  0.00     0.057 A 
HETATM   55  C   UNL     1     110.960 149.375 156.450  1.00  0.00     0.102 A 
HETATM   56  C   UNL     1     110.421 148.957 155.244  1.00  0.00     0.132 A 
HETATM   57  C   UNL     1     109.892 147.674 155.111  1.00  0.00     0.102 A 
HETATM   58  C   UNL     1     109.860 146.805 156.196  1.00  0.00     0.057 A 
BRANCH  55  59
HETATM   59  O   UNL     1     111.515 150.608 156.584  1.00  0.00    -0.358 OA
HETATM   60  H   UNL     1     112.295 150.470 157.156  1.00  0.00     0.217 HD
ENDBRANCH  55  59
BRANCH  56  61
HETATM   61  O   UNL     1     110.472 149.799 154.169  1.00  0.00    -0.356 OA
HETATM   62  H   UNL     1     110.424 150.693 154.566  1.00  0.00     0.218 HD
ENDBRANCH  56  61
BRANCH  57  63
HETATM   63  O   UNL     1     109.464 147.297 153.869  1.00  0.00    -0.358 OA
HETATM   64  H   UNL     1     109.195 148.107 153.397  1.00  0.00     0.217 HD
ENDBRANCH  57  63
ENDBRANCH  51  53
ENDBRANCH  50  51
ENDBRANCH   6  50
ENDBRANCH   2   4
BRANCH   2  65
HETATM   65  C   UNL     1     107.680 148.010 161.882  1.00  0.00     0.216 C 
BRANCH  65  66
HETATM   66  O   UNL     1     108.781 148.562 162.599  1.00  0.00    -0.315 OA
BRANCH  66  67
HETATM   67  C   UNL     1     109.774 148.962 161.798  1.00  0.00     0.293 C 
HETATM   68  O   UNL     1     109.658 149.386 160.665  1.00  0.00    -0.259 OA
BRANCH  67  69
HETATM   69  C   UNL     1     111.035 148.712 162.513  1.00  0.00     0.045 C 
HETATM   70  C   UNL     1     112.247 148.446 161.848  1.00  0.00     0.057 C 
HETATM   71  C   UNL     1     113.412 148.311 162.583  1.00  0.00     0.102 C 
HETATM   72  C   UNL     1     113.408 148.604 163.936  1.00  0.00     0.133 C 
HETATM   73  C   UNL     1     112.213 148.995 164.545  1.00  0.00     0.116 C 
HETATM   74  C   UNL     1     110.997 148.892 163.886  1.00  0.00     0.058 C 
BRANCH  71  75
HETATM   75  O   UNL     1     114.584 147.996 161.958  1.00  0.00    -0.358 OA
HETATM   76  H   UNL     1     114.373 147.195 161.436  1.00  0.00     0.217 HD
ENDBRANCH  71  75
BRANCH  72  77
HETATM   77  O   UNL     1     114.610 148.600 164.585  1.00  0.00    -0.356 OA
HETATM   78  H   UNL     1     114.461 148.947 165.487  1.00  0.00     0.218 HD
ENDBRANCH  72  77
BRANCH  73  79
HETATM   79  O   UNL     1     112.211 149.751 165.714  1.00  0.00    -0.272 OA
BRANCH  79  80
HETATM   80  C   UNL     1     112.492 151.046 165.306  1.00  0.00     0.298 C 
HETATM   81  O   UNL     1     112.044 151.527 164.275  1.00  0.00    -0.259 OA
BRANCH  80  82
HETATM   82  C   UNL     1     113.398 151.808 166.214  1.00  0.00     0.045 A 
HETATM   83  C   UNL     1     113.671 153.152 165.922  1.00  0.00     0.057 A 
HETATM   84  C   UNL     1     114.549 153.867 166.732  1.00  0.00     0.102 A 
HETATM   85  C   UNL     1     115.168 153.250 167.809  1.00  0.00     0.132 A 
HETATM   86  C   UNL     1     114.899 151.913 168.092  1.00  0.00     0.102 A 
HETATM   87  C   UNL     1     113.997 151.184 167.316  1.00  0.00     0.057 A 
BRANCH  84  88
HETATM   88  O   UNL     1     114.783 155.166 166.411  1.00  0.00    -0.358 OA
HETATM   89  H   UNL     1     114.280 155.753 167.015  1.00  0.00     0.217 HD
ENDBRANCH  84  88
BRANCH  85  90
HETATM   90  O   UNL     1     116.052 153.951 168.582  1.00  0.00    -0.356 OA
HETATM   91  H   UNL     1     116.893 153.452 168.548  1.00  0.00     0.218 HD
ENDBRANCH  85  90
BRANCH  86  92
HETATM   92  O   UNL     1     115.575 151.346 169.137  1.00  0.00    -0.358 OA
HETATM   93  H   UNL     1     116.521 151.330 168.905  1.00  0.00     0.217 HD
ENDBRANCH  86  92
ENDBRANCH  80  82
ENDBRANCH  79  80
ENDBRANCH  73  79
ENDBRANCH  67  69
ENDBRANCH  66  67
ENDBRANCH  65  66
ENDBRANCH   2  65
BRANCH   3  94
HETATM   94  O   UNL     1     107.861 144.916 164.281  1.00  0.00    -0.285 OA
BRANCH  94  95
HETATM   95  C   UNL     1     107.988 143.579 164.497  1.00  0.00     0.295 C 
HETATM   96  O   UNL     1     108.557 142.761 163.795  1.00  0.00    -0.259 OA
BRANCH  95  97
HETATM   97  C   UNL     1     107.305 143.251 165.741  1.00  0.00     0.045 A 
HETATM   98  C   UNL     1     105.976 142.825 165.700  1.00  0.00     0.057 A 
HETATM   99  C   UNL     1     105.380 142.413 166.875  1.00  0.00     0.102 A 
HETATM  100  C   UNL     1     106.079 142.487 168.075  1.00  0.00     0.132 A 
HETATM  101  C   UNL     1     107.386 142.969 168.111  1.00  0.00     0.102 A 
HETATM  102  C   UNL     1     108.017 143.352 166.940  1.00  0.00     0.057 A 
BRANCH  99 103
HETATM  103  O   UNL     1     104.115 141.905 166.838  1.00  0.00    -0.358 OA
HETATM  104  H   UNL     1     104.230 140.973 167.119  1.00  0.00     0.217 HD
ENDBRANCH  99 103
BRANCH 100 105
HETATM  105  O   UNL     1     105.462 142.072 169.223  1.00  0.00    -0.356 OA
HETATM  106  H   UNL     1     106.118 141.475 169.639  1.00  0.00     0.218 HD
ENDBRANCH 100 105
BRANCH 101 107
HETATM  107  O   UNL     1     108.020 143.031 169.319  1.00  0.00    -0.358 OA
HETATM  108  H   UNL     1     107.377 142.777 170.006  1.00  0.00     0.217 HD
ENDBRANCH 101 107
ENDBRANCH  95  97
ENDBRANCH  94  95
ENDBRANCH   3  94
TORSDOF 43
ENDMDL
MODEL 6
REMARK VINA RESULT:   -11.187      2.418      5.312
REMARK INTER + INTRA:         -32.935
REMARK INTER:                 -32.645
REMARK INTRA:                  -0.290
REMARK UNBOUND:                -2.456
REMARK WARNING: 32 MAX_TORS EXCEEDED!!!
REMARK  43 active torsions:
REMARK  status: ('A' for Active; 'I' for Inactive)
REMARK    1  A    between atoms: O_2  and  C_27 
REMARK    2  A    between atoms: O_2  and  C_33 
REMARK    3  A    between atoms: O_3  and  C_28 
REMARK    4  A    between atoms: O_3  and  C_34 
REMARK    5  A    between atoms: O_4  and  C_29 
REMARK    6  A    between atoms: O_4  and  C_35 
REMARK    7  A    between atoms: O_5  and  C_31 
REMARK    8  A    between atoms: O_5  and  C_36 
REMARK    9  A    between atoms: O_6  and  C_32 
REMARK   10  A    between atoms: O_6  and  C_39 
REMARK   11  A    between atoms: O_12  and  C_51 
REMARK   12  A    between atoms: O_13  and  C_52 
REMARK   13  A    between atoms: O_13  and  C_99 
REMARK   14  A    between atoms: O_14  and  C_53 
REMARK   15  A    between atoms: O_15  and  C_54 
REMARK   16  A    between atoms: O_16  and  C_55 
REMARK   17  A    between atoms: O_17  and  C_56 
REMARK   18  A    between atoms: O_18  and  C_59 
REMARK   19  A    between atoms: O_19  and  C_60 
REMARK   20  A    between atoms: O_20  and  C_61 
REMARK   21  A    between atoms: O_21  and  C_62 
REMARK   22  A    between atoms: O_22  and  C_63 
REMARK   23  A    between atoms: O_23  and  C_64 
REMARK   24  A    between atoms: O_24  and  C_65 
REMARK   25  A    between atoms: O_24  and  C_85 
REMARK   26  A    between atoms: O_25  and  C_66 
REMARK   27  A    between atoms: O_26  and  C_67 
REMARK   28  A    between atoms: C_28  and  C_30 
REMARK   29  A    between atoms: C_29  and  C_31 
REMARK   30  A    between atoms: C_30  and  C_32 
REMARK   31  A    between atoms: C_33  and  C_37 
REMARK   32  A    between atoms: C_34  and  C_38 
REMARK   33  A    between atoms: C_35  and  C_40 
REMARK   34  A    between atoms: C_36  and  C_41 
REMARK   35  A    between atoms: C_39  and  C_42 
REMARK   36  A    between atoms: O_82  and  C_89 
REMARK   37  A    between atoms: O_83  and  C_90 
REMARK   38  A    between atoms: O_84  and  C_91 
REMARK   39  A    between atoms: C_85  and  C_86 
REMARK   40  A    between atoms: O_96  and  C_103 
REMARK   41  A    between atoms: O_97  and  C_104 
REMARK   42  A    between atoms: O_98  and  C_105 
REMARK   43  A    between atoms: C_99  and  C_100 
ROOT
HETATM    1  O   UNL     1     108.841 145.476 162.439  1.00  0.00    -0.348 OA
HETATM    2  C   UNL     1     107.963 146.331 161.840  1.00  0.00     0.201 A 
HETATM    3  C   UNL     1     107.535 145.336 162.773  1.00  0.00     0.282 A 
ENDROOT
BRANCH   2   4
HETATM    4  C   UNL     1     107.417 146.049 161.289  1.00  0.00     0.199 A 
HETATM    5  C   UNL     1     107.273 147.126 160.095  1.00  0.00     0.198 A 
HETATM    6  C   UNL     1     108.394 146.182 160.254  1.00  0.00     0.215 A 
BRANCH   4   7
HETATM    7  O   UNL     1     106.084 146.935 161.962  1.00  0.00    -0.306 OA
BRANCH   7   8
HETATM    8  C   UNL     1     104.890 146.896 162.532  1.00  0.00     0.294 C 
HETATM    9  O   UNL     1     104.728 147.016 163.741  1.00  0.00    -0.259 OA
BRANCH   8  10
HETATM   10  C   UNL     1     103.715 146.833 161.681  1.00  0.00     0.045 A 
HETATM   11  C   UNL     1     103.623 145.751 160.797  1.00  0.00     0.057 A 
HETATM   12  C   UNL     1     102.376 145.378 160.328  1.00  0.00     0.102 A 
HETATM   13  C   UNL     1     101.254 146.104 160.709  1.00  0.00     0.132 A 
HETATM   14  C   UNL     1     101.380 147.253 161.484  1.00  0.00     0.102 A 
HETATM   15  C   UNL     1     102.610 147.618 162.002  1.00  0.00     0.057 A 
BRANCH  12  16
HETATM   16  O   UNL     1     102.206 144.278 159.537  1.00  0.00    -0.358 OA
HETATM   17  H   UNL     1     103.011 144.186 158.992  1.00  0.00     0.217 HD
ENDBRANCH  12  16
BRANCH  13  18
HETATM   18  O   UNL     1      99.999 145.667 160.383  1.00  0.00    -0.356 OA
HETATM   19  H   UNL     1      99.423 146.426 160.610  1.00  0.00     0.218 HD
ENDBRANCH  13  18
BRANCH  14  20
HETATM   20  O   UNL     1     100.271 147.991 161.781  1.00  0.00    -0.358 OA
HETATM   21  H   UNL     1     100.269 148.026 162.758  1.00  0.00     0.217 HD
ENDBRANCH  14  20
ENDBRANCH   8  10
ENDBRANCH   7   8
ENDBRANCH   4   7
BRANCH   5  22
HETATM   22  O   UNL     1     106.323 146.739 159.071  1.00  0.00    -0.306 OA
BRANCH  22  23
HETATM   23  C   UNL     1     106.504 147.286 157.852  1.00  0.00     0.294 C 
HETATM   24  O   UNL     1     106.758 146.805 156.754  1.00  0.00    -0.259 OA
BRANCH  23  25
HETATM   25  C   UNL     1     106.377 148.682 157.961  1.00  0.00     0.045 C 
HETATM   26  C   UNL     1     105.047 149.007 158.038  1.00  0.00     0.058 C 
HETATM   27  C   UNL     1     104.674 149.996 157.184  1.00  0.00     0.116 C 
HETATM   28  C   UNL     1     105.628 150.911 156.704  1.00  0.00     0.133 C 
HETATM   29  C   UNL     1     106.988 150.636 156.841  1.00  0.00     0.102 C 
HETATM   30  C   UNL     1     107.366 149.428 157.342  1.00  0.00     0.057 C 
BRANCH  27  31
HETATM   31  O   UNL     1     103.379 149.964 156.645  1.00  0.00    -0.272 OA
BRANCH  31  32
HETATM   32  C   UNL     1     102.266 150.354 157.421  1.00  0.00     0.298 C 
HETATM   33  O   UNL     1     102.032 151.340 158.062  1.00  0.00    -0.259 OA
BRANCH  32  34
HETATM   34  C   UNL     1     101.295 149.364 156.954  1.00  0.00     0.045 C 
HETATM   35  C   UNL     1     101.239 148.135 157.612  1.00  0.00     0.057 C 
HETATM   36  C   UNL     1     101.050 147.023 156.814  1.00  0.00     0.102 C 
HETATM   37  C   UNL     1     101.077 147.142 155.424  1.00  0.00     0.132 C 
HETATM   38  C   UNL     1     101.092 148.388 154.820  1.00  0.00     0.102 C 
HETATM   39  C   UNL     1     101.026 149.522 155.586  1.00  0.00     0.057 C 
BRANCH  36  40
HETATM   40  O   UNL     1     100.956 145.772 157.346  1.00  0.00    -0.358 OA
HETATM   41  H   UNL     1     100.520 145.882 158.212  1.00  0.00     0.217 HD
ENDBRANCH  36  40
BRANCH  37  42
HETATM   42  O   UNL     1     101.169 146.032 154.636  1.00  0.00    -0.356 OA
HETATM   43  H   UNL     1     102.036 145.641 154.872  1.00  0.00     0.218 HD
ENDBRANCH  37  42
BRANCH  38  44
HETATM   44  O   UNL     1     101.389 148.528 153.498  1.00  0.00    -0.358 OA
HETATM   45  H   UNL     1     101.101 147.692 153.082  1.00  0.00     0.217 HD
ENDBRANCH  38  44
ENDBRANCH  32  34
ENDBRANCH  31  32
ENDBRANCH  27  31
BRANCH  28  46
HETATM   46  O   UNL     1     105.278 152.073 156.084  1.00  0.00    -0.356 OA
HETATM   47  H   UNL     1     105.584 152.003 155.162  1.00  0.00     0.218 HD
ENDBRANCH  28  46
BRANCH  29  48
HETATM   48  O   UNL     1     107.970 151.477 156.433  1.00  0.00    -0.358 OA
HETATM   49  H   UNL     1     107.718 152.347 156.785  1.00  0.00     0.217 HD
ENDBRANCH  29  48
ENDBRANCH  23  25
ENDBRANCH  22  23
ENDBRANCH   5  22
BRANCH   6  50
HETATM   50  O   UNL     1     109.207 146.164 158.814  1.00  0.00    -0.304 OA
BRANCH  50  51
HETATM   51  C   UNL     1     110.510 146.477 158.566  1.00  0.00     0.294 C 
HETATM   52  O   UNL     1     111.520 146.146 159.153  1.00  0.00    -0.259 OA
BRANCH  51  53
HETATM   53  C   UNL     1     110.470 147.350 157.394  1.00  0.00     0.045 A 
HETATM   54  C   UNL     1     110.060 146.753 156.201  1.00  0.00     0.057 A 
HETATM   55  C   UNL     1     110.029 147.505 155.048  1.00  0.00     0.102 A 
HETATM   56  C   UNL     1     110.363 148.848 155.089  1.00  0.00     0.132 A 
HETATM   57  C   UNL     1     110.729 149.451 156.291  1.00  0.00     0.102 A 
HETATM   58  C   UNL     1     110.806 148.706 157.463  1.00  0.00     0.057 A 
BRANCH  55  59
HETATM   59  O   UNL     1     109.631 146.912 153.892  1.00  0.00    -0.358 OA
HETATM   60  H   UNL     1     108.749 147.289 153.708  1.00  0.00     0.217 HD
ENDBRANCH  55  59
BRANCH  56  61
HETATM   61  O   UNL     1     110.267 149.589 153.944  1.00  0.00    -0.356 OA
HETATM   62  H   UNL     1     110.755 150.411 154.153  1.00  0.00     0.218 HD
ENDBRANCH  56  61
BRANCH  57  63
HETATM   63  O   UNL     1     110.954 150.799 156.275  1.00  0.00    -0.358 OA
HETATM   64  H   UNL     1     110.083 151.238 156.289  1.00  0.00     0.217 HD
ENDBRANCH  57  63
ENDBRANCH  51  53
ENDBRANCH  50  51
ENDBRANCH   6  50
ENDBRANCH   2   4
BRANCH   2  65
HETATM   65  C   UNL     1     107.796 147.972 161.830  1.00  0.00     0.216 C 
BRANCH  65  66
HETATM   66  O   UNL     1     108.884 148.467 162.606  1.00  0.00    -0.315 OA
BRANCH  66  67
HETATM   67  C   UNL     1     109.890 148.928 161.855  1.00  0.00     0.293 C 
HETATM   68  O   UNL     1     109.795 149.416 160.746  1.00  0.00    -0.259 OA
BRANCH  67  69
HETATM   69  C   UNL     1     111.136 148.654 162.586  1.00  0.00     0.045 C 
HETATM   70  C   UNL     1     112.387 148.549 161.947  1.00  0.00     0.057 C 
HETATM   71  C   UNL     1     113.530 148.382 162.710  1.00  0.00     0.102 C 
HETATM   72  C   UNL     1     113.457 148.487 164.089  1.00  0.00     0.133 C 
HETATM   73  C   UNL     1     112.218 148.724 164.689  1.00  0.00     0.116 C 
HETATM   74  C   UNL     1     111.037 148.643 163.968  1.00  0.00     0.058 C 
BRANCH  71  75
HETATM   75  O   UNL     1     114.742 148.221 162.102  1.00  0.00    -0.358 OA
HETATM   76  H   UNL     1     114.923 147.262 162.174  1.00  0.00     0.217 HD
ENDBRANCH  71  75
BRANCH  72  77
HETATM   77  O   UNL     1     114.632 148.463 164.785  1.00  0.00    -0.356 OA
HETATM   78  H   UNL     1     115.208 147.790 164.371  1.00  0.00     0.218 HD
ENDBRANCH  72  77
BRANCH  73  79
HETATM   79  O   UNL     1     112.126 149.312 165.948  1.00  0.00    -0.272 OA
BRANCH  79  80
HETATM   80  C   UNL     1     111.732 150.620 165.706  1.00  0.00     0.298 C 
HETATM   81  O   UNL     1     110.628 151.046 166.010  1.00  0.00    -0.259 OA
BRANCH  80  82
HETATM   82  C   UNL     1     112.756 151.468 165.029  1.00  0.00     0.045 A 
HETATM   83  C   UNL     1     113.959 151.736 165.699  1.00  0.00     0.057 A 
HETATM   84  C   UNL     1     114.908 152.561 165.104  1.00  0.00     0.102 A 
HETATM   85  C   UNL     1     114.660 153.135 163.865  1.00  0.00     0.132 A 
HETATM   86  C   UNL     1     113.462 152.872 163.207  1.00  0.00     0.102 A 
HETATM   87  C   UNL     1     112.507 152.021 163.766  1.00  0.00     0.057 A 
BRANCH  84  88
HETATM   88  O   UNL     1     116.059 152.792 165.789  1.00  0.00    -0.358 OA
HETATM   89  H   UNL     1     116.115 152.184 166.556  1.00  0.00     0.217 HD
ENDBRANCH  84  88
BRANCH  85  90
HETATM   90  O   UNL     1     115.585 153.968 163.301  1.00  0.00    -0.356 OA
HETATM   91  H   UNL     1     116.192 154.224 164.024  1.00  0.00     0.218 HD
ENDBRANCH  85  90
BRANCH  86  92
HETATM   92  O   UNL     1     113.253 153.503 162.011  1.00  0.00    -0.358 OA
HETATM   93  H   UNL     1     113.888 153.139 161.368  1.00  0.00     0.217 HD
ENDBRANCH  86  92
ENDBRANCH  80  82
ENDBRANCH  79  80
ENDBRANCH  73  79
ENDBRANCH  67  69
ENDBRANCH  66  67
ENDBRANCH  65  66
ENDBRANCH   2  65
BRANCH   3  94
HETATM   94  O   UNL     1     107.792 144.843 164.190  1.00  0.00    -0.285 OA
BRANCH  94  95
HETATM   95  C   UNL     1     106.942 143.912 164.701  1.00  0.00     0.295 C 
HETATM   96  O   UNL     1     105.900 143.507 164.214  1.00  0.00    -0.259 OA
BRANCH  95  97
HETATM   97  C   UNL     1     107.476 143.458 165.977  1.00  0.00     0.045 A 
HETATM   98  C   UNL     1     108.856 143.492 166.192  1.00  0.00     0.057 A 
HETATM   99  C   UNL     1     109.336 143.163 167.443  1.00  0.00     0.102 A 
HETATM  100  C   UNL     1     108.459 142.748 168.440  1.00  0.00     0.132 A 
HETATM  101  C   UNL     1     107.090 142.662 168.196  1.00  0.00     0.102 A 
HETATM  102  C   UNL     1     106.582 143.024 166.959  1.00  0.00     0.057 A 
BRANCH  99 103
HETATM  103  O   UNL     1     110.670 143.282 167.698  1.00  0.00    -0.358 OA
HETATM  104  H   UNL     1     111.091 143.087 166.834  1.00  0.00     0.217 HD
ENDBRANCH  99 103
BRANCH 100 105
HETATM  105  O   UNL     1     108.964 142.428 169.670  1.00  0.00    -0.356 OA
HETATM  106  H   UNL     1     108.487 143.026 170.282  1.00  0.00     0.218 HD
ENDBRANCH 100 105
BRANCH 101 107
HETATM  107  O   UNL     1     106.278 142.237 169.207  1.00  0.00    -0.358 OA
HETATM  108  H   UNL     1     106.845 141.967 169.952  1.00  0.00     0.217 HD
ENDBRANCH 101 107
ENDBRANCH  95  97
ENDBRANCH  94  95
ENDBRANCH   3  94
TORSDOF 43
ENDMDL
MODEL 7
REMARK VINA RESULT:   -11.169      1.647      4.094
REMARK INTER + INTRA:         -32.886
REMARK INTER:                 -33.455
REMARK INTRA:                   0.569
REMARK UNBOUND:                -2.456
REMARK WARNING: 32 MAX_TORS EXCEEDED!!!
REMARK  43 active torsions:
REMARK  status: ('A' for Active; 'I' for Inactive)
REMARK    1  A    between atoms: O_2  and  C_27 
REMARK    2  A    between atoms: O_2  and  C_33 
REMARK    3  A    between atoms: O_3  and  C_28 
REMARK    4  A    between atoms: O_3  and  C_34 
REMARK    5  A    between atoms: O_4  and  C_29 
REMARK    6  A    between atoms: O_4  and  C_35 
REMARK    7  A    between atoms: O_5  and  C_31 
REMARK    8  A    between atoms: O_5  and  C_36 
REMARK    9  A    between atoms: O_6  and  C_32 
REMARK   10  A    between atoms: O_6  and  C_39 
REMARK   11  A    between atoms: O_12  and  C_51 
REMARK   12  A    between atoms: O_13  and  C_52 
REMARK   13  A    between atoms: O_13  and  C_99 
REMARK   14  A    between atoms: O_14  and  C_53 
REMARK   15  A    between atoms: O_15  and  C_54 
REMARK   16  A    between atoms: O_16  and  C_55 
REMARK   17  A    between atoms: O_17  and  C_56 
REMARK   18  A    between atoms: O_18  and  C_59 
REMARK   19  A    between atoms: O_19  and  C_60 
REMARK   20  A    between atoms: O_20  and  C_61 
REMARK   21  A    between atoms: O_21  and  C_62 
REMARK   22  A    between atoms: O_22  and  C_63 
REMARK   23  A    between atoms: O_23  and  C_64 
REMARK   24  A    between atoms: O_24  and  C_65 
REMARK   25  A    between atoms: O_24  and  C_85 
REMARK   26  A    between atoms: O_25  and  C_66 
REMARK   27  A    between atoms: O_26  and  C_67 
REMARK   28  A    between atoms: C_28  and  C_30 
REMARK   29  A    between atoms: C_29  and  C_31 
REMARK   30  A    between atoms: C_30  and  C_32 
REMARK   31  A    between atoms: C_33  and  C_37 
REMARK   32  A    between atoms: C_34  and  C_38 
REMARK   33  A    between atoms: C_35  and  C_40 
REMARK   34  A    between atoms: C_36  and  C_41 
REMARK   35  A    between atoms: C_39  and  C_42 
REMARK   36  A    between atoms: O_82  and  C_89 
REMARK   37  A    between atoms: O_83  and  C_90 
REMARK   38  A    between atoms: O_84  and  C_91 
REMARK   39  A    between atoms: C_85  and  C_86 
REMARK   40  A    between atoms: O_96  and  C_103 
REMARK   41  A    between atoms: O_97  and  C_104 
REMARK   42  A    between atoms: O_98  and  C_105 
REMARK   43  A    between atoms: C_99  and  C_100 
ROOT
HETATM    1  O   UNL     1     108.022 145.169 161.963  1.00  0.00    -0.348 OA
HETATM    2  C   UNL     1     106.990 146.051 161.827  1.00  0.00     0.201 A 
HETATM    3  C   UNL     1     106.909 144.919 162.695  1.00  0.00     0.282 A 
ENDROOT
BRANCH   2   4
HETATM    4  C   UNL     1     106.290 145.818 161.458  1.00  0.00     0.199 A 
HETATM    5  C   UNL     1     105.641 147.094 160.711  1.00  0.00     0.198 A 
HETATM    6  C   UNL     1     106.783 146.310 160.210  1.00  0.00     0.215 A 
BRANCH   4   7
HETATM    7  O   UNL     1     105.276 146.338 162.768  1.00  0.00    -0.306 OA
BRANCH   7   8
HETATM    8  C   UNL     1     104.128 146.203 163.414  1.00  0.00     0.294 C 
HETATM    9  O   UNL     1     103.177 146.956 163.241  1.00  0.00    -0.259 OA
BRANCH   8  10
HETATM   10  C   UNL     1     103.945 145.044 164.270  1.00  0.00     0.045 A 
HETATM   11  C   UNL     1     103.841 145.276 165.648  1.00  0.00     0.057 A 
HETATM   12  C   UNL     1     103.213 144.330 166.437  1.00  0.00     0.102 A 
HETATM   13  C   UNL     1     102.736 143.160 165.859  1.00  0.00     0.132 A 
HETATM   14  C   UNL     1     102.963 142.889 164.512  1.00  0.00     0.102 A 
HETATM   15  C   UNL     1     103.547 143.839 163.694  1.00  0.00     0.057 A 
BRANCH  12  16
HETATM   16  O   UNL     1     103.000 144.535 167.770  1.00  0.00    -0.358 OA
HETATM   17  H   UNL     1     102.093 144.234 167.968  1.00  0.00     0.217 HD
ENDBRANCH  12  16
BRANCH  13  18
HETATM   18  O   UNL     1     101.981 142.282 166.587  1.00  0.00    -0.356 OA
HETATM   19  H   UNL     1     102.539 141.477 166.631  1.00  0.00     0.218 HD
ENDBRANCH  13  18
BRANCH  14  20
HETATM   20  O   UNL     1     102.551 141.699 163.987  1.00  0.00    -0.358 OA
HETATM   21  H   UNL     1     102.656 141.068 164.726  1.00  0.00     0.217 HD
ENDBRANCH  14  20
ENDBRANCH   8  10
ENDBRANCH   7   8
ENDBRANCH   4   7
BRANCH   5  22
HETATM   22  O   UNL     1     104.391 146.803 160.038  1.00  0.00    -0.306 OA
BRANCH  22  23
HETATM   23  C   UNL     1     103.644 147.868 159.681  1.00  0.00     0.294 C 
HETATM   24  O   UNL     1     102.969 148.663 160.323  1.00  0.00    -0.259 OA
BRANCH  23  25
HETATM   25  C   UNL     1     103.694 148.006 158.283  1.00  0.00     0.045 C 
HETATM   26  C   UNL     1     103.869 149.329 157.968  1.00  0.00     0.058 C 
HETATM   27  C   UNL     1     103.003 149.788 157.027  1.00  0.00     0.116 C 
HETATM   28  C   UNL     1     102.397 148.891 156.127  1.00  0.00     0.133 C 
HETATM   29  C   UNL     1     102.431 147.521 156.382  1.00  0.00     0.102 C 
HETATM   30  C   UNL     1     102.957 147.084 157.559  1.00  0.00     0.057 C 
BRANCH  27  31
HETATM   31  O   UNL     1     102.579 151.123 157.099  1.00  0.00    -0.272 OA
BRANCH  31  32
HETATM   32  C   UNL     1     103.152 152.106 156.264  1.00  0.00     0.298 C 
HETATM   33  O   UNL     1     104.223 152.193 155.733  1.00  0.00    -0.259 OA
BRANCH  32  34
HETATM   34  C   UNL     1     101.943 152.856 155.920  1.00  0.00     0.045 C 
HETATM   35  C   UNL     1     100.752 152.148 155.762  1.00  0.00     0.057 C 
HETATM   36  C   UNL     1      99.929 152.560 154.731  1.00  0.00     0.102 C 
HETATM   37  C   UNL     1     100.367 153.525 153.824  1.00  0.00     0.132 C 
HETATM   38  C   UNL     1     101.539 154.227 154.048  1.00  0.00     0.102 C 
HETATM   39  C   UNL     1     102.255 154.018 155.198  1.00  0.00     0.057 C 
BRANCH  36  40
HETATM   40  O   UNL     1      98.729 151.959 154.494  1.00  0.00    -0.358 OA
HETATM   41  H   UNL     1      98.388 151.691 155.368  1.00  0.00     0.217 HD
ENDBRANCH  36  40
BRANCH  37  42
HETATM   42  O   UNL     1      99.691 153.736 152.658  1.00  0.00    -0.356 OA
HETATM   43  H   UNL     1      99.482 154.693 152.671  1.00  0.00     0.218 HD
ENDBRANCH  37  42
BRANCH  38  44
HETATM   44  O   UNL     1     102.120 154.965 153.061  1.00  0.00    -0.358 OA
HETATM   45  H   UNL     1     103.057 154.688 153.054  1.00  0.00     0.217 HD
ENDBRANCH  38  44
ENDBRANCH  32  34
ENDBRANCH  31  32
ENDBRANCH  27  31
BRANCH  28  46
HETATM   46  O   UNL     1     101.753 149.309 155.002  1.00  0.00    -0.356 OA
HETATM   47  H   UNL     1     102.010 150.239 154.861  1.00  0.00     0.218 HD
ENDBRANCH  28  46
BRANCH  29  48
HETATM   48  O   UNL     1     101.899 146.589 155.552  1.00  0.00    -0.358 OA
HETATM   49  H   UNL     1     102.287 145.745 155.839  1.00  0.00     0.217 HD
ENDBRANCH  29  48
ENDBRANCH  23  25
ENDBRANCH  22  23
ENDBRANCH   5  22
BRANCH   6  50
HETATM   50  O   UNL     1     106.978 146.719 158.620  1.00  0.00    -0.304 OA
BRANCH  50  51
HETATM   51  C   UNL     1     108.078 146.569 157.828  1.00  0.00     0.294 C 
HETATM   52  O   UNL     1     108.703 145.569 157.538  1.00  0.00    -0.259 OA
BRANCH  51  53
HETATM   53  C   UNL     1     108.397 147.919 157.368  1.00  0.00     0.045 A 
HETATM   54  C   UNL     1     109.740 148.162 157.075  1.00  0.00     0.057 A 
HETATM   55  C   UNL     1     110.122 149.421 156.669  1.00  0.00     0.102 A 
HETATM   56  C   UNL     1     109.172 150.416 156.513  1.00  0.00     0.132 A 
HETATM   57  C   UNL     1     107.825 150.156 156.764  1.00  0.00     0.102 A 
HETATM   58  C   UNL     1     107.418 148.905 157.213  1.00  0.00     0.057 A 
BRANCH  55  59
HETATM   59  O   UNL     1     111.433 149.647 156.389  1.00  0.00    -0.358 OA
HETATM   60  H   UNL     1     111.443 150.500 155.912  1.00  0.00     0.217 HD
ENDBRANCH  55  59
BRANCH  56  61
HETATM   61  O   UNL     1     109.565 151.641 156.050  1.00  0.00    -0.356 OA
HETATM   62  H   UNL     1     110.438 151.783 156.470  1.00  0.00     0.218 HD
ENDBRANCH  56  61
BRANCH  57  63
HETATM   63  O   UNL     1     106.933 151.157 156.501  1.00  0.00    -0.358 OA
HETATM   64  H   UNL     1     106.308 151.193 157.249  1.00  0.00     0.217 HD
ENDBRANCH  57  63
ENDBRANCH  51  53
ENDBRANCH  50  51
ENDBRANCH   6  50
ENDBRANCH   2   4
BRANCH   2  65
HETATM   65  C   UNL     1     106.827 147.667 162.110  1.00  0.00     0.216 C 
BRANCH  65  66
HETATM   66  O   UNL     1     108.124 148.116 162.496  1.00  0.00    -0.315 OA
BRANCH  66  67
HETATM   67  C   UNL     1     108.800 148.677 161.488  1.00  0.00     0.293 C 
HETATM   68  O   UNL     1     108.341 149.408 160.631  1.00  0.00    -0.259 OA
BRANCH  67  69
HETATM   69  C   UNL     1     110.180 148.175 161.560  1.00  0.00     0.045 C 
HETATM   70  C   UNL     1     110.656 147.133 160.741  1.00  0.00     0.057 C 
HETATM   71  C   UNL     1     111.992 146.775 160.801  1.00  0.00     0.102 C 
HETATM   72  C   UNL     1     112.878 147.548 161.532  1.00  0.00     0.133 C 
HETATM   73  C   UNL     1     112.397 148.658 162.231  1.00  0.00     0.116 C 
HETATM   74  C   UNL     1     111.038 148.882 162.387  1.00  0.00     0.058 C 
BRANCH  71  75
HETATM   75  O   UNL     1     112.455 145.730 160.054  1.00  0.00    -0.358 OA
HETATM   76  H   UNL     1     113.220 145.390 160.564  1.00  0.00     0.217 HD
ENDBRANCH  71  75
BRANCH  72  77
HETATM   77  O   UNL     1     114.206 147.242 161.439  1.00  0.00    -0.356 OA
HETATM   78  H   UNL     1     114.686 148.067 161.228  1.00  0.00     0.218 HD
ENDBRANCH  72  77
BRANCH  73  79
HETATM   79  O   UNL     1     113.233 149.721 162.562  1.00  0.00    -0.272 OA
BRANCH  79  80
HETATM   80  C   UNL     1     113.860 149.334 163.737  1.00  0.00     0.298 C 
HETATM   81  O   UNL     1     114.921 148.728 163.753  1.00  0.00    -0.259 OA
BRANCH  80  82
HETATM   82  C   UNL     1     113.131 149.699 164.987  1.00  0.00     0.045 A 
HETATM   83  C   UNL     1     113.220 148.844 166.095  1.00  0.00     0.057 A 
HETATM   84  C   UNL     1     112.511 149.144 167.254  1.00  0.00     0.102 A 
HETATM   85  C   UNL     1     111.703 150.270 167.309  1.00  0.00     0.132 A 
HETATM   86  C   UNL     1     111.612 151.113 166.205  1.00  0.00     0.102 A 
HETATM   87  C   UNL     1     112.338 150.853 165.042  1.00  0.00     0.057 A 
BRANCH  84  88
HETATM   88  O   UNL     1     112.629 148.287 168.302  1.00  0.00    -0.358 OA
HETATM   89  H   UNL     1     112.771 148.793 169.130  1.00  0.00     0.217 HD
ENDBRANCH  84  88
BRANCH  85  90
HETATM   90  O   UNL     1     110.988 150.542 168.442  1.00  0.00    -0.356 OA
HETATM   91  H   UNL     1     111.348 149.952 169.135  1.00  0.00     0.218 HD
ENDBRANCH  85  90
BRANCH  86  92
HETATM   92  O   UNL     1     110.764 152.182 166.302  1.00  0.00    -0.358 OA
HETATM   93  H   UNL     1     110.724 152.446 167.239  1.00  0.00     0.217 HD
ENDBRANCH  86  92
ENDBRANCH  80  82
ENDBRANCH  79  80
ENDBRANCH  73  79
ENDBRANCH  67  69
ENDBRANCH  66  67
ENDBRANCH  65  66
ENDBRANCH   2  65
BRANCH   3  94
HETATM   94  O   UNL     1     107.636 144.253 163.855  1.00  0.00    -0.285 OA
BRANCH  94  95
HETATM   95  C   UNL     1     107.154 143.063 164.306  1.00  0.00     0.295 C 
HETATM   96  O   UNL     1     106.501 142.241 163.686  1.00  0.00    -0.259 OA
BRANCH  95  97
HETATM   97  C   UNL     1     107.543 142.912 165.701  1.00  0.00     0.045 A 
HETATM   98  C   UNL     1     108.881 143.089 166.061  1.00  0.00     0.057 A 
HETATM   99  C   UNL     1     109.212 143.052 167.400  1.00  0.00     0.102 A 
HETATM  100  C   UNL     1     108.237 142.780 168.353  1.00  0.00     0.132 A 
HETATM  101  C   UNL     1     106.916 142.549 167.977  1.00  0.00     0.102 A 
HETATM  102  C   UNL     1     106.553 142.618 166.642  1.00  0.00     0.057 A 
BRANCH  99 103
HETATM  103  O   UNL     1     110.496 143.316 167.776  1.00  0.00    -0.358 OA
HETATM  104  H   UNL     1     110.396 143.932 168.532  1.00  0.00     0.217 HD
ENDBRANCH  99 103
BRANCH 100 105
HETATM  105  O   UNL     1     108.596 142.750 169.673  1.00  0.00    -0.356 OA
HETATM  106  H   UNL     1     109.561 142.916 169.657  1.00  0.00     0.218 HD
ENDBRANCH 100 105
BRANCH 101 107
HETATM  107  O   UNL     1     106.002 142.275 168.953  1.00  0.00    -0.358 OA
HETATM  108  H   UNL     1     105.562 143.111 169.192  1.00  0.00     0.217 HD
ENDBRANCH 101 107
ENDBRANCH  95  97
ENDBRANCH  94  95
ENDBRANCH   3  94
TORSDOF 43
ENDMDL
MODEL 8
REMARK VINA RESULT:   -11.090     19.790     27.493
REMARK INTER + INTRA:         -32.671
REMARK INTER:                 -31.525
REMARK INTRA:                  -1.146
REMARK UNBOUND:                -2.456
REMARK WARNING: 32 MAX_TORS EXCEEDED!!!
REMARK  43 active torsions:
REMARK  status: ('A' for Active; 'I' for Inactive)
REMARK    1  A    between atoms: O_2  and  C_27 
REMARK    2  A    between atoms: O_2  and  C_33 
REMARK    3  A    between atoms: O_3  and  C_28 
REMARK    4  A    between atoms: O_3  and  C_34 
REMARK    5  A    between atoms: O_4  and  C_29 
REMARK    6  A    between atoms: O_4  and  C_35 
REMARK    7  A    between atoms: O_5  and  C_31 
REMARK    8  A    between atoms: O_5  and  C_36 
REMARK    9  A    between atoms: O_6  and  C_32 
REMARK   10  A    between atoms: O_6  and  C_39 
REMARK   11  A    between atoms: O_12  and  C_51 
REMARK   12  A    between atoms: O_13  and  C_52 
REMARK   13  A    between atoms: O_13  and  C_99 
REMARK   14  A    between atoms: O_14  and  C_53 
REMARK   15  A    between atoms: O_15  and  C_54 
REMARK   16  A    between atoms: O_16  and  C_55 
REMARK   17  A    between atoms: O_17  and  C_56 
REMARK   18  A    between atoms: O_18  and  C_59 
REMARK   19  A    between atoms: O_19  and  C_60 
REMARK   20  A    between atoms: O_20  and  C_61 
REMARK   21  A    between atoms: O_21  and  C_62 
REMARK   22  A    between atoms: O_22  and  C_63 
REMARK   23  A    between atoms: O_23  and  C_64 
REMARK   24  A    between atoms: O_24  and  C_65 
REMARK   25  A    between atoms: O_24  and  C_85 
REMARK   26  A    between atoms: O_25  and  C_66 
REMARK   27  A    between atoms: O_26  and  C_67 
REMARK   28  A    between atoms: C_28  and  C_30 
REMARK   29  A    between atoms: C_29  and  C_31 
REMARK   30  A    between atoms: C_30  and  C_32 
REMARK   31  A    between atoms: C_33  and  C_37 
REMARK   32  A    between atoms: C_34  and  C_38 
REMARK   33  A    between atoms: C_35  and  C_40 
REMARK   34  A    between atoms: C_36  and  C_41 
REMARK   35  A    between atoms: C_39  and  C_42 
REMARK   36  A    between atoms: O_82  and  C_89 
REMARK   37  A    between atoms: O_83  and  C_90 
REMARK   38  A    between atoms: O_84  and  C_91 
REMARK   39  A    between atoms: C_85  and  C_86 
REMARK   40  A    between atoms: O_96  and  C_103 
REMARK   41  A    between atoms: O_97  and  C_104 
REMARK   42  A    between atoms: O_98  and  C_105 
REMARK   43  A    between atoms: C_99  and  C_100 
ROOT
HETATM    1  O   UNL     1     127.757 149.879 145.076  1.00  0.00    -0.348 OA
HETATM    2  C   UNL     1     127.460 151.078 145.655  1.00  0.00     0.201 A 
HETATM    3  C   UNL     1     128.493 150.945 144.677  1.00  0.00     0.282 A 
ENDROOT
BRANCH   2   4
HETATM    4  C   UNL     1     127.995 151.435 146.172  1.00  0.00     0.199 A 
HETATM    5  C   UNL     1     127.232 151.796 147.548  1.00  0.00     0.198 A 
HETATM    6  C   UNL     1     127.692 150.451 147.163  1.00  0.00     0.215 A 
BRANCH   4   7
HETATM    7  O   UNL     1     127.533 153.051 145.740  1.00  0.00    -0.306 OA
BRANCH   7   8
HETATM    8  C   UNL     1     127.823 154.343 145.772  1.00  0.00     0.294 C 
HETATM    9  O   UNL     1     127.379 155.101 146.626  1.00  0.00    -0.259 OA
BRANCH   8  10
HETATM   10  C   UNL     1     128.805 154.858 144.833  1.00  0.00     0.045 A 
HETATM   11  C   UNL     1     130.091 154.308 144.887  1.00  0.00     0.057 A 
HETATM   12  C   UNL     1     130.899 154.394 143.768  1.00  0.00     0.102 A 
HETATM   13  C   UNL     1     130.437 155.053 142.635  1.00  0.00     0.132 A 
HETATM   14  C   UNL     1     129.207 155.705 142.645  1.00  0.00     0.102 A 
HETATM   15  C   UNL     1     128.363 155.594 143.736  1.00  0.00     0.057 A 
BRANCH  12  16
HETATM   16  O   UNL     1     132.128 153.800 143.723  1.00  0.00    -0.358 OA
HETATM   17  H   UNL     1     131.984 152.835 143.735  1.00  0.00     0.217 HD
ENDBRANCH  12  16
BRANCH  13  18
HETATM   18  O   UNL     1     131.153 155.020 141.470  1.00  0.00    -0.356 OA
HETATM   19  H   UNL     1     131.100 155.941 141.140  1.00  0.00     0.218 HD
ENDBRANCH  13  18
BRANCH  14  20
HETATM   20  O   UNL     1     128.810 156.410 141.546  1.00  0.00    -0.358 OA
HETATM   21  H   UNL     1     128.385 157.207 141.921  1.00  0.00     0.217 HD
ENDBRANCH  14  20
ENDBRANCH   8  10
ENDBRANCH   7   8
ENDBRANCH   4   7
BRANCH   5  22
HETATM   22  O   UNL     1     128.077 152.446 148.531  1.00  0.00    -0.306 OA
BRANCH  22  23
HETATM   23  C   UNL     1     127.588 152.513 149.786  1.00  0.00     0.294 C 
HETATM   24  O   UNL     1     126.473 152.752 150.232  1.00  0.00    -0.259 OA
BRANCH  23  25
HETATM   25  C   UNL     1     128.636 152.268 150.691  1.00  0.00     0.045 C 
HETATM   26  C   UNL     1     129.794 152.052 149.990  1.00  0.00     0.058 C 
HETATM   27  C   UNL     1     130.472 150.941 150.379  1.00  0.00     0.116 C 
HETATM   28  C   UNL     1     130.286 150.417 151.672  1.00  0.00     0.133 C 
HETATM   29  C   UNL     1     129.200 150.832 152.441  1.00  0.00     0.102 C 
HETATM   30  C   UNL     1     128.275 151.658 151.881  1.00  0.00     0.057 C 
BRANCH  27  31
HETATM   31  O   UNL     1     131.196 150.224 149.415  1.00  0.00    -0.272 OA
BRANCH  31  32
HETATM   32  C   UNL     1     131.986 150.899 148.460  1.00  0.00     0.298 C 
HETATM   33  O   UNL     1     132.626 151.911 148.508  1.00  0.00    -0.259 OA
BRANCH  32  34
HETATM   34  C   UNL     1     132.108 149.835 147.462  1.00  0.00     0.045 C 
HETATM   35  C   UNL     1     130.959 149.436 146.781  1.00  0.00     0.057 C 
HETATM   36  C   UNL     1     130.826 148.080 146.549  1.00  0.00     0.102 C 
HETATM   37  C   UNL     1     131.728 147.178 147.113  1.00  0.00     0.132 C 
HETATM   38  C   UNL     1     132.876 147.626 147.745  1.00  0.00     0.102 C 
HETATM   39  C   UNL     1     133.165 148.966 147.773  1.00  0.00     0.057 C 
BRANCH  36  40
HETATM   40  O   UNL     1     129.756 147.574 145.873  1.00  0.00    -0.358 OA
HETATM   41  H   UNL     1     129.877 147.842 144.943  1.00  0.00     0.217 HD
ENDBRANCH  36  40
BRANCH  37  42
HETATM   42  O   UNL     1     131.455 145.841 147.125  1.00  0.00    -0.356 OA
HETATM   43  H   UNL     1     131.847 145.523 147.964  1.00  0.00     0.218 HD
ENDBRANCH  37  42
BRANCH  38  44
HETATM   44  O   UNL     1     133.620 146.797 148.529  1.00  0.00    -0.358 OA
HETATM   45  H   UNL     1     133.888 146.063 147.942  1.00  0.00     0.217 HD
ENDBRANCH  38  44
ENDBRANCH  32  34
ENDBRANCH  31  32
ENDBRANCH  27  31
BRANCH  28  46
HETATM   46  O   UNL     1     131.129 149.493 152.213  1.00  0.00    -0.356 OA
HETATM   47  H   UNL     1     130.852 149.368 153.139  1.00  0.00     0.218 HD
ENDBRANCH  28  46
BRANCH  29  48
HETATM   48  O   UNL     1     128.966 150.399 153.706  1.00  0.00    -0.358 OA
HETATM   49  H   UNL     1     129.228 151.140 154.277  1.00  0.00     0.217 HD
ENDBRANCH  29  48
ENDBRANCH  23  25
ENDBRANCH  22  23
ENDBRANCH   5  22
BRANCH   6  50
HETATM   50  O   UNL     1     127.648 149.525 148.533  1.00  0.00    -0.304 OA
BRANCH  50  51
HETATM   51  C   UNL     1     127.363 148.198 148.659  1.00  0.00     0.294 C 
HETATM   52  O   UNL     1     128.061 147.225 148.459  1.00  0.00    -0.259 OA
BRANCH  51  53
HETATM   53  C   UNL     1     125.969 148.154 149.095  1.00  0.00     0.045 A 
HETATM   54  C   UNL     1     125.301 146.947 148.883  1.00  0.00     0.057 A 
HETATM   55  C   UNL     1     123.974 146.840 149.238  1.00  0.00     0.102 A 
HETATM   56  C   UNL     1     123.331 147.910 149.838  1.00  0.00     0.132 A 
HETATM   57  C   UNL     1     124.014 149.098 150.089  1.00  0.00     0.102 A 
HETATM   58  C   UNL     1     125.342 149.246 149.705  1.00  0.00     0.057 A 
BRANCH  55  59
HETATM   59  O   UNL     1     123.333 145.661 149.023  1.00  0.00    -0.358 OA
HETATM   60  H   UNL     1     122.578 145.889 148.446  1.00  0.00     0.217 HD
ENDBRANCH  55  59
BRANCH  56  61
HETATM   61  O   UNL     1     122.032 147.761 150.237  1.00  0.00    -0.356 OA
HETATM   62  H   UNL     1     122.091 147.685 151.211  1.00  0.00     0.218 HD
ENDBRANCH  56  61
BRANCH  57  63
HETATM   63  O   UNL     1     123.344 150.077 150.767  1.00  0.00    -0.358 OA
HETATM   64  H   UNL     1     122.530 149.676 151.126  1.00  0.00     0.217 HD
ENDBRANCH  57  63
ENDBRANCH  51  53
ENDBRANCH  50  51
ENDBRANCH   6  50
ENDBRANCH   2   4
BRANCH   2  65
HETATM   65  C   UNL     1     126.105 152.017 145.701  1.00  0.00     0.216 C 
BRANCH  65  66
HETATM   66  O   UNL     1     125.061 151.200 145.175  1.00  0.00    -0.315 OA
BRANCH  66  67
HETATM   67  C   UNL     1     123.974 151.182 145.954  1.00  0.00     0.293 C 
HETATM   68  O   UNL     1     123.728 151.949 146.864  1.00  0.00    -0.259 OA
BRANCH  67  69
HETATM   69  C   UNL     1     123.179 150.009 145.560  1.00  0.00     0.045 C 
HETATM   70  C   UNL     1     123.509 148.698 145.953  1.00  0.00     0.057 C 
HETATM   71  C   UNL     1     122.663 147.654 145.621  1.00  0.00     0.102 C 
HETATM   72  C   UNL     1     121.427 147.923 145.058  1.00  0.00     0.133 C 
HETATM   73  C   UNL     1     121.071 149.250 144.799  1.00  0.00     0.116 C 
HETATM   74  C   UNL     1     121.997 150.278 144.890  1.00  0.00     0.058 C 
BRANCH  71  75
HETATM   75  O   UNL     1     122.998 146.370 145.946  1.00  0.00    -0.358 OA
HETATM   76  H   UNL     1     122.184 146.003 146.349  1.00  0.00     0.217 HD
ENDBRANCH  71  75
BRANCH  72  77
HETATM   77  O   UNL     1     120.570 146.874 144.887  1.00  0.00    -0.356 OA
HETATM   78  H   UNL     1     120.991 146.081 145.274  1.00  0.00     0.218 HD
ENDBRANCH  72  77
BRANCH  73  79
HETATM   79  O   UNL     1     119.736 149.636 144.710  1.00  0.00    -0.272 OA
BRANCH  79  80
HETATM   80  C   UNL     1     119.594 150.142 143.426  1.00  0.00     0.298 C 
HETATM   81  O   UNL     1     120.246 149.732 142.477  1.00  0.00    -0.259 OA
BRANCH  80  82
HETATM   82  C   UNL     1     118.591 151.238 143.292  1.00  0.00     0.045 A 
HETATM   83  C   UNL     1     118.390 152.105 144.376  1.00  0.00     0.057 A 
HETATM   84  C   UNL     1     117.428 153.106 144.287  1.00  0.00     0.102 A 
HETATM   85  C   UNL     1     116.655 153.235 143.142  1.00  0.00     0.132 A 
HETATM   86  C   UNL     1     116.854 152.369 142.070  1.00  0.00     0.102 A 
HETATM   87  C   UNL     1     117.835 151.378 142.121  1.00  0.00     0.057 A 
BRANCH  84  88
HETATM   88  O   UNL     1     117.268 153.922 145.361  1.00  0.00    -0.358 OA
HETATM   89  H   UNL     1     118.124 154.346 145.586  1.00  0.00     0.217 HD
ENDBRANCH  84  88
BRANCH  85  90
HETATM   90  O   UNL     1     115.692 154.202 143.074  1.00  0.00    -0.356 OA
HETATM   91  H   UNL     1     115.373 154.329 143.990  1.00  0.00     0.218 HD
ENDBRANCH  85  90
BRANCH  86  92
HETATM   92  O   UNL     1     116.031 152.514 140.987  1.00  0.00    -0.358 OA
HETATM   93  H   UNL     1     115.671 151.635 140.767  1.00  0.00     0.217 HD
ENDBRANCH  86  92
ENDBRANCH  80  82
ENDBRANCH  79  80
ENDBRANCH  73  79
ENDBRANCH  67  69
ENDBRANCH  66  67
ENDBRANCH  65  66
ENDBRANCH   2  65
BRANCH   3  94
HETATM   94  O   UNL     1     128.736 150.442 143.261  1.00  0.00    -0.285 OA
BRANCH  94  95
HETATM   95  C   UNL     1     130.025 150.336 142.838  1.00  0.00     0.295 C 
HETATM   96  O   UNL     1     130.926 151.144 142.984  1.00  0.00    -0.259 OA
BRANCH  95  97
HETATM   97  C   UNL     1     130.175 149.063 142.147  1.00  0.00     0.045 A 
HETATM   98  C   UNL     1     131.383 148.768 141.511  1.00  0.00     0.057 A 
HETATM   99  C   UNL     1     131.547 147.515 140.957  1.00  0.00     0.102 A 
HETATM  100  C   UNL     1     130.501 146.599 140.983  1.00  0.00     0.132 A 
HETATM  101  C   UNL     1     129.280 146.925 141.569  1.00  0.00     0.102 A 
HETATM  102  C   UNL     1     129.106 148.163 142.165  1.00  0.00     0.057 A 
BRANCH  99 103
HETATM  103  O   UNL     1     132.753 147.178 140.417  1.00  0.00    -0.358 OA
HETATM  104  H   UNL     1     132.641 147.365 139.461  1.00  0.00     0.217 HD
ENDBRANCH  99 103
BRANCH 100 105
HETATM  105  O   UNL     1     130.693 145.364 140.425  1.00  0.00    -0.356 OA
HETATM  106  H   UNL     1     130.610 145.527 139.462  1.00  0.00     0.218 HD
ENDBRANCH 100 105
BRANCH 101 107
HETATM  107  O   UNL     1     128.284 145.991 141.555  1.00  0.00    -0.358 OA
HETATM  108  H   UNL     1     127.447 146.446 141.758  1.00  0.00     0.217 HD
ENDBRANCH 101 107
ENDBRANCH  95  97
ENDBRANCH  94  95
ENDBRANCH   3  94
TORSDOF 43
ENDMDL
MODEL 9
REMARK VINA RESULT:   -11.051     20.330     27.918
REMARK INTER + INTRA:         -32.566
REMARK INTER:                 -29.667
REMARK INTRA:                  -2.900
REMARK UNBOUND:                -2.456
REMARK WARNING: 32 MAX_TORS EXCEEDED!!!
REMARK  43 active torsions:
REMARK  status: ('A' for Active; 'I' for Inactive)
REMARK    1  A    between atoms: O_2  and  C_27 
REMARK    2  A    between atoms: O_2  and  C_33 
REMARK    3  A    between atoms: O_3  and  C_28 
REMARK    4  A    between atoms: O_3  and  C_34 
REMARK    5  A    between atoms: O_4  and  C_29 
REMARK    6  A    between atoms: O_4  and  C_35 
REMARK    7  A    between atoms: O_5  and  C_31 
REMARK    8  A    between atoms: O_5  and  C_36 
REMARK    9  A    between atoms: O_6  and  C_32 
REMARK   10  A    between atoms: O_6  and  C_39 
REMARK   11  A    between atoms: O_12  and  C_51 
REMARK   12  A    between atoms: O_13  and  C_52 
REMARK   13  A    between atoms: O_13  and  C_99 
REMARK   14  A    between atoms: O_14  and  C_53 
REMARK   15  A    between atoms: O_15  and  C_54 
REMARK   16  A    between atoms: O_16  and  C_55 
REMARK   17  A    between atoms: O_17  and  C_56 
REMARK   18  A    between atoms: O_18  and  C_59 
REMARK   19  A    between atoms: O_19  and  C_60 
REMARK   20  A    between atoms: O_20  and  C_61 
REMARK   21  A    between atoms: O_21  and  C_62 
REMARK   22  A    between atoms: O_22  and  C_63 
REMARK   23  A    between atoms: O_23  and  C_64 
REMARK   24  A    between atoms: O_24  and  C_65 
REMARK   25  A    between atoms: O_24  and  C_85 
REMARK   26  A    between atoms: O_25  and  C_66 
REMARK   27  A    between atoms: O_26  and  C_67 
REMARK   28  A    between atoms: C_28  and  C_30 
REMARK   29  A    between atoms: C_29  and  C_31 
REMARK   30  A    between atoms: C_30  and  C_32 
REMARK   31  A    between atoms: C_33  and  C_37 
REMARK   32  A    between atoms: C_34  and  C_38 
REMARK   33  A    between atoms: C_35  and  C_40 
REMARK   34  A    between atoms: C_36  and  C_41 
REMARK   35  A    between atoms: C_39  and  C_42 
REMARK   36  A    between atoms: O_82  and  C_89 
REMARK   37  A    between atoms: O_83  and  C_90 
REMARK   38  A    between atoms: O_84  and  C_91 
REMARK   39  A    between atoms: C_85  and  C_86 
REMARK   40  A    between atoms: O_96  and  C_103 
REMARK   41  A    between atoms: O_97  and  C_104 
REMARK   42  A    between atoms: O_98  and  C_105 
REMARK   43  A    between atoms: C_99  and  C_100 
ROOT
HETATM    1  O   UNL     1     127.343 149.884 146.868  1.00  0.00    -0.348 OA
HETATM    2  C   UNL     1     128.682 149.683 147.031  1.00  0.00     0.201 A 
HETATM    3  C   UNL     1     128.092 149.847 145.740  1.00  0.00     0.282 A 
ENDROOT
BRANCH   2   4
HETATM    4  C   UNL     1     129.030 148.977 146.782  1.00  0.00     0.199 A 
HETATM    5  C   UNL     1     129.954 148.400 147.974  1.00  0.00     0.198 A 
HETATM    6  C   UNL     1     128.485 148.307 147.920  1.00  0.00     0.215 A 
BRANCH   4   7
HETATM    7  O   UNL     1     130.513 149.733 146.286  1.00  0.00    -0.306 OA
BRANCH   7   8
HETATM    8  C   UNL     1     131.521 149.760 145.428  1.00  0.00     0.294 C 
HETATM    9  O   UNL     1     132.283 148.813 145.271  1.00  0.00    -0.259 OA
BRANCH   8  10
HETATM   10  C   UNL     1     131.655 150.909 144.550  1.00  0.00     0.045 A 
HETATM   11  C   UNL     1     131.074 152.110 144.975  1.00  0.00     0.057 A 
HETATM   12  C   UNL     1     131.550 153.300 144.455  1.00  0.00     0.102 A 
HETATM   13  C   UNL     1     132.560 153.278 143.500  1.00  0.00     0.132 A 
HETATM   14  C   UNL     1     133.034 152.071 142.996  1.00  0.00     0.102 A 
HETATM   15  C   UNL     1     132.606 150.870 143.533  1.00  0.00     0.057 A 
BRANCH  12  16
HETATM   16  O   UNL     1     131.090 154.509 144.893  1.00  0.00    -0.358 OA
HETATM   17  H   UNL     1     131.073 155.109 144.123  1.00  0.00     0.217 HD
ENDBRANCH  12  16
BRANCH  13  18
HETATM   18  O   UNL     1     133.150 154.440 143.085  1.00  0.00    -0.356 OA
HETATM   19  H   UNL     1     132.479 154.842 142.493  1.00  0.00     0.218 HD
ENDBRANCH  13  18
BRANCH  14  20
HETATM   20  O   UNL     1     133.971 152.077 142.004  1.00  0.00    -0.358 OA
HETATM   21  H   UNL     1     133.768 152.888 141.496  1.00  0.00     0.217 HD
ENDBRANCH  14  20
ENDBRANCH   8  10
ENDBRANCH   7   8
ENDBRANCH   4   7
BRANCH   5  22
HETATM   22  O   UNL     1     130.632 147.163 147.640  1.00  0.00    -0.306 OA
BRANCH  22  23
HETATM   23  C   UNL     1     131.928 147.075 148.005  1.00  0.00     0.294 C 
HETATM   24  O   UNL     1     132.666 147.823 148.634  1.00  0.00    -0.259 OA
BRANCH  23  25
HETATM   25  C   UNL     1     132.456 145.871 147.507  1.00  0.00     0.045 C 
HETATM   26  C   UNL     1     132.274 145.828 146.149  1.00  0.00     0.058 C 
HETATM   27  C   UNL     1     131.731 144.665 145.704  1.00  0.00     0.116 C 
HETATM   28  C   UNL     1     131.858 143.490 146.467  1.00  0.00     0.133 C 
HETATM   29  C   UNL     1     132.257 143.565 147.800  1.00  0.00     0.102 C 
HETATM   30  C   UNL     1     132.411 144.790 148.372  1.00  0.00     0.057 C 
BRANCH  27  31
HETATM   31  O   UNL     1     130.884 144.704 144.586  1.00  0.00    -0.272 OA
BRANCH  31  32
HETATM   32  C   UNL     1     130.191 145.887 144.250  1.00  0.00     0.298 C 
HETATM   33  O   UNL     1     129.667 146.736 144.915  1.00  0.00    -0.259 OA
BRANCH  32  34
HETATM   34  C   UNL     1     130.583 145.996 142.844  1.00  0.00     0.045 C 
HETATM   35  C   UNL     1     130.765 147.271 142.308  1.00  0.00     0.057 C 
HETATM   36  C   UNL     1     130.311 147.462 141.017  1.00  0.00     0.102 C 
HETATM   37  C   UNL     1     129.577 146.465 140.375  1.00  0.00     0.132 C 
HETATM   38  C   UNL     1     129.459 145.202 140.932  1.00  0.00     0.102 C 
HETATM   39  C   UNL     1     130.113 144.904 142.099  1.00  0.00     0.057 C 
BRANCH  36  40
HETATM   40  O   UNL     1     130.454 148.658 140.381  1.00  0.00    -0.358 OA
HETATM   41  H   UNL     1     131.397 148.718 140.135  1.00  0.00     0.217 HD
ENDBRANCH  36  40
BRANCH  37  42
HETATM   42  O   UNL     1     128.893 146.739 139.227  1.00  0.00    -0.356 OA
HETATM   43  H   UNL     1     129.585 147.035 138.600  1.00  0.00     0.218 HD
ENDBRANCH  37  42
BRANCH  38  44
HETATM   44  O   UNL     1     128.539 144.310 140.471  1.00  0.00    -0.358 OA
HETATM   45  H   UNL     1     128.958 143.433 140.579  1.00  0.00     0.217 HD
ENDBRANCH  38  44
ENDBRANCH  32  34
ENDBRANCH  31  32
ENDBRANCH  27  31
BRANCH  28  46
HETATM   46  O   UNL     1     131.590 142.255 145.955  1.00  0.00    -0.356 OA
HETATM   47  H   UNL     1     131.550 141.641 146.710  1.00  0.00     0.218 HD
ENDBRANCH  28  46
BRANCH  29  48
HETATM   48  O   UNL     1     132.433 142.479 148.594  1.00  0.00    -0.358 OA
HETATM   49  H   UNL     1     133.203 142.017 148.223  1.00  0.00     0.217 HD
ENDBRANCH  29  48
ENDBRANCH  23  25
ENDBRANCH  22  23
ENDBRANCH   5  22
BRANCH   6  50
HETATM   50  O   UNL     1     128.040 147.186 149.052  1.00  0.00    -0.304 OA
BRANCH  50  51
HETATM   51  C   UNL     1     127.649 147.384 150.343  1.00  0.00     0.294 C 
HETATM   52  O   UNL     1     128.314 147.515 151.350  1.00  0.00    -0.259 OA
BRANCH  51  53
HETATM   53  C   UNL     1     126.189 147.400 150.295  1.00  0.00     0.045 A 
HETATM   54  C   UNL     1     125.570 148.498 150.894  1.00  0.00     0.057 A 
HETATM   55  C   UNL     1     124.195 148.565 150.918  1.00  0.00     0.102 A 
HETATM   56  C   UNL     1     123.443 147.571 150.314  1.00  0.00     0.132 A 
HETATM   57  C   UNL     1     124.066 146.499 149.678  1.00  0.00     0.102 A 
HETATM   58  C   UNL     1     125.451 146.386 149.673  1.00  0.00     0.057 A 
BRANCH  55  59
HETATM   59  O   UNL     1     123.603 149.638 151.507  1.00  0.00    -0.358 OA
HETATM   60  H   UNL     1     122.845 149.267 151.998  1.00  0.00     0.217 HD
ENDBRANCH  55  59
BRANCH  56  61
HETATM   61  O   UNL     1     122.081 147.690 150.297  1.00  0.00    -0.356 OA
HETATM   62  H   UNL     1     121.835 147.455 149.379  1.00  0.00     0.218 HD
ENDBRANCH  56  61
BRANCH  57  63
HETATM   63  O   UNL     1     123.265 145.606 149.024  1.00  0.00    -0.358 OA
HETATM   64  H   UNL     1     123.377 145.762 148.067  1.00  0.00     0.217 HD
ENDBRANCH  57  63
ENDBRANCH  51  53
ENDBRANCH  50  51
ENDBRANCH   6  50
ENDBRANCH   2   4
BRANCH   2  65
HETATM   65  C   UNL     1     129.874 150.516 147.808  1.00  0.00     0.216 C 
BRANCH  65  66
HETATM   66  O   UNL     1     129.242 151.684 148.327  1.00  0.00    -0.315 OA
BRANCH  66  67
HETATM   67  C   UNL     1     128.923 151.570 149.620  1.00  0.00     0.293 C 
HETATM   68  O   UNL     1     129.506 150.899 150.449  1.00  0.00    -0.259 OA
BRANCH  67  69
HETATM   69  C   UNL     1     127.686 152.338 149.830  1.00  0.00     0.045 C 
HETATM   70  C   UNL     1     127.668 153.594 150.465  1.00  0.00     0.057 C 
HETATM   71  C   UNL     1     126.479 154.300 150.546  1.00  0.00     0.102 C 
HETATM   72  C   UNL     1     125.364 153.849 149.860  1.00  0.00     0.133 C 
HETATM   73  C   UNL     1     125.450 152.662 149.127  1.00  0.00     0.116 C 
HETATM   74  C   UNL     1     126.545 151.819 149.239  1.00  0.00     0.058 C 
BRANCH  71  75
HETATM   75  O   UNL     1     126.434 155.493 151.209  1.00  0.00    -0.358 OA
HETATM   76  H   UNL     1     125.992 155.282 152.057  1.00  0.00     0.217 HD
ENDBRANCH  71  75
BRANCH  72  77
HETATM   77  O   UNL     1     124.263 154.655 149.849  1.00  0.00    -0.356 OA
HETATM   78  H   UNL     1     124.551 155.554 150.104  1.00  0.00     0.218 HD
ENDBRANCH  72  77
BRANCH  73  79
HETATM   79  O   UNL     1     124.591 152.407 148.061  1.00  0.00    -0.272 OA
BRANCH  79  80
HETATM   80  C   UNL     1     123.628 151.549 148.574  1.00  0.00     0.298 C 
HETATM   81  O   UNL     1     123.019 151.779 149.608  1.00  0.00    -0.259 OA
BRANCH  80  82
HETATM   82  C   UNL     1     123.402 150.311 147.773  1.00  0.00     0.045 A 
HETATM   83  C   UNL     1     122.096 149.814 147.653  1.00  0.00     0.057 A 
HETATM   84  C   UNL     1     121.870 148.636 146.947  1.00  0.00     0.102 A 
HETATM   85  C   UNL     1     122.931 147.943 146.384  1.00  0.00     0.132 A 
HETATM   86  C   UNL     1     124.227 148.435 146.511  1.00  0.00     0.102 A 
HETATM   87  C   UNL     1     124.477 149.632 147.184  1.00  0.00     0.057 A 
BRANCH  84  88
HETATM   88  O   UNL     1     120.589 148.194 146.856  1.00  0.00    -0.358 OA
HETATM   89  H   UNL     1     120.526 147.284 147.217  1.00  0.00     0.217 HD
ENDBRANCH  84  88
BRANCH  85  90
HETATM   90  O   UNL     1     122.704 146.771 145.718  1.00  0.00    -0.356 OA
HETATM   91  H   UNL     1     122.055 146.982 145.017  1.00  0.00     0.218 HD
ENDBRANCH  85  90
BRANCH  86  92
HETATM   92  O   UNL     1     125.238 147.685 145.976  1.00  0.00    -0.358 OA
HETATM   93  H   UNL     1     125.043 147.557 145.029  1.00  0.00     0.217 HD
ENDBRANCH  86  92
ENDBRANCH  80  82
ENDBRANCH  79  80
ENDBRANCH  73  79
ENDBRANCH  67  69
ENDBRANCH  66  67
ENDBRANCH  65  66
ENDBRANCH   2  65
BRANCH   3  94
HETATM   94  O   UNL     1     127.216 150.803 144.943  1.00  0.00    -0.285 OA
BRANCH  94  95
HETATM   95  C   UNL     1     127.810 151.544 143.968  1.00  0.00     0.295 C 
HETATM   96  O   UNL     1     128.373 151.141 142.965  1.00  0.00    -0.259 OA
BRANCH  95  97
HETATM   97  C   UNL     1     127.676 152.951 144.319  1.00  0.00     0.045 A 
HETATM   98  C   UNL     1     127.611 153.318 145.665  1.00  0.00     0.057 A 
HETATM   99  C   UNL     1     127.596 154.661 145.981  1.00  0.00     0.102 A 
HETATM  100  C   UNL     1     127.582 155.616 144.971  1.00  0.00     0.132 A 
HETATM  101  C   UNL     1     127.588 155.236 143.630  1.00  0.00     0.102 A 
HETATM  102  C   UNL     1     127.641 153.895 143.289  1.00  0.00     0.057 A 
BRANCH  99 103
HETATM  103  O   UNL     1     127.629 155.037 147.292  1.00  0.00    -0.358 OA
HETATM  104  H   UNL     1     128.438 154.605 147.639  1.00  0.00     0.217 HD
ENDBRANCH  99 103
BRANCH 100 105
HETATM  105  O   UNL     1     127.567 156.939 145.315  1.00  0.00    -0.356 OA
HETATM  106  H   UNL     1     127.796 157.401 144.482  1.00  0.00     0.218 HD
ENDBRANCH 100 105
BRANCH 101 107
HETATM  107  O   UNL     1     127.561 156.216 142.680  1.00  0.00    -0.358 OA
HETATM  108  H   UNL     1     127.346 157.056 143.124  1.00  0.00     0.217 HD
ENDBRANCH 101 107
ENDBRANCH  95  97
ENDBRANCH  94  95
ENDBRANCH   3  94
TORSDOF 43
ENDMDL
MODEL 10
REMARK VINA RESULT:   -11.021     19.832     27.328
REMARK INTER + INTRA:         -32.483
REMARK INTER:                 -31.693
REMARK INTRA:                  -0.790
REMARK UNBOUND:                -2.456
REMARK WARNING: 32 MAX_TORS EXCEEDED!!!
REMARK  43 active torsions:
REMARK  status: ('A' for Active; 'I' for Inactive)
REMARK    1  A    between atoms: O_2  and  C_27 
REMARK    2  A    between atoms: O_2  and  C_33 
REMARK    3  A    between atoms: O_3  and  C_28 
REMARK    4  A    between atoms: O_3  and  C_34 
REMARK    5  A    between atoms: O_4  and  C_29 
REMARK    6  A    between atoms: O_4  and  C_35 
REMARK    7  A    between atoms: O_5  and  C_31 
REMARK    8  A    between atoms: O_5  and  C_36 
REMARK    9  A    between atoms: O_6  and  C_32 
REMARK   10  A    between atoms: O_6  and  C_39 
REMARK   11  A    between atoms: O_12  and  C_51 
REMARK   12  A    between atoms: O_13  and  C_52 
REMARK   13  A    between atoms: O_13  and  C_99 
REMARK   14  A    between atoms: O_14  and  C_53 
REMARK   15  A    between atoms: O_15  and  C_54 
REMARK   16  A    between atoms: O_16  and  C_55 
REMARK   17  A    between atoms: O_17  and  C_56 
REMARK   18  A    between atoms: O_18  and  C_59 
REMARK   19  A    between atoms: O_19  and  C_60 
REMARK   20  A    between atoms: O_20  and  C_61 
REMARK   21  A    between atoms: O_21  and  C_62 
REMARK   22  A    between atoms: O_22  and  C_63 
REMARK   23  A    between atoms: O_23  and  C_64 
REMARK   24  A    between atoms: O_24  and  C_65 
REMARK   25  A    between atoms: O_24  and  C_85 
REMARK   26  A    between atoms: O_25  and  C_66 
REMARK   27  A    between atoms: O_26  and  C_67 
REMARK   28  A    between atoms: C_28  and  C_30 
REMARK   29  A    between atoms: C_29  and  C_31 
REMARK   30  A    between atoms: C_30  and  C_32 
REMARK   31  A    between atoms: C_33  and  C_37 
REMARK   32  A    between atoms: C_34  and  C_38 
REMARK   33  A    between atoms: C_35  and  C_40 
REMARK   34  A    between atoms: C_36  and  C_41 
REMARK   35  A    between atoms: C_39  and  C_42 
REMARK   36  A    between atoms: O_82  and  C_89 
REMARK   37  A    between atoms: O_83  and  C_90 
REMARK   38  A    between atoms: O_84  and  C_91 
REMARK   39  A    between atoms: C_85  and  C_86 
REMARK   40  A    between atoms: O_96  and  C_103 
REMARK   41  A    between atoms: O_97  and  C_104 
REMARK   42  A    between atoms: O_98  and  C_105 
REMARK   43  A    between atoms: C_99  and  C_100 
ROOT
HETATM    1  O   UNL     1     127.381 149.632 145.228  1.00  0.00    -0.348 OA
HETATM    2  C   UNL     1     127.277 150.889 145.747  1.00  0.00     0.201 A 
HETATM    3  C   UNL     1     128.216 150.570 144.719  1.00  0.00     0.282 A 
ENDROOT
BRANCH   2   4
HETATM    4  C   UNL     1     127.886 151.201 146.207  1.00  0.00     0.199 A 
HETATM    5  C   UNL     1     127.281 151.674 147.627  1.00  0.00     0.198 A 
HETATM    6  C   UNL     1     127.569 150.279 147.252  1.00  0.00     0.215 A 
BRANCH   4   7
HETATM    7  O   UNL     1     127.556 152.846 145.760  1.00  0.00    -0.306 OA
BRANCH   7   8
HETATM    8  C   UNL     1     128.038 154.020 145.383  1.00  0.00     0.294 C 
HETATM    9  O   UNL     1     127.958 155.025 146.080  1.00  0.00    -0.259 OA
BRANCH   8  10
HETATM   10  C   UNL     1     128.801 154.094 144.149  1.00  0.00     0.045 A 
HETATM   11  C   UNL     1     128.436 155.087 143.231  1.00  0.00     0.057 A 
HETATM   12  C   UNL     1     129.371 155.512 142.305  1.00  0.00     0.102 A 
HETATM   13  C   UNL     1     130.630 154.924 142.279  1.00  0.00     0.132 A 
HETATM   14  C   UNL     1     130.930 153.851 143.113  1.00  0.00     0.102 A 
HETATM   15  C   UNL     1     130.028 153.439 144.078  1.00  0.00     0.057 A 
BRANCH  12  16
HETATM   16  O   UNL     1     129.111 156.537 141.441  1.00  0.00    -0.358 OA
HETATM   17  H   UNL     1     129.969 156.870 141.118  1.00  0.00     0.217 HD
ENDBRANCH  12  16
BRANCH  13  18
HETATM   18  O   UNL     1     131.617 155.429 141.478  1.00  0.00    -0.356 OA
HETATM   19  H   UNL     1     131.360 155.134 140.579  1.00  0.00     0.218 HD
ENDBRANCH  13  18
BRANCH  14  20
HETATM   20  O   UNL     1     132.147 153.242 143.015  1.00  0.00    -0.358 OA
HETATM   21  H   UNL     1     132.525 153.329 143.912  1.00  0.00     0.217 HD
ENDBRANCH  14  20
ENDBRANCH   8  10
ENDBRANCH   7   8
ENDBRANCH   4   7
BRANCH   5  22
HETATM   22  O   UNL     1     128.266 152.257 148.517  1.00  0.00    -0.306 OA
BRANCH  22  23
HETATM   23  C   UNL     1     127.784 152.951 149.568  1.00  0.00     0.294 C 
HETATM   24  O   UNL     1     127.055 153.932 149.652  1.00  0.00    -0.259 OA
BRANCH  23  25
HETATM   25  C   UNL     1     128.281 152.380 150.752  1.00  0.00     0.045 C 
HETATM   26  C   UNL     1     129.649 152.321 150.683  1.00  0.00     0.058 C 
HETATM   27  C   UNL     1     130.164 151.107 151.008  1.00  0.00     0.116 C 
HETATM   28  C   UNL     1     129.430 150.224 151.822  1.00  0.00     0.133 C 
HETATM   29  C   UNL     1     128.072 150.446 152.041  1.00  0.00     0.102 C 
HETATM   30  C   UNL     1     127.454 151.456 151.370  1.00  0.00     0.057 C 
BRANCH  27  31
HETATM   31  O   UNL     1     131.334 150.679 150.362  1.00  0.00    -0.272 OA
BRANCH  31  32
HETATM   32  C   UNL     1     131.368 149.444 149.679  1.00  0.00     0.298 C 
HETATM   33  O   UNL     1     130.654 148.482 149.710  1.00  0.00    -0.259 OA
BRANCH  32  34
HETATM   34  C   UNL     1     132.335 149.781 148.634  1.00  0.00     0.045 C 
HETATM   35  C   UNL     1     132.123 150.939 147.888  1.00  0.00     0.057 C 
HETATM   36  C   UNL     1     132.407 150.858 146.538  1.00  0.00     0.102 C 
HETATM   37  C   UNL     1     132.733 149.630 145.961  1.00  0.00     0.132 C 
HETATM   38  C   UNL     1     132.973 148.519 146.751  1.00  0.00     0.102 C 
HETATM   39  C   UNL     1     132.946 148.628 148.116  1.00  0.00     0.057 C 
BRANCH  36  40
HETATM   40  O   UNL     1     132.259 151.932 145.712  1.00  0.00    -0.358 OA
HETATM   41  H   UNL     1     131.815 152.618 146.245  1.00  0.00     0.217 HD
ENDBRANCH  36  40
BRANCH  37  42
HETATM   42  O   UNL     1     132.743 149.484 144.605  1.00  0.00    -0.356 OA
HETATM   43  H   UNL     1     131.955 149.981 144.303  1.00  0.00     0.218 HD
ENDBRANCH  37  42
BRANCH  38  44
HETATM   44  O   UNL     1     133.024 147.268 146.212  1.00  0.00    -0.358 OA
HETATM   45  H   UNL     1     133.502 146.726 146.871  1.00  0.00     0.217 HD
ENDBRANCH  38  44
ENDBRANCH  32  34
ENDBRANCH  31  32
ENDBRANCH  27  31
BRANCH  28  46
HETATM   46  O   UNL     1     129.995 149.131 152.407  1.00  0.00    -0.356 OA
HETATM   47  H   UNL     1     129.505 148.970 153.234  1.00  0.00     0.218 HD
ENDBRANCH  28  46
BRANCH  29  48
HETATM   48  O   UNL     1     127.301 149.661 152.835  1.00  0.00    -0.358 OA
HETATM   49  H   UNL     1     127.910 149.001 153.204  1.00  0.00     0.217 HD
ENDBRANCH  29  48
ENDBRANCH  23  25
ENDBRANCH  22  23
ENDBRANCH   5  22
BRANCH   6  50
HETATM   50  O   UNL     1     127.546 149.397 148.651  1.00  0.00    -0.304 OA
BRANCH  50  51
HETATM   51  C   UNL     1     127.366 148.056 148.812  1.00  0.00     0.294 C 
HETATM   52  O   UNL     1     128.171 147.147 148.769  1.00  0.00    -0.259 OA
BRANCH  51  53
HETATM   53  C   UNL     1     125.933 147.895 149.050  1.00  0.00     0.045 A 
HETATM   54  C   UNL     1     125.233 149.058 149.372  1.00  0.00     0.057 A 
HETATM   55  C   UNL     1     123.886 148.980 149.643  1.00  0.00     0.102 A 
HETATM   56  C   UNL     1     123.231 147.762 149.553  1.00  0.00     0.132 A 
HETATM   57  C   UNL     1     123.926 146.610 149.188  1.00  0.00     0.102 A 
HETATM   58  C   UNL     1     125.294 146.655 148.947  1.00  0.00     0.057 A 
BRANCH  55  59
HETATM   59  O   UNL     1     123.215 150.119 149.959  1.00  0.00    -0.358 OA
HETATM   60  H   UNL     1     123.884 150.829 149.896  1.00  0.00     0.217 HD
ENDBRANCH  55  59
BRANCH  56  61
HETATM   61  O   UNL     1     121.882 147.719 149.767  1.00  0.00    -0.356 OA
HETATM   62  H   UNL     1     121.499 148.061 148.933  1.00  0.00     0.218 HD
ENDBRANCH  56  61
BRANCH  57  63
HETATM   63  O   UNL     1     123.200 145.464 149.027  1.00  0.00    -0.358 OA
HETATM   64  H   UNL     1     123.583 144.981 148.272  1.00  0.00     0.217 HD
ENDBRANCH  57  63
ENDBRANCH  51  53
ENDBRANCH  50  51
ENDBRANCH   6  50
ENDBRANCH   2   4
BRANCH   2  65
HETATM   65  C   UNL     1     126.057 151.997 145.815  1.00  0.00     0.216 C 
BRANCH  65  66
HETATM   66  O   UNL     1     124.912 151.331 145.288  1.00  0.00    -0.315 OA
BRANCH  66  67
HETATM   67  C   UNL     1     123.980 151.087 146.215  1.00  0.00     0.293 C 
HETATM   68  O   UNL     1     123.855 151.663 147.279  1.00  0.00    -0.259 OA
BRANCH  67  69
HETATM   69  C   UNL     1     123.191 149.939 145.746  1.00  0.00     0.045 C 
HETATM   70  C   UNL     1     123.542 148.605 146.032  1.00  0.00     0.057 C 
HETATM   71  C   UNL     1     122.702 147.579 145.634  1.00  0.00     0.102 C 
HETATM   72  C   UNL     1     121.453 147.876 145.114  1.00  0.00     0.133 C 
HETATM   73  C   UNL     1     121.079 149.214 144.964  1.00  0.00     0.116 C 
HETATM   74  C   UNL     1     121.994 150.244 145.118  1.00  0.00     0.058 C 
BRANCH  71  75
HETATM   75  O   UNL     1     123.056 146.279 145.854  1.00  0.00    -0.358 OA
HETATM   76  H   UNL     1     122.213 145.832 146.074  1.00  0.00     0.217 HD
ENDBRANCH  71  75
BRANCH  72  77
HETATM   77  O   UNL     1     120.606 146.832 144.878  1.00  0.00    -0.356 OA
HETATM   78  H   UNL     1     120.729 146.181 145.596  1.00  0.00     0.218 HD
ENDBRANCH  72  77
BRANCH  73  79
HETATM   79  O   UNL     1     119.738 149.589 144.927  1.00  0.00    -0.272 OA
BRANCH  79  80
HETATM   80  C   UNL     1     119.538 150.080 143.645  1.00  0.00     0.298 C 
HETATM   81  O   UNL     1     120.155 149.666 142.674  1.00  0.00    -0.259 OA
BRANCH  80  82
HETATM   82  C   UNL     1     118.520 151.165 143.541  1.00  0.00     0.045 A 
HETATM   83  C   UNL     1     117.819 151.320 142.335  1.00  0.00     0.057 A 
HETATM   84  C   UNL     1     116.898 152.354 142.203  1.00  0.00     0.102 A 
HETATM   85  C   UNL     1     116.688 153.242 143.248  1.00  0.00     0.132 A 
HETATM   86  C   UNL     1     117.390 153.090 144.440  1.00  0.00     0.102 A 
HETATM   87  C   UNL     1     118.295 152.041 144.611  1.00  0.00     0.057 A 
BRANCH  84  88
HETATM   88  O   UNL     1     116.242 152.464 141.019  1.00  0.00    -0.358 OA
HETATM   89  H   UNL     1     116.429 153.338 140.616  1.00  0.00     0.217 HD
ENDBRANCH  84  88
BRANCH  85  90
HETATM   90  O   UNL     1     115.803 154.273 143.099  1.00  0.00    -0.356 OA
HETATM   91  H   UNL     1     115.019 153.893 142.653  1.00  0.00     0.218 HD
ENDBRANCH  85  90
BRANCH  86  92
HETATM   92  O   UNL     1     117.176 154.024 145.416  1.00  0.00    -0.358 OA
HETATM   93  H   UNL     1     117.321 153.591 146.278  1.00  0.00     0.217 HD
ENDBRANCH  86  92
ENDBRANCH  80  82
ENDBRANCH  79  80
ENDBRANCH  73  79
ENDBRANCH  67  69
ENDBRANCH  66  67
ENDBRANCH  65  66
ENDBRANCH   2  65
BRANCH   3  94
HETATM   94  O   UNL     1     128.297 149.962 143.325  1.00  0.00    -0.285 OA
BRANCH  94  95
HETATM   95  C   UNL     1     129.533 149.726 142.807  1.00  0.00     0.295 C 
HETATM   96  O   UNL     1     130.477 150.496 142.753  1.00  0.00    -0.259 OA
BRANCH  95  97
HETATM   97  C   UNL     1     129.561 148.363 142.295  1.00  0.00     0.045 A 
HETATM   98  C   UNL     1     129.931 147.320 143.148  1.00  0.00     0.057 A 
HETATM   99  C   UNL     1     129.845 146.025 142.678  1.00  0.00     0.102 A 
HETATM  100  C   UNL     1     129.458 145.783 141.365  1.00  0.00     0.132 A 
HETATM  101  C   UNL     1     129.147 146.836 140.507  1.00  0.00     0.102 A 
HETATM  102  C   UNL     1     129.189 148.141 140.967  1.00  0.00     0.057 A 
BRANCH  99 103
HETATM  103  O   UNL     1     130.111 144.991 143.526  1.00  0.00    -0.358 OA
HETATM  104  H   UNL     1     129.226 144.625 143.734  1.00  0.00     0.217 HD
ENDBRANCH  99 103
BRANCH 100 105
HETATM  105  O   UNL     1     129.382 144.489 140.929  1.00  0.00    -0.356 OA
HETATM  106  H   UNL     1     128.539 144.459 140.431  1.00  0.00     0.218 HD
ENDBRANCH 100 105
BRANCH 101 107
HETATM  107  O   UNL     1     128.785 146.540 139.224  1.00  0.00    -0.358 OA
HETATM  108  H   UNL     1     128.592 145.586 139.181  1.00  0.00     0.217 HD
ENDBRANCH 101 107
ENDBRANCH  95  97
ENDBRANCH  94  95
ENDBRANCH   3  94
TORSDOF 43
ENDMDL
