REMARK VINA RESULT:      -6.8      0.000      0.000
REMARK  6 active torsions:
REMARK  status: ('A' for Active; 'I' for Inactive)
REMARK    1  A    between atoms: O_2  and  C_9 
REMARK    2  A    between atoms: O_4  and  C_14 
REMARK    3  A    between atoms: O_5  and  C_19 
REMARK    4  A    between atoms: O_6  and  C_20 
REMARK    5  A    between atoms: O_7  and  C_22 
REMARK    6  A    between atoms: C_8  and  C_10 
ROOT
HETATM    1  O   UNK     0     184.064 182.051 172.864  0.00  0.00    -0.337 OA
HETATM    2  O   UNK     0     179.992 182.454 173.174  0.00  0.00    -0.289 OA
HETATM    3  C   UNK     0     183.433 183.336 172.759  0.00  0.00     0.198 C 
HETATM    4  C   UNK     0     182.167 183.404 173.615  0.00  0.00     0.227 C 
HETATM    5  C   UNK     0     181.210 182.326 173.153  0.00  0.00     0.196 C 
HETATM    6  C   UNK     0     181.838 181.068 172.702  0.00  0.00     0.079 A 
HETATM    7  C   UNK     0     183.229 180.999 172.599  0.00  0.00     0.089 A 
HETATM    8  C   UNK     0     181.051 179.951 172.409  0.00  0.00     0.085 A 
HETATM    9  C   UNK     0     183.837 179.796 172.235  0.00  0.00     0.074 A 
HETATM   10  C   UNK     0     181.663 178.758 172.027  0.00  0.00     0.074 A 
HETATM   11  C   UNK     0     183.054 178.678 171.945  0.00  0.00     0.071 A 
ENDROOT
BRANCH   3  12
HETATM   12  C   UNK     0     184.454 184.375 173.182  0.00  0.00    -0.023 A 
HETATM   13  C   UNK     0     185.174 184.199 174.362  0.00  0.00     0.049 A 
HETATM   14  C   UNK     0     186.114 185.153 174.752  0.00  0.00     0.099 A 
HETATM   15  C   UNK     0     186.330 186.282 173.962  0.00  0.00     0.098 A 
HETATM   16  C   UNK     0     185.607 186.457 172.781  0.00  0.00     0.040 A 
HETATM   17  C   UNK     0     184.668 185.502 172.392  0.00  0.00     0.013 A 
BRANCH  14  18
HETATM   18  O   UNK     0     186.814 184.973 175.906  0.00  0.00    -0.358 OA
HETATM   19  H   UNK     0     187.563 185.594 175.911  0.00  0.00     0.217 HD
ENDBRANCH  14  18
BRANCH  15  20
HETATM   20  O   UNK     0     187.246 187.222 174.332  0.00  0.00    -0.358 OA
HETATM   21  H   UNK     0     188.103 186.787 174.479  0.00  0.00     0.217 HD
ENDBRANCH  15  20
ENDBRANCH   3  12
BRANCH   4  22
HETATM   22  O   UNK     0     181.530 184.659 173.448  0.00  0.00    -0.385 OA
HETATM   23  H   UNK     0     182.084 185.329 173.884  0.00  0.00     0.210 HD
ENDBRANCH   4  22
BRANCH   8  24
HETATM   24  O   UNK     0     179.691 179.966 172.489  0.00  0.00    -0.360 OA
HETATM   25  H   UNK     0     179.404 180.026 173.413  0.00  0.00     0.217 HD
ENDBRANCH   8  24
BRANCH  11  26
HETATM   26  O   UNK     0     183.648 177.509 171.580  0.00  0.00    -0.361 OA
HETATM   27  H   UNK     0     184.385 177.704 170.977  0.00  0.00     0.217 HD
ENDBRANCH  11  26
TORSDOF 6
