REMARK VINA RESULT:      -6.5      4.218      7.147
REMARK  6 active torsions:
REMARK  status: ('A' for Active; 'I' for Inactive)
REMARK    1  A    between atoms: O_2  and  C_9 
REMARK    2  A    between atoms: O_4  and  C_14 
REMARK    3  A    between atoms: O_5  and  C_19 
REMARK    4  A    between atoms: O_6  and  C_20 
REMARK    5  A    between atoms: O_7  and  C_22 
REMARK    6  A    between atoms: C_8  and  C_10 
ROOT
HETATM    1  O   UNK     0     186.959 184.682 170.229  0.00  0.00    -0.337 OA
HETATM    2  O   UNK     0     186.640 188.773 170.159  0.00  0.00    -0.289 OA
HETATM    3  C   UNK     0     187.078 185.459 171.430  0.00  0.00     0.198 C 
HETATM    4  C   UNK     0     186.219 186.722 171.361  0.00  0.00     0.227 C 
HETATM    5  C   UNK     0     186.663 187.548 170.173  0.00  0.00     0.196 C 
HETATM    6  C   UNK     0     187.101 186.779 168.991  0.00  0.00     0.079 A 
HETATM    7  C   UNK     0     187.208 185.389 169.084  0.00  0.00     0.089 A 
HETATM    8  C   UNK     0     187.377 187.430 167.786  0.00  0.00     0.085 A 
HETATM    9  C   UNK     0     187.559 184.646 167.955  0.00  0.00     0.074 A 
HETATM   10  C   UNK     0     187.747 186.684 166.668  0.00  0.00     0.074 A 
HETATM   11  C   UNK     0     187.832 185.294 166.750  0.00  0.00     0.071 A 
ENDROOT
BRANCH   3  12
HETATM   12  C   UNK     0     186.671 184.565 172.586  0.00  0.00    -0.023 A 
HETATM   13  C   UNK     0     187.463 184.509 173.732  0.00  0.00     0.049 A 
HETATM   14  C   UNK     0     187.090 183.687 174.796  0.00  0.00     0.099 A 
HETATM   15  C   UNK     0     185.927 182.922 174.710  0.00  0.00     0.098 A 
HETATM   16  C   UNK     0     185.135 182.980 173.562  0.00  0.00     0.040 A 
HETATM   17  C   UNK     0     185.509 183.802 172.499  0.00  0.00     0.013 A 
BRANCH  14  18
HETATM   18  O   UNK     0     187.869 183.639 175.911  0.00  0.00    -0.358 OA
HETATM   19  H   UNK     0     188.451 184.418 175.911  0.00  0.00     0.217 HD
ENDBRANCH  14  18
BRANCH  15  20
HETATM   20  O   UNK     0     185.550 182.116 175.742  0.00  0.00    -0.358 OA
HETATM   21  H   UNK     0     185.034 182.638 176.380  0.00  0.00     0.217 HD
ENDBRANCH  15  20
ENDBRANCH   3  12
BRANCH   4  22
HETATM   22  O   UNK     0     186.399 187.502 172.531  0.00  0.00    -0.385 OA
HETATM   23  H   UNK     0     187.306 187.353 172.846  0.00  0.00     0.210 HD
ENDBRANCH   4  22
BRANCH   8  24
HETATM   24  O   UNK     0     187.292 188.783 167.643  0.00  0.00    -0.360 OA
HETATM   25  H   UNK     0     187.263 189.217 168.509  0.00  0.00     0.217 HD
ENDBRANCH   8  24
BRANCH  11  26
HETATM   26  O   UNK     0     188.185 184.569 165.653  0.00  0.00    -0.361 OA
HETATM   27  H   UNK     0     189.155 184.500 165.618  0.00  0.00     0.217 HD
ENDBRANCH  11  26
TORSDOF 6
