REMARK VINA RESULT:      -6.5      1.892      6.790
REMARK  6 active torsions:
REMARK  status: ('A' for Active; 'I' for Inactive)
REMARK    1  A    between atoms: O_2  and  C_9 
REMARK    2  A    between atoms: O_4  and  C_14 
REMARK    3  A    between atoms: O_5  and  C_19 
REMARK    4  A    between atoms: O_6  and  C_20 
REMARK    5  A    between atoms: O_7  and  C_22 
REMARK    6  A    between atoms: C_8  and  C_10 
ROOT
HETATM    1  O   UNK     0     184.564 184.139 171.920  0.00  0.00    -0.337 OA
HETATM    2  O   UNK     0     185.522 186.126 175.380  0.00  0.00    -0.289 OA
HETATM    3  C   UNK     0     184.134 183.654 173.201  0.00  0.00     0.198 C 
HETATM    4  C   UNK     0     183.898 184.805 174.179  0.00  0.00     0.227 C 
HETATM    5  C   UNK     0     185.186 185.584 174.334  0.00  0.00     0.196 C 
HETATM    6  C   UNK     0     186.017 185.688 173.119  0.00  0.00     0.079 A 
HETATM    7  C   UNK     0     185.649 184.972 171.977  0.00  0.00     0.089 A 
HETATM    8  C   UNK     0     187.143 186.516 173.100  0.00  0.00     0.085 A 
HETATM    9  C   UNK     0     186.390 185.113 170.803  0.00  0.00     0.074 A 
HETATM   10  C   UNK     0     187.891 186.637 171.930  0.00  0.00     0.074 A 
HETATM   11  C   UNK     0     187.513 185.942 170.781  0.00  0.00     0.071 A 
ENDROOT
BRANCH   3  12
HETATM   12  C   UNK     0     182.874 182.841 172.974  0.00  0.00    -0.023 A 
HETATM   13  C   UNK     0     182.927 181.450 173.028  0.00  0.00     0.049 A 
HETATM   14  C   UNK     0     181.768 180.701 172.819  0.00  0.00     0.099 A 
HETATM   15  C   UNK     0     180.560 181.346 172.556  0.00  0.00     0.098 A 
HETATM   16  C   UNK     0     180.509 182.739 172.503  0.00  0.00     0.040 A 
HETATM   17  C   UNK     0     181.667 183.487 172.712  0.00  0.00     0.013 A 
BRANCH  14  18
HETATM   18  O   UNK     0     181.829 179.342 172.874  0.00  0.00    -0.358 OA
HETATM   19  H   UNK     0     182.751 179.070 172.719  0.00  0.00     0.217 HD
ENDBRANCH  14  18
BRANCH  15  20
HETATM   20  O   UNK     0     179.421 180.626 172.352  0.00  0.00    -0.358 OA
HETATM   21  H   UNK     0     179.457 179.816 172.890  0.00  0.00     0.217 HD
ENDBRANCH  15  20
ENDBRANCH   3  12
BRANCH   4  22
HETATM   22  O   UNK     0     183.533 184.299 175.452  0.00  0.00    -0.385 OA
HETATM   23  H   UNK     0     182.744 184.785 175.746  0.00  0.00     0.210 HD
ENDBRANCH   4  22
BRANCH   8  24
HETATM   24  O   UNK     0     187.548 187.232 174.186  0.00  0.00    -0.360 OA
HETATM   25  H   UNK     0     188.190 186.729 174.709  0.00  0.00     0.217 HD
ENDBRANCH   8  24
BRANCH  11  26
HETATM   26  O   UNK     0     188.241 186.070 169.638  0.00  0.00    -0.361 OA
HETATM   27  H   UNK     0     187.842 185.515 168.946  0.00  0.00     0.217 HD
ENDBRANCH  11  26
TORSDOF 6
