MODEL 1
REMARK VINA RESULT:      -7.8      0.000      0.000
REMARK  16 active torsions:
REMARK  status: ('A' for Active; 'I' for Inactive)
REMARK    1  A    between atoms: O_2  and  C_22 
REMARK    2  A    between atoms: O_2  and  C_26 
REMARK    3  A    between atoms: O_4  and  C_18 
REMARK    4  A    between atoms: O_5  and  C_19 
REMARK    5  A    between atoms: O_6  and  C_25 
REMARK    6  A    between atoms: O_6  and  C_29 
REMARK    7  A    between atoms: O_7  and  C_20 
REMARK    8  A    between atoms: O_8  and  C_21 
REMARK    9  A    between atoms: O_9  and  C_23 
REMARK   10  A    between atoms: O_10  and  C_24 
REMARK   11  A    between atoms: O_13  and  C_35 
REMARK   12  A    between atoms: O_14  and  C_40 
REMARK   13  A    between atoms: O_15  and  C_41 
REMARK   14  A    between atoms: O_16  and  C_43 
REMARK   15  A    between atoms: C_17  and  C_26 
REMARK   16  A    between atoms: C_30  and  C_33 
ROOT
HETATM    1  O   UNK     0     -23.901  54.248   9.671  0.00  0.00    -0.348 OA
HETATM    2  C   UNK     0     -24.200  54.142   8.278  0.00  0.00     0.180 C 
HETATM    3  C   UNK     0     -25.703  54.320   8.052  0.00  0.00     0.180 C 
HETATM    4  C   UNK     0     -26.499  53.312   8.882  0.00  0.00     0.183 C 
HETATM    5  C   UNK     0     -26.039  53.309  10.340  0.00  0.00     0.205 C 
HETATM    6  C   UNK     0     -24.516  53.218  10.442  0.00  0.00     0.298 C 
ENDROOT
BRANCH   2   7
HETATM    7  C   UNK     0     -23.389  55.211   7.552  0.00  0.00     0.205 C 
BRANCH   7   8
HETATM    8  O   UNK     0     -24.211  56.348   7.336  0.00  0.00    -0.356 OA
BRANCH   8   9
HETATM    9  C   UNK     0     -23.641  57.520   7.911  0.00  0.00     0.291 C 
HETATM   10  O   UNK     0     -23.545  57.437   9.336  0.00  0.00    -0.351 OA
HETATM   11  C   UNK     0     -24.808  57.358  10.006  0.00  0.00     0.152 C 
HETATM   12  C   UNK     0     -25.676  58.584   9.692  0.00  0.00     0.178 C 
HETATM   13  C   UNK     0     -24.515  57.232  11.499  0.00  0.00     0.042 C 
HETATM   14  C   UNK     0     -25.820  58.753   8.179  0.00  0.00     0.183 C 
HETATM   15  C   UNK     0     -24.452  58.746   7.495  0.00  0.00     0.204 C 
BRANCH  12  16
HETATM   16  O   UNK     0     -26.980  58.421  10.246  0.00  0.00    -0.390 OA
HETATM   17  H   UNK     0     -26.918  57.775  10.970  0.00  0.00     0.210 HD
ENDBRANCH  12  16
BRANCH  14  18
HETATM   18  O   UNK     0     -26.494  59.980   7.905  0.00  0.00    -0.390 OA
HETATM   19  H   UNK     0     -26.319  60.213   6.977  0.00  0.00     0.210 HD
ENDBRANCH  14  18
BRANCH  15  20
HETATM   20  O   UNK     0     -23.711  59.907   7.875  0.00  0.00    -0.388 OA
HETATM   21  H   UNK     0     -23.608  59.902   8.842  0.00  0.00     0.210 HD
ENDBRANCH  15  20
ENDBRANCH   8   9
ENDBRANCH   7   8
ENDBRANCH   2   7
BRANCH   6  22
HETATM   22  O   UNK     0     -24.158  53.365  11.816  0.00  0.00    -0.311 OA
BRANCH  22  23
HETATM   23  C   UNK     0     -23.104  52.547  12.155  0.00  0.00     0.157 A 
HETATM   24  C   UNK     0     -21.846  52.996  12.313  0.00  0.00     0.124 A 
HETATM   25  O   UNK     0     -20.757  52.195  12.622  0.00  0.00    -0.306 OA
HETATM   26  C   UNK     0     -20.964  50.852  12.802  0.00  0.00     0.096 A 
HETATM   27  C   UNK     0     -22.218  50.257  12.677  0.00  0.00     0.084 A 
HETATM   28  C   UNK     0     -19.851  50.073  13.122  0.00  0.00     0.075 A 
HETATM   29  C   UNK     0     -23.374  51.100  12.336  0.00  0.00     0.223 A 
HETATM   30  C   UNK     0     -22.369  48.881  12.870  0.00  0.00     0.085 A 
HETATM   31  O   UNK     0     -24.498  50.633  12.207  0.00  0.00    -0.284 OA
HETATM   32  C   UNK     0     -21.254  48.105  13.191  0.00  0.00     0.074 A 
HETATM   33  C   UNK     0     -19.999  48.699  13.316  0.00  0.00     0.071 A 
BRANCH  24  34
HETATM   34  C   UNK     0     -21.485  54.415  12.147  0.00  0.00     0.004 A 
HETATM   35  C   UNK     0     -21.505  55.274  13.246  0.00  0.00     0.053 A 
HETATM   36  C   UNK     0     -21.161  56.617  13.089  0.00  0.00     0.099 A 
HETATM   37  C   UNK     0     -20.799  57.102  11.833  0.00  0.00     0.098 A 
HETATM   38  C   UNK     0     -20.780  56.243  10.733  0.00  0.00     0.040 A 
HETATM   39  C   UNK     0     -21.122  54.901  10.890  0.00  0.00     0.017 A 
BRANCH  36  40
HETATM   40  O   UNK     0     -21.186  57.446  14.170  0.00  0.00    -0.358 OA
HETATM   41  H   UNK     0     -21.922  58.074  14.083  0.00  0.00     0.217 HD
ENDBRANCH  36  40
BRANCH  37  42
HETATM   42  O   UNK     0     -20.462  58.411  11.667  0.00  0.00    -0.358 OA
HETATM   43  H   UNK     0     -20.639  58.682  10.752  0.00  0.00     0.217 HD
ENDBRANCH  37  42
ENDBRANCH  24  34
BRANCH  30  44
HETATM   44  O   UNK     0     -23.571  48.252  12.759  0.00  0.00    -0.360 OA
HETATM   45  H   UNK     0     -23.447  47.388  12.327  0.00  0.00     0.217 HD
ENDBRANCH  30  44
BRANCH  33  46
HETATM   46  O   UNK     0     -18.914  47.938  13.628  0.00  0.00    -0.361 OA
HETATM   47  H   UNK     0     -18.110  48.399  13.336  0.00  0.00     0.217 HD
ENDBRANCH  33  46
ENDBRANCH  22  23
ENDBRANCH   6  22
BRANCH   3  48
HETATM   48  O   UNK     0     -25.998  54.129   6.671  0.00  0.00    -0.390 OA
HETATM   49  H   UNK     0     -25.839  53.195   6.456  0.00  0.00     0.210 HD
ENDBRANCH   3  48
BRANCH   5  50
HETATM   50  O   UNK     0     -26.601  52.183  11.012  0.00  0.00    -0.388 OA
HETATM   51  H   UNK     0     -26.354  52.238  11.951  0.00  0.00     0.210 HD
ENDBRANCH   5  50
BRANCH   4  52
HETATM   52  O   UNK     0     -27.878  53.681   8.820  0.00  0.00    -0.390 OA
HETATM   53  H   UNK     0     -28.322  53.048   8.230  0.00  0.00     0.210 HD
ENDBRANCH   4  52
TORSDOF 16
ENDMDL
MODEL 2
REMARK VINA RESULT:      -7.7      1.154      2.153
REMARK  16 active torsions:
REMARK  status: ('A' for Active; 'I' for Inactive)
REMARK    1  A    between atoms: O_2  and  C_22 
REMARK    2  A    between atoms: O_2  and  C_26 
REMARK    3  A    between atoms: O_4  and  C_18 
REMARK    4  A    between atoms: O_5  and  C_19 
REMARK    5  A    between atoms: O_6  and  C_25 
REMARK    6  A    between atoms: O_6  and  C_29 
REMARK    7  A    between atoms: O_7  and  C_20 
REMARK    8  A    between atoms: O_8  and  C_21 
REMARK    9  A    between atoms: O_9  and  C_23 
REMARK   10  A    between atoms: O_10  and  C_24 
REMARK   11  A    between atoms: O_13  and  C_35 
REMARK   12  A    between atoms: O_14  and  C_40 
REMARK   13  A    between atoms: O_15  and  C_41 
REMARK   14  A    between atoms: O_16  and  C_43 
REMARK   15  A    between atoms: C_17  and  C_26 
REMARK   16  A    between atoms: C_30  and  C_33 
ROOT
HETATM    1  O   UNK     0     -24.098  53.985   9.416  0.00  0.00    -0.348 OA
HETATM    2  C   UNK     0     -24.619  53.626   8.135  0.00  0.00     0.180 C 
HETATM    3  C   UNK     0     -26.061  54.121   7.999  0.00  0.00     0.180 C 
HETATM    4  C   UNK     0     -26.929  53.581   9.136  0.00  0.00     0.183 C 
HETATM    5  C   UNK     0     -26.268  53.814  10.496  0.00  0.00     0.205 C 
HETATM    6  C   UNK     0     -24.807  53.365  10.487  0.00  0.00     0.298 C 
ENDROOT
BRANCH   2   7
HETATM    7  C   UNK     0     -23.707  54.244   7.080  0.00  0.00     0.205 C 
BRANCH   7   8
HETATM    8  O   UNK     0     -23.140  55.438   7.600  0.00  0.00    -0.356 OA
BRANCH   8   9
HETATM    9  C   UNK     0     -24.063  56.521   7.541  0.00  0.00     0.291 C 
HETATM   10  O   UNK     0     -24.074  57.159   6.261  0.00  0.00    -0.351 OA
HETATM   11  C   UNK     0     -22.841  57.795   5.911  0.00  0.00     0.152 C 
HETATM   12  C   UNK     0     -22.466  58.873   6.938  0.00  0.00     0.178 C 
HETATM   13  C   UNK     0     -23.020  58.377   4.511  0.00  0.00     0.042 C 
HETATM   14  C   UNK     0     -22.443  58.273   8.345  0.00  0.00     0.183 C 
HETATM   15  C   UNK     0     -23.745  57.529   8.644  0.00  0.00     0.204 C 
BRANCH  12  16
HETATM   16  O   UNK     0     -21.169  59.393   6.657  0.00  0.00    -0.390 OA
HETATM   17  H   UNK     0     -20.526  58.901   7.195  0.00  0.00     0.210 HD
ENDBRANCH  12  16
BRANCH  14  18
HETATM   18  O   UNK     0     -22.249  59.317   9.297  0.00  0.00    -0.390 OA
HETATM   19  H   UNK     0     -22.931  59.992   9.139  0.00  0.00     0.210 HD
ENDBRANCH  14  18
BRANCH  15  20
HETATM   20  O   UNK     0     -24.831  58.455   8.712  0.00  0.00    -0.388 OA
HETATM   21  H   UNK     0     -24.570  59.192   9.291  0.00  0.00     0.210 HD
ENDBRANCH  15  20
ENDBRANCH   8   9
ENDBRANCH   7   8
ENDBRANCH   2   7
BRANCH   6  22
HETATM   22  O   UNK     0     -24.223  53.744  11.734  0.00  0.00    -0.311 OA
BRANCH  22  23
HETATM   23  C   UNK     0     -23.220  52.877  12.108  0.00  0.00     0.157 A 
HETATM   24  C   UNK     0     -21.941  53.259  12.268  0.00  0.00     0.124 A 
HETATM   25  O   UNK     0     -20.902  52.408  12.612  0.00  0.00    -0.306 OA
HETATM   26  C   UNK     0     -21.186  51.084  12.826  0.00  0.00     0.096 A 
HETATM   27  C   UNK     0     -22.470  50.557  12.703  0.00  0.00     0.084 A 
HETATM   28  C   UNK     0     -20.122  50.253  13.181  0.00  0.00     0.075 A 
HETATM   29  C   UNK     0     -23.574  51.453  12.325  0.00  0.00     0.223 A 
HETATM   30  C   UNK     0     -22.701  49.198  12.932  0.00  0.00     0.085 A 
HETATM   31  O   UNK     0     -24.721  51.047  12.196  0.00  0.00    -0.284 OA
HETATM   32  C   UNK     0     -21.634  48.370  13.287  0.00  0.00     0.074 A 
HETATM   33  C   UNK     0     -20.348  48.896  13.411  0.00  0.00     0.071 A 
BRANCH  24  34
HETATM   34  C   UNK     0     -21.499  54.651  12.067  0.00  0.00     0.004 A 
HETATM   35  C   UNK     0     -21.429  55.525  13.152  0.00  0.00     0.053 A 
HETATM   36  C   UNK     0     -21.009  56.841  12.963  0.00  0.00     0.099 A 
HETATM   37  C   UNK     0     -20.660  57.285  11.687  0.00  0.00     0.098 A 
HETATM   38  C   UNK     0     -20.731  56.412  10.602  0.00  0.00     0.040 A 
HETATM   39  C   UNK     0     -21.149  55.095  10.792  0.00  0.00     0.017 A 
BRANCH  36  40
HETATM   40  O   UNK     0     -20.947  57.686  14.030  0.00  0.00    -0.358 OA
HETATM   41  H   UNK     0     -20.076  57.614  14.453  0.00  0.00     0.217 HD
ENDBRANCH  36  40
BRANCH  37  42
HETATM   42  O   UNK     0     -20.248  58.568  11.490  0.00  0.00    -0.358 OA
HETATM   43  H   UNK     0     -20.353  58.805  10.555  0.00  0.00     0.217 HD
ENDBRANCH  37  42
ENDBRANCH  24  34
BRANCH  30  44
HETATM   44  O   UNK     0     -23.934  48.633  12.824  0.00  0.00    -0.360 OA
HETATM   45  H   UNK     0     -23.930  47.758  13.249  0.00  0.00     0.217 HD
ENDBRANCH  30  44
BRANCH  33  46
HETATM   46  O   UNK     0     -19.312  48.084  13.757  0.00  0.00    -0.361 OA
HETATM   47  H   UNK     0     -18.538  48.634  13.969  0.00  0.00     0.217 HD
ENDBRANCH  33  46
ENDBRANCH  22  23
ENDBRANCH   6  22
BRANCH   3  48
HETATM   48  O   UNK     0     -26.593  53.683   6.752  0.00  0.00    -0.390 OA
HETATM   49  H   UNK     0     -27.387  54.211   6.562  0.00  0.00     0.210 HD
ENDBRANCH   3  48
BRANCH   5  50
HETATM   50  O   UNK     0     -26.961  53.065  11.494  0.00  0.00    -0.388 OA
HETATM   51  H   UNK     0     -27.842  52.845  11.148  0.00  0.00     0.210 HD
ENDBRANCH   5  50
BRANCH   4  52
HETATM   52  O   UNK     0     -28.184  54.263   9.095  0.00  0.00    -0.390 OA
HETATM   53  H   UNK     0     -28.097  55.066   9.636  0.00  0.00     0.210 HD
ENDBRANCH   4  52
TORSDOF 16
ENDMDL
MODEL 3
REMARK VINA RESULT:      -7.5     12.249     18.834
REMARK  16 active torsions:
REMARK  status: ('A' for Active; 'I' for Inactive)
REMARK    1  A    between atoms: O_2  and  C_22 
REMARK    2  A    between atoms: O_2  and  C_26 
REMARK    3  A    between atoms: O_4  and  C_18 
REMARK    4  A    between atoms: O_5  and  C_19 
REMARK    5  A    between atoms: O_6  and  C_25 
REMARK    6  A    between atoms: O_6  and  C_29 
REMARK    7  A    between atoms: O_7  and  C_20 
REMARK    8  A    between atoms: O_8  and  C_21 
REMARK    9  A    between atoms: O_9  and  C_23 
REMARK   10  A    between atoms: O_10  and  C_24 
REMARK   11  A    between atoms: O_13  and  C_35 
REMARK   12  A    between atoms: O_14  and  C_40 
REMARK   13  A    between atoms: O_15  and  C_41 
REMARK   14  A    between atoms: O_16  and  C_43 
REMARK   15  A    between atoms: C_17  and  C_26 
REMARK   16  A    between atoms: C_30  and  C_33 
ROOT
HETATM    1  O   UNK     0     -12.145  41.294   7.523  0.00  0.00    -0.348 OA
HETATM    2  C   UNK     0     -12.405  40.012   6.948  0.00  0.00     0.180 C 
HETATM    3  C   UNK     0     -12.478  40.128   5.424  0.00  0.00     0.180 C 
HETATM    4  C   UNK     0     -13.526  41.161   5.008  0.00  0.00     0.183 C 
HETATM    5  C   UNK     0     -13.342  42.474   5.769  0.00  0.00     0.205 C 
HETATM    6  C   UNK     0     -13.192  42.229   7.271  0.00  0.00     0.298 C 
ENDROOT
BRANCH   2   7
HETATM    7  C   UNK     0     -11.286  39.075   7.391  0.00  0.00     0.205 C 
BRANCH   7   8
HETATM    8  O   UNK     0     -11.733  37.732   7.273  0.00  0.00    -0.356 OA
BRANCH   8   9
HETATM    9  C   UNK     0     -10.689  36.808   7.560  0.00  0.00     0.291 C 
HETATM   10  O   UNK     0     -10.527  35.830   6.529  0.00  0.00    -0.351 OA
HETATM   11  C   UNK     0     -11.655  34.966   6.358  0.00  0.00     0.152 C 
HETATM   12  C   UNK     0     -11.961  34.197   7.651  0.00  0.00     0.178 C 
HETATM   13  C   UNK     0     -11.326  34.027   5.199  0.00  0.00     0.042 C 
HETATM   14  C   UNK     0     -12.138  35.174   8.814  0.00  0.00     0.183 C 
HETATM   15  C   UNK     0     -10.951  36.135   8.907  0.00  0.00     0.204 C 
BRANCH  12  16
HETATM   16  O   UNK     0     -13.170  33.453   7.509  0.00  0.00    -0.390 OA
HETATM   17  H   UNK     0     -13.913  34.057   7.678  0.00  0.00     0.210 HD
ENDBRANCH  12  16
BRANCH  14  18
HETATM   18  O   UNK     0     -12.264  34.439  10.029  0.00  0.00    -0.390 OA
HETATM   19  H   UNK     0     -12.481  33.519   9.798  0.00  0.00     0.210 HD
ENDBRANCH  14  18
BRANCH  15  20
HETATM   20  O   UNK     0      -9.771  35.417   9.271  0.00  0.00    -0.388 OA
HETATM   21  H   UNK     0      -9.499  35.704  10.160  0.00  0.00     0.210 HD
ENDBRANCH  15  20
ENDBRANCH   8   9
ENDBRANCH   7   8
ENDBRANCH   2   7
BRANCH   6  22
HETATM   22  O   UNK     0     -12.883  43.476   7.891  0.00  0.00    -0.311 OA
BRANCH  22  23
HETATM   23  C   UNK     0     -13.589  43.649   9.061  0.00  0.00     0.157 A 
HETATM   24  C   UNK     0     -13.076  43.381  10.276  0.00  0.00     0.124 A 
HETATM   25  O   UNK     0     -13.769  43.513  11.469  0.00  0.00    -0.306 OA
HETATM   26  C   UNK     0     -15.062  43.966  11.427  0.00  0.00     0.096 A 
HETATM   27  C   UNK     0     -15.711  44.289  10.238  0.00  0.00     0.084 A 
HETATM   28  C   UNK     0     -15.731  44.098  12.645  0.00  0.00     0.075 A 
HETATM   29  C   UNK     0     -14.985  44.139   8.967  0.00  0.00     0.223 A 
HETATM   30  C   UNK     0     -17.032  44.746  10.256  0.00  0.00     0.085 A 
HETATM   31  O   UNK     0     -15.506  44.402   7.891  0.00  0.00    -0.284 OA
HETATM   32  C   UNK     0     -17.698  44.878  11.475  0.00  0.00     0.074 A 
HETATM   33  C   UNK     0     -17.049  44.555  12.667  0.00  0.00     0.071 A 
BRANCH  24  34
HETATM   34  C   UNK     0     -11.701  42.885  10.463  0.00  0.00     0.004 A 
HETATM   35  C   UNK     0     -10.624  43.769  10.388  0.00  0.00     0.053 A 
HETATM   36  C   UNK     0      -9.323  43.300  10.567  0.00  0.00     0.099 A 
HETATM   37  C   UNK     0      -9.097  41.947  10.819  0.00  0.00     0.098 A 
HETATM   38  C   UNK     0     -10.173  41.063  10.893  0.00  0.00     0.040 A 
HETATM   39  C   UNK     0     -11.475  41.532  10.716  0.00  0.00     0.017 A 
BRANCH  36  40
HETATM   40  O   UNK     0      -8.279  44.173  10.489  0.00  0.00    -0.358 OA
HETATM   41  H   UNK     0      -8.059  44.337   9.558  0.00  0.00     0.217 HD
ENDBRANCH  36  40
BRANCH  37  42
HETATM   42  O   UNK     0      -7.831  41.478  10.996  0.00  0.00    -0.358 OA
HETATM   43  H   UNK     0      -7.766  40.572  10.654  0.00  0.00     0.217 HD
ENDBRANCH  37  42
ENDBRANCH  24  34
BRANCH  30  44
HETATM   44  O   UNK     0     -17.711  45.075   9.123  0.00  0.00    -0.360 OA
HETATM   45  H   UNK     0     -18.507  45.584   9.356  0.00  0.00     0.217 HD
ENDBRANCH  30  44
BRANCH  33  46
HETATM   46  O   UNK     0     -17.703  44.684  13.854  0.00  0.00    -0.361 OA
HETATM   47  H   UNK     0     -18.494  45.233  13.721  0.00  0.00     0.217 HD
ENDBRANCH  33  46
ENDBRANCH  22  23
ENDBRANCH   6  22
BRANCH   3  48
HETATM   48  O   UNK     0     -12.820  38.861   4.871  0.00  0.00    -0.390 OA
HETATM   49  H   UNK     0     -13.419  38.413   5.492  0.00  0.00     0.210 HD
ENDBRANCH   3  48
BRANCH   5  50
HETATM   50  O   UNK     0     -14.484  43.305   5.564  0.00  0.00    -0.388 OA
HETATM   51  H   UNK     0     -14.754  43.222   4.634  0.00  0.00     0.210 HD
ENDBRANCH   5  50
BRANCH   4  52
HETATM   52  O   UNK     0     -13.378  41.400   3.607  0.00  0.00    -0.390 OA
HETATM   53  H   UNK     0     -12.661  42.047   3.496  0.00  0.00     0.210 HD
ENDBRANCH   4  52
TORSDOF 16
ENDMDL
MODEL 4
REMARK VINA RESULT:      -7.4     12.543     18.053
REMARK  16 active torsions:
REMARK  status: ('A' for Active; 'I' for Inactive)
REMARK    1  A    between atoms: O_2  and  C_22 
REMARK    2  A    between atoms: O_2  and  C_26 
REMARK    3  A    between atoms: O_4  and  C_18 
REMARK    4  A    between atoms: O_5  and  C_19 
REMARK    5  A    between atoms: O_6  and  C_25 
REMARK    6  A    between atoms: O_6  and  C_29 
REMARK    7  A    between atoms: O_7  and  C_20 
REMARK    8  A    between atoms: O_8  and  C_21 
REMARK    9  A    between atoms: O_9  and  C_23 
REMARK   10  A    between atoms: O_10  and  C_24 
REMARK   11  A    between atoms: O_13  and  C_35 
REMARK   12  A    between atoms: O_14  and  C_40 
REMARK   13  A    between atoms: O_15  and  C_41 
REMARK   14  A    between atoms: O_16  and  C_43 
REMARK   15  A    between atoms: C_17  and  C_26 
REMARK   16  A    between atoms: C_30  and  C_33 
ROOT
HETATM    1  O   UNK     0     -11.987  42.468   8.419  0.00  0.00    -0.348 OA
HETATM    2  C   UNK     0     -12.156  41.410   7.473  0.00  0.00     0.180 C 
HETATM    3  C   UNK     0     -12.367  41.991   6.073  0.00  0.00     0.180 C 
HETATM    4  C   UNK     0     -13.550  42.958   6.059  0.00  0.00     0.183 C 
HETATM    5  C   UNK     0     -13.447  43.976   7.195  0.00  0.00     0.205 C 
HETATM    6  C   UNK     0     -13.146  43.292   8.528  0.00  0.00     0.298 C 
ENDROOT
BRANCH   2   7
HETATM    7  C   UNK     0     -10.909  40.533   7.540  0.00  0.00     0.205 C 
BRANCH   7   8
HETATM    8  O   UNK     0     -11.199  39.376   8.310  0.00  0.00    -0.356 OA
BRANCH   8   9
HETATM    9  C   UNK     0     -11.426  38.241   7.480  0.00  0.00     0.291 C 
HETATM   10  O   UNK     0     -12.750  37.718   7.622  0.00  0.00    -0.351 OA
HETATM   11  C   UNK     0     -13.040  37.201   8.925  0.00  0.00     0.152 C 
HETATM   12  C   UNK     0     -12.075  36.066   9.294  0.00  0.00     0.178 C 
HETATM   13  C   UNK     0     -14.493  36.732   8.906  0.00  0.00     0.042 C 
HETATM   14  C   UNK     0     -10.628  36.540   9.156  0.00  0.00     0.183 C 
HETATM   15  C   UNK     0     -10.385  37.165   7.781  0.00  0.00     0.204 C 
BRANCH  12  16
HETATM   16  O   UNK     0     -12.282  35.661  10.646  0.00  0.00    -0.390 OA
HETATM   17  H   UNK     0     -13.133  35.193  10.690  0.00  0.00     0.210 HD
ENDBRANCH  12  16
BRANCH  14  18
HETATM   18  O   UNK     0      -9.750  35.434   9.349  0.00  0.00    -0.390 OA
HETATM   19  H   UNK     0      -8.885  35.672   8.973  0.00  0.00     0.210 HD
ENDBRANCH  14  18
BRANCH  15  20
HETATM   20  O   UNK     0     -10.488  36.164   6.767  0.00  0.00    -0.388 OA
HETATM   21  H   UNK     0      -9.592  35.856   6.547  0.00  0.00     0.210 HD
ENDBRANCH  15  20
ENDBRANCH   8   9
ENDBRANCH   7   8
ENDBRANCH   2   7
BRANCH   6  22
HETATM   22  O   UNK     0     -12.923  44.310   9.504  0.00  0.00    -0.311 OA
BRANCH  22  23
HETATM   23  C   UNK     0     -13.463  43.970  10.724  0.00  0.00     0.157 A 
HETATM   24  C   UNK     0     -12.790  43.275  11.658  0.00  0.00     0.124 A 
HETATM   25  O   UNK     0     -13.314  42.888  12.882  0.00  0.00    -0.306 OA
HETATM   26  C   UNK     0     -14.602  43.249  13.185  0.00  0.00     0.096 A 
HETATM   27  C   UNK     0     -15.407  43.977  12.312  0.00  0.00     0.084 A 
HETATM   28  C   UNK     0     -15.098  42.854  14.428  0.00  0.00     0.075 A 
HETATM   29  C   UNK     0     -14.861  44.378  11.006  0.00  0.00     0.223 A 
HETATM   30  C   UNK     0     -16.714  44.316  12.674  0.00  0.00     0.085 A 
HETATM   31  O   UNK     0     -15.523  45.013  10.197  0.00  0.00    -0.284 OA
HETATM   32  C   UNK     0     -17.208  43.920  13.918  0.00  0.00     0.074 A 
HETATM   33  C   UNK     0     -16.402  43.191  14.793  0.00  0.00     0.071 A 
BRANCH  24  34
HETATM   34  C   UNK     0     -11.401  42.823  11.461  0.00  0.00     0.004 A 
HETATM   35  C   UNK     0     -10.412  43.740  11.103  0.00  0.00     0.053 A 
HETATM   36  C   UNK     0      -9.098  43.313  10.918  0.00  0.00     0.099 A 
HETATM   37  C   UNK     0      -8.771  41.968  11.089  0.00  0.00     0.098 A 
HETATM   38  C   UNK     0      -9.759  41.050  11.446  0.00  0.00     0.040 A 
HETATM   39  C   UNK     0     -11.073  41.478  11.633  0.00  0.00     0.017 A 
BRANCH  36  40
HETATM   40  O   UNK     0      -8.141  44.218  10.567  0.00  0.00    -0.358 OA
HETATM   41  H   UNK     0      -8.314  45.065  11.011  0.00  0.00     0.217 HD
ENDBRANCH  36  40
BRANCH  37  42
HETATM   42  O   UNK     0      -7.490  41.539  10.911  0.00  0.00    -0.358 OA
HETATM   43  H   UNK     0      -6.993  41.640  11.739  0.00  0.00     0.217 HD
ENDBRANCH  37  42
ENDBRANCH  24  34
BRANCH  30  44
HETATM   44  O   UNK     0     -17.542  45.024  11.858  0.00  0.00    -0.360 OA
HETATM   45  H   UNK     0     -17.435  44.717  10.941  0.00  0.00     0.217 HD
ENDBRANCH  30  44
BRANCH  33  46
HETATM   46  O   UNK     0     -16.888  42.807  16.005  0.00  0.00    -0.361 OA
HETATM   47  H   UNK     0     -16.389  42.031  16.314  0.00  0.00     0.217 HD
ENDBRANCH  33  46
ENDBRANCH  22  23
ENDBRANCH   6  22
BRANCH   3  48
HETATM   48  O   UNK     0     -12.616  40.929   5.156  0.00  0.00    -0.390 OA
HETATM   49  H   UNK     0     -12.893  41.320   4.310  0.00  0.00     0.210 HD
ENDBRANCH   3  48
BRANCH   5  50
HETATM   50  O   UNK     0     -14.685  44.676   7.319  0.00  0.00    -0.388 OA
HETATM   51  H   UNK     0     -15.398  44.018   7.375  0.00  0.00     0.210 HD
ENDBRANCH   5  50
BRANCH   4  52
HETATM   52  O   UNK     0     -13.546  43.642   4.805  0.00  0.00    -0.390 OA
HETATM   53  H   UNK     0     -12.622  43.703   4.509  0.00  0.00     0.210 HD
ENDBRANCH   4  52
TORSDOF 16
ENDMDL
MODEL 5
REMARK VINA RESULT:      -7.3      2.443      8.361
REMARK  16 active torsions:
REMARK  status: ('A' for Active; 'I' for Inactive)
REMARK    1  A    between atoms: O_2  and  C_22 
REMARK    2  A    between atoms: O_2  and  C_26 
REMARK    3  A    between atoms: O_4  and  C_18 
REMARK    4  A    between atoms: O_5  and  C_19 
REMARK    5  A    between atoms: O_6  and  C_25 
REMARK    6  A    between atoms: O_6  and  C_29 
REMARK    7  A    between atoms: O_7  and  C_20 
REMARK    8  A    between atoms: O_8  and  C_21 
REMARK    9  A    between atoms: O_9  and  C_23 
REMARK   10  A    between atoms: O_10  and  C_24 
REMARK   11  A    between atoms: O_13  and  C_35 
REMARK   12  A    between atoms: O_14  and  C_40 
REMARK   13  A    between atoms: O_15  and  C_41 
REMARK   14  A    between atoms: O_16  and  C_43 
REMARK   15  A    between atoms: C_17  and  C_26 
REMARK   16  A    between atoms: C_30  and  C_33 
ROOT
HETATM    1  O   UNK     0     -22.359  53.908   9.113  0.00  0.00    -0.348 OA
HETATM    2  C   UNK     0     -22.837  52.562   9.076  0.00  0.00     0.180 C 
HETATM    3  C   UNK     0     -21.831  51.671   8.344  0.00  0.00     0.180 C 
HETATM    4  C   UNK     0     -21.546  52.212   6.942  0.00  0.00     0.183 C 
HETATM    5  C   UNK     0     -21.213  53.703   6.982  0.00  0.00     0.205 C 
HETATM    6  C   UNK     0     -22.234  54.479   7.813  0.00  0.00     0.298 C 
ENDROOT
BRANCH   2   7
HETATM    7  C   UNK     0     -23.049  52.110  10.518  0.00  0.00     0.205 C 
BRANCH   7   8
HETATM    8  O   UNK     0     -21.841  51.546  11.007  0.00  0.00    -0.356 OA
BRANCH   8   9
HETATM    9  C   UNK     0     -21.052  52.516  11.688  0.00  0.00     0.291 C 
HETATM   10  O   UNK     0     -19.786  52.729  11.056  0.00  0.00    -0.351 OA
HETATM   11  C   UNK     0     -18.927  51.584  11.062  0.00  0.00     0.152 C 
HETATM   12  C   UNK     0     -18.633  51.123  12.497  0.00  0.00     0.178 C 
HETATM   13  C   UNK     0     -17.654  51.977  10.316  0.00  0.00     0.042 C 
HETATM   14  C   UNK     0     -19.941  50.883  13.250  0.00  0.00     0.183 C 
HETATM   15  C   UNK     0     -20.865  52.099  13.145  0.00  0.00     0.204 C 
BRANCH  12  16
HETATM   16  O   UNK     0     -17.899  49.901  12.482  0.00  0.00    -0.390 OA
HETATM   17  H   UNK     0     -18.112  49.435  11.657  0.00  0.00     0.210 HD
ENDBRANCH  12  16
BRANCH  14  18
HETATM   18  O   UNK     0     -19.652  50.611  14.620  0.00  0.00    -0.390 OA
HETATM   19  H   UNK     0     -20.193  51.210  15.162  0.00  0.00     0.210 HD
ENDBRANCH  14  18
BRANCH  15  20
HETATM   20  O   UNK     0     -20.294  53.206  13.845  0.00  0.00    -0.388 OA
HETATM   21  H   UNK     0     -19.336  53.057  13.925  0.00  0.00     0.210 HD
ENDBRANCH  15  20
ENDBRANCH   8   9
ENDBRANCH   7   8
ENDBRANCH   2   7
BRANCH   6  22
HETATM   22  O   UNK     0     -21.779  55.828   7.921  0.00  0.00    -0.311 OA
BRANCH  22  23
HETATM   23  C   UNK     0     -22.831  56.712   8.012  0.00  0.00     0.157 A 
HETATM   24  C   UNK     0     -23.225  57.269   9.172  0.00  0.00     0.124 A 
HETATM   25  O   UNK     0     -24.299  58.136   9.303  0.00  0.00    -0.306 OA
HETATM   26  C   UNK     0     -25.006  58.476   8.179  0.00  0.00     0.096 A 
HETATM   27  C   UNK     0     -24.699  57.979   6.915  0.00  0.00     0.084 A 
HETATM   28  C   UNK     0     -26.075  59.358   8.342  0.00  0.00     0.075 A 
HETATM   29  C   UNK     0     -23.569  57.048   6.771  0.00  0.00     0.223 A 
HETATM   30  C   UNK     0     -25.457  58.359   5.803  0.00  0.00     0.085 A 
HETATM   31  O   UNK     0     -23.256  56.574   5.687  0.00  0.00    -0.284 OA
HETATM   32  C   UNK     0     -26.525  59.242   5.969  0.00  0.00     0.074 A 
HETATM   33  C   UNK     0     -26.833  59.741   7.235  0.00  0.00     0.071 A 
BRANCH  24  34
HETATM   34  C   UNK     0     -22.554  56.988  10.453  0.00  0.00     0.004 A 
HETATM   35  C   UNK     0     -23.134  56.106  11.366  0.00  0.00     0.053 A 
HETATM   36  C   UNK     0     -22.499  55.839  12.579  0.00  0.00     0.099 A 
HETATM   37  C   UNK     0     -21.284  56.453  12.880  0.00  0.00     0.098 A 
HETATM   38  C   UNK     0     -20.704  57.335  11.968  0.00  0.00     0.040 A 
HETATM   39  C   UNK     0     -21.339  57.602  10.755  0.00  0.00     0.017 A 
BRANCH  36  40
HETATM   40  O   UNK     0     -23.077  54.977  13.463  0.00  0.00    -0.358 OA
HETATM   41  H   UNK     0     -22.405  54.368  13.811  0.00  0.00     0.217 HD
ENDBRANCH  36  40
BRANCH  37  42
HETATM   42  O   UNK     0     -20.654  56.200  14.060  0.00  0.00    -0.358 OA
HETATM   43  H   UNK     0     -21.310  55.984  14.742  0.00  0.00     0.217 HD
ENDBRANCH  37  42
ENDBRANCH  24  34
BRANCH  30  44
HETATM   44  O   UNK     0     -25.199  57.902   4.547  0.00  0.00    -0.360 OA
HETATM   45  H   UNK     0     -25.849  58.274   3.926  0.00  0.00     0.217 HD
ENDBRANCH  30  44
BRANCH  33  46
HETATM   46  O   UNK     0     -27.876  60.602   7.391  0.00  0.00    -0.361 OA
HETATM   47  H   UNK     0     -28.382  60.638   6.562  0.00  0.00     0.217 HD
ENDBRANCH  33  46
ENDBRANCH  22  23
ENDBRANCH   6  22
BRANCH   3  48
HETATM   48  O   UNK     0     -22.358  50.351   8.241  0.00  0.00    -0.390 OA
HETATM   49  H   UNK     0     -22.249  50.054   7.322  0.00  0.00     0.210 HD
ENDBRANCH   3  48
BRANCH   5  50
HETATM   50  O   UNK     0     -21.225  54.227   5.654  0.00  0.00    -0.388 OA
HETATM   51  H   UNK     0     -21.706  55.071   5.667  0.00  0.00     0.210 HD
ENDBRANCH   5  50
BRANCH   4  52
HETATM   52  O   UNK     0     -20.435  51.490   6.408  0.00  0.00    -0.390 OA
HETATM   53  H   UNK     0     -19.630  51.854   6.813  0.00  0.00     0.210 HD
ENDBRANCH   4  52
TORSDOF 16
ENDMDL
MODEL 6
REMARK VINA RESULT:      -7.3     27.186     31.679
REMARK  16 active torsions:
REMARK  status: ('A' for Active; 'I' for Inactive)
REMARK    1  A    between atoms: O_2  and  C_22 
REMARK    2  A    between atoms: O_2  and  C_26 
REMARK    3  A    between atoms: O_4  and  C_18 
REMARK    4  A    between atoms: O_5  and  C_19 
REMARK    5  A    between atoms: O_6  and  C_25 
REMARK    6  A    between atoms: O_6  and  C_29 
REMARK    7  A    between atoms: O_7  and  C_20 
REMARK    8  A    between atoms: O_8  and  C_21 
REMARK    9  A    between atoms: O_9  and  C_23 
REMARK   10  A    between atoms: O_10  and  C_24 
REMARK   11  A    between atoms: O_13  and  C_35 
REMARK   12  A    between atoms: O_14  and  C_40 
REMARK   13  A    between atoms: O_15  and  C_41 
REMARK   14  A    between atoms: O_16  and  C_43 
REMARK   15  A    between atoms: C_17  and  C_26 
REMARK   16  A    between atoms: C_30  and  C_33 
ROOT
HETATM    1  O   UNK     0     -11.265  45.881  37.921  0.00  0.00    -0.348 OA
HETATM    2  C   UNK     0     -10.950  46.299  36.592  0.00  0.00     0.180 C 
HETATM    3  C   UNK     0     -10.316  45.142  35.817  0.00  0.00     0.180 C 
HETATM    4  C   UNK     0      -9.086  44.607  36.551  0.00  0.00     0.183 C 
HETATM    5  C   UNK     0      -9.394  44.334  38.023  0.00  0.00     0.205 C 
HETATM    6  C   UNK     0     -10.106  45.522  38.670  0.00  0.00     0.298 C 
ENDROOT
BRANCH   2   7
HETATM    7  C   UNK     0     -12.246  46.773  35.940  0.00  0.00     0.205 C 
BRANCH   7   8
HETATM    8  O   UNK     0     -12.151  48.166  35.682  0.00  0.00    -0.356 OA
BRANCH   8   9
HETATM    9  C   UNK     0     -12.661  48.492  34.393  0.00  0.00     0.291 C 
HETATM   10  O   UNK     0     -12.659  49.901  34.146  0.00  0.00    -0.351 OA
HETATM   11  C   UNK     0     -13.522  50.649  35.009  0.00  0.00     0.152 C 
HETATM   12  C   UNK     0     -14.978  50.179  34.876  0.00  0.00     0.178 C 
HETATM   13  C   UNK     0     -13.361  52.121  34.637  0.00  0.00     0.042 C 
HETATM   14  C   UNK     0     -15.067  48.671  35.114  0.00  0.00     0.183 C 
HETATM   15  C   UNK     0     -14.068  47.918  34.234  0.00  0.00     0.204 C 
BRANCH  12  16
HETATM   16  O   UNK     0     -15.798  50.830  35.843  0.00  0.00    -0.390 OA
HETATM   17  H   UNK     0     -15.814  51.779  35.631  0.00  0.00     0.210 HD
ENDBRANCH  12  16
BRANCH  14  18
HETATM   18  O   UNK     0     -16.393  48.229  34.832  0.00  0.00    -0.390 OA
HETATM   19  H   UNK     0     -16.579  47.465  35.405  0.00  0.00     0.210 HD
ENDBRANCH  14  18
BRANCH  15  20
HETATM   20  O   UNK     0     -14.437  48.044  32.860  0.00  0.00    -0.388 OA
HETATM   21  H   UNK     0     -15.329  47.674  32.747  0.00  0.00     0.210 HD
ENDBRANCH  15  20
ENDBRANCH   8   9
ENDBRANCH   7   8
ENDBRANCH   2   7
BRANCH   6  22
HETATM   22  O   UNK     0     -10.486  45.140  39.992  0.00  0.00    -0.311 OA
BRANCH  22  23
HETATM   23  C   UNK     0      -9.797  45.858  40.945  0.00  0.00     0.157 A 
HETATM   24  C   UNK     0      -9.986  47.173  41.154  0.00  0.00     0.124 A 
HETATM   25  O   UNK     0      -9.287  47.930  42.081  0.00  0.00    -0.306 OA
HETATM   26  C   UNK     0      -8.349  47.306  42.862  0.00  0.00     0.096 A 
HETATM   27  C   UNK     0      -8.061  45.947  42.755  0.00  0.00     0.084 A 
HETATM   28  C   UNK     0      -7.669  48.093  43.792  0.00  0.00     0.075 A 
HETATM   29  C   UNK     0      -8.789  45.141  41.763  0.00  0.00     0.223 A 
HETATM   30  C   UNK     0      -7.092  45.364  43.576  0.00  0.00     0.085 A 
HETATM   31  O   UNK     0      -8.575  43.945  41.620  0.00  0.00    -0.284 OA
HETATM   32  C   UNK     0      -6.414  46.153  44.507  0.00  0.00     0.074 A 
HETATM   33  C   UNK     0      -6.702  47.514  44.615  0.00  0.00     0.071 A 
BRANCH  24  34
HETATM   34  C   UNK     0     -10.961  47.965  40.383  0.00  0.00     0.004 A 
HETATM   35  C   UNK     0     -10.525  48.792  39.348  0.00  0.00     0.053 A 
HETATM   36  C   UNK     0     -11.447  49.541  38.617  0.00  0.00     0.099 A 
HETATM   37  C   UNK     0     -12.806  49.464  38.923  0.00  0.00     0.098 A 
HETATM   38  C   UNK     0     -13.242  48.638  39.959  0.00  0.00     0.040 A 
HETATM   39  C   UNK     0     -12.320  47.889  40.688  0.00  0.00     0.017 A 
BRANCH  36  40
HETATM   40  O   UNK     0     -11.009  50.346  37.609  0.00  0.00    -0.358 OA
HETATM   41  H   UNK     0     -10.039  50.342  37.586  0.00  0.00     0.217 HD
ENDBRANCH  36  40
BRANCH  37  42
HETATM   42  O   UNK     0     -13.716  50.191  38.216  0.00  0.00    -0.358 OA
HETATM   43  H   UNK     0     -13.267  50.908  37.743  0.00  0.00     0.217 HD
ENDBRANCH  37  42
ENDBRANCH  24  34
BRANCH  30  44
HETATM   44  O   UNK     0      -6.772  44.043  43.512  0.00  0.00    -0.360 OA
HETATM   45  H   UNK     0      -7.498  43.553  43.086  0.00  0.00     0.217 HD
ENDBRANCH  30  44
BRANCH  33  46
HETATM   46  O   UNK     0      -6.038  48.280  45.523  0.00  0.00    -0.361 OA
HETATM   47  H   UNK     0      -5.204  48.587  45.128  0.00  0.00     0.217 HD
ENDBRANCH  33  46
ENDBRANCH  22  23
ENDBRANCH   6  22
BRANCH   3  48
HETATM   48  O   UNK     0      -9.931  45.596  34.522  0.00  0.00    -0.390 OA
HETATM   49  H   UNK     0     -10.582  45.264  33.881  0.00  0.00     0.210 HD
ENDBRANCH   3  48
BRANCH   5  50
HETATM   50  O   UNK     0      -8.175  44.104  38.728  0.00  0.00    -0.388 OA
HETATM   51  H   UNK     0      -8.167  43.178  39.022  0.00  0.00     0.210 HD
ENDBRANCH   5  50
BRANCH   4  52
HETATM   52  O   UNK     0      -8.688  43.390  35.915  0.00  0.00    -0.390 OA
HETATM   53  H   UNK     0      -8.940  43.455  34.979  0.00  0.00     0.210 HD
ENDBRANCH   4  52
TORSDOF 16
ENDMDL
MODEL 7
REMARK VINA RESULT:      -7.2     13.284     18.549
REMARK  16 active torsions:
REMARK  status: ('A' for Active; 'I' for Inactive)
REMARK    1  A    between atoms: O_2  and  C_22 
REMARK    2  A    between atoms: O_2  and  C_26 
REMARK    3  A    between atoms: O_4  and  C_18 
REMARK    4  A    between atoms: O_5  and  C_19 
REMARK    5  A    between atoms: O_6  and  C_25 
REMARK    6  A    between atoms: O_6  and  C_29 
REMARK    7  A    between atoms: O_7  and  C_20 
REMARK    8  A    between atoms: O_8  and  C_21 
REMARK    9  A    between atoms: O_9  and  C_23 
REMARK   10  A    between atoms: O_10  and  C_24 
REMARK   11  A    between atoms: O_13  and  C_35 
REMARK   12  A    between atoms: O_14  and  C_40 
REMARK   13  A    between atoms: O_15  and  C_41 
REMARK   14  A    between atoms: O_16  and  C_43 
REMARK   15  A    between atoms: C_17  and  C_26 
REMARK   16  A    between atoms: C_30  and  C_33 
ROOT
HETATM    1  O   UNK     0     -11.946  41.590   9.808  0.00  0.00    -0.348 OA
HETATM    2  C   UNK     0     -11.884  42.093  11.145  0.00  0.00     0.180 C 
HETATM    3  C   UNK     0     -10.655  42.990  11.309  0.00  0.00     0.180 C 
HETATM    4  C   UNK     0      -9.380  42.239  10.926  0.00  0.00     0.183 C 
HETATM    5  C   UNK     0      -9.528  41.552   9.568  0.00  0.00     0.205 C 
HETATM    6  C   UNK     0     -10.833  40.759   9.487  0.00  0.00     0.298 C 
ENDROOT
BRANCH   2   7
HETATM    7  C   UNK     0     -13.180  42.856  11.407  0.00  0.00     0.205 C 
BRANCH   7   8
HETATM    8  O   UNK     0     -13.365  42.983  12.809  0.00  0.00    -0.356 OA
BRANCH   8   9
HETATM    9  C   UNK     0     -14.496  42.241  13.254  0.00  0.00     0.291 C 
HETATM   10  O   UNK     0     -15.672  43.049  13.358  0.00  0.00    -0.351 OA
HETATM   11  C   UNK     0     -15.587  44.086  14.341  0.00  0.00     0.152 C 
HETATM   12  C   UNK     0     -15.328  43.502  15.737  0.00  0.00     0.178 C 
HETATM   13  C   UNK     0     -16.898  44.866  14.282  0.00  0.00     0.042 C 
HETATM   14  C   UNK     0     -14.087  42.609  15.711  0.00  0.00     0.183 C 
HETATM   15  C   UNK     0     -14.181  41.572  14.591  0.00  0.00     0.204 C 
BRANCH  12  16
HETATM   16  O   UNK     0     -15.102  44.550  16.677  0.00  0.00    -0.390 OA
HETATM   17  H   UNK     0     -15.348  45.389  16.253  0.00  0.00     0.210 HD
ENDBRANCH  12  16
BRANCH  14  18
HETATM   18  O   UNK     0     -13.954  41.954  16.970  0.00  0.00    -0.390 OA
HETATM   19  H   UNK     0     -13.176  41.370  16.920  0.00  0.00     0.210 HD
ENDBRANCH  14  18
BRANCH  15  20
HETATM   20  O   UNK     0     -15.232  40.646  14.872  0.00  0.00    -0.388 OA
HETATM   21  H   UNK     0     -16.078  41.125  14.845  0.00  0.00     0.210 HD
ENDBRANCH  15  20
ENDBRANCH   8   9
ENDBRANCH   7   8
ENDBRANCH   2   7
BRANCH   6  22
HETATM   22  O   UNK     0     -10.968  40.270   8.153  0.00  0.00    -0.311 OA
BRANCH  22  23
HETATM   23  C   UNK     0     -11.620  39.057   8.120  0.00  0.00     0.157 A 
HETATM   24  C   UNK     0     -12.886  38.915   7.689  0.00  0.00     0.124 A 
HETATM   25  O   UNK     0     -13.583  37.717   7.674  0.00  0.00    -0.306 OA
HETATM   26  C   UNK     0     -12.944  36.584   8.107  0.00  0.00     0.096 A 
HETATM   27  C   UNK     0     -11.630  36.588   8.571  0.00  0.00     0.084 A 
HETATM   28  C   UNK     0     -13.667  35.391   8.071  0.00  0.00     0.075 A 
HETATM   29  C   UNK     0     -10.891  37.859   8.602  0.00  0.00     0.223 A 
HETATM   30  C   UNK     0     -11.030  35.402   9.002  0.00  0.00     0.085 A 
HETATM   31  O   UNK     0      -9.737  37.926   9.005  0.00  0.00    -0.284 OA
HETATM   32  C   UNK     0     -11.756  34.210   8.965  0.00  0.00     0.074 A 
HETATM   33  C   UNK     0     -13.071  34.205   8.500  0.00  0.00     0.071 A 
BRANCH  24  34
HETATM   34  C   UNK     0     -13.688  40.051   7.199  0.00  0.00     0.004 A 
HETATM   35  C   UNK     0     -13.442  40.585   5.935  0.00  0.00     0.053 A 
HETATM   36  C   UNK     0     -14.201  41.659   5.470  0.00  0.00     0.099 A 
HETATM   37  C   UNK     0     -15.207  42.199   6.271  0.00  0.00     0.098 A 
HETATM   38  C   UNK     0     -15.454  41.666   7.536  0.00  0.00     0.040 A 
HETATM   39  C   UNK     0     -14.695  40.592   8.000  0.00  0.00     0.017 A 
BRANCH  36  40
HETATM   40  O   UNK     0     -13.950  42.173   4.233  0.00  0.00    -0.358 OA
HETATM   41  H   UNK     0     -14.776  42.501   3.842  0.00  0.00     0.217 HD
ENDBRANCH  36  40
BRANCH  37  42
HETATM   42  O   UNK     0     -15.956  43.248   5.828  0.00  0.00    -0.358 OA
HETATM   43  H   UNK     0     -15.419  44.055   5.824  0.00  0.00     0.217 HD
ENDBRANCH  37  42
ENDBRANCH  24  34
BRANCH  30  44
HETATM   44  O   UNK     0      -9.751  35.352   9.465  0.00  0.00    -0.360 OA
HETATM   45  H   UNK     0      -9.400  34.451   9.355  0.00  0.00     0.217 HD
ENDBRANCH  30  44
BRANCH  33  46
HETATM   46  O   UNK     0     -13.775  33.040   8.465  0.00  0.00    -0.361 OA
HETATM   47  H   UNK     0     -13.454  32.456   9.173  0.00  0.00     0.217 HD
ENDBRANCH  33  46
ENDBRANCH  22  23
ENDBRANCH   6  22
BRANCH   3  48
HETATM   48  O   UNK     0     -10.561  43.417  12.665  0.00  0.00    -0.390 OA
HETATM   49  H   UNK     0     -10.582  44.389  12.677  0.00  0.00     0.210 HD
ENDBRANCH   3  48
BRANCH   5  50
HETATM   50  O   UNK     0      -8.442  40.647   9.373  0.00  0.00    -0.388 OA
HETATM   51  H   UNK     0      -8.440  40.376   8.440  0.00  0.00     0.210 HD
ENDBRANCH   5  50
BRANCH   4  52
HETATM   52  O   UNK     0      -8.311  43.185  10.866  0.00  0.00    -0.390 OA
HETATM   53  H   UNK     0      -7.856  43.165  11.725  0.00  0.00     0.210 HD
ENDBRANCH   4  52
TORSDOF 16
ENDMDL
MODEL 8
REMARK VINA RESULT:      -7.2     15.412     19.561
REMARK  16 active torsions:
REMARK  status: ('A' for Active; 'I' for Inactive)
REMARK    1  A    between atoms: O_2  and  C_22 
REMARK    2  A    between atoms: O_2  and  C_26 
REMARK    3  A    between atoms: O_4  and  C_18 
REMARK    4  A    between atoms: O_5  and  C_19 
REMARK    5  A    between atoms: O_6  and  C_25 
REMARK    6  A    between atoms: O_6  and  C_29 
REMARK    7  A    between atoms: O_7  and  C_20 
REMARK    8  A    between atoms: O_8  and  C_21 
REMARK    9  A    between atoms: O_9  and  C_23 
REMARK   10  A    between atoms: O_10  and  C_24 
REMARK   11  A    between atoms: O_13  and  C_35 
REMARK   12  A    between atoms: O_14  and  C_40 
REMARK   13  A    between atoms: O_15  and  C_41 
REMARK   14  A    between atoms: O_16  and  C_43 
REMARK   15  A    between atoms: C_17  and  C_26 
REMARK   16  A    between atoms: C_30  and  C_33 
ROOT
HETATM    1  O   UNK     0     -15.547  37.850  11.042  0.00  0.00    -0.348 OA
HETATM    2  C   UNK     0     -15.701  36.474  11.397  0.00  0.00     0.180 C 
HETATM    3  C   UNK     0     -17.069  36.254  12.048  0.00  0.00     0.180 C 
HETATM    4  C   UNK     0     -17.250  37.175  13.254  0.00  0.00     0.183 C 
HETATM    5  C   UNK     0     -16.904  38.622  12.903  0.00  0.00     0.205 C 
HETATM    6  C   UNK     0     -15.562  38.712  12.178  0.00  0.00     0.298 C 
ENDROOT
BRANCH   2   7
HETATM    7  C   UNK     0     -15.543  35.651  10.122  0.00  0.00     0.205 C 
BRANCH   7   8
HETATM    8  O   UNK     0     -14.269  35.918   9.554  0.00  0.00    -0.356 OA
BRANCH   8   9
HETATM    9  C   UNK     0     -13.309  34.944   9.948  0.00  0.00     0.291 C 
HETATM   10  O   UNK     0     -12.282  35.493  10.780  0.00  0.00    -0.351 OA
HETATM   11  C   UNK     0     -11.467  36.476  10.133  0.00  0.00     0.152 C 
HETATM   12  C   UNK     0     -10.767  35.886   8.900  0.00  0.00     0.178 C 
HETATM   13  C   UNK     0     -10.467  36.979  11.171  0.00  0.00     0.042 C 
HETATM   14  C   UNK     0     -11.798  35.263   7.959  0.00  0.00     0.183 C 
HETATM   15  C   UNK     0     -12.704  34.285   8.709  0.00  0.00     0.204 C 
BRANCH  12  16
HETATM   16  O   UNK     0     -10.077  36.910   8.187  0.00  0.00    -0.390 OA
HETATM   17  H   UNK     0     -10.521  37.028   7.330  0.00  0.00     0.210 HD
ENDBRANCH  12  16
BRANCH  14  18
HETATM   18  O   UNK     0     -11.121  34.586   6.903  0.00  0.00    -0.390 OA
HETATM   19  H   UNK     0     -11.795  34.203   6.315  0.00  0.00     0.210 HD
ENDBRANCH  14  18
BRANCH  15  20
HETATM   20  O   UNK     0     -11.947  33.155   9.143  0.00  0.00    -0.388 OA
HETATM   21  H   UNK     0     -12.314  32.846   9.989  0.00  0.00     0.210 HD
ENDBRANCH  15  20
ENDBRANCH   8   9
ENDBRANCH   7   8
ENDBRANCH   2   7
BRANCH   6  22
HETATM   22  O   UNK     0     -15.378  40.064  11.759  0.00  0.00    -0.311 OA
BRANCH  22  23
HETATM   23  C   UNK     0     -14.045  40.413  11.743  0.00  0.00     0.157 A 
HETATM   24  C   UNK     0     -13.445  41.069  12.752  0.00  0.00     0.124 A 
HETATM   25  O   UNK     0     -12.116  41.463  12.754  0.00  0.00    -0.306 OA
HETATM   26  C   UNK     0     -11.340  41.153  11.666  0.00  0.00     0.096 A 
HETATM   27  C   UNK     0     -11.834  40.469  10.558  0.00  0.00     0.084 A 
HETATM   28  C   UNK     0     -10.004  41.555  11.702  0.00  0.00     0.075 A 
HETATM   29  C   UNK     0     -13.246  40.060  10.544  0.00  0.00     0.223 A 
HETATM   30  C   UNK     0     -10.996  40.181   9.476  0.00  0.00     0.085 A 
HETATM   31  O   UNK     0     -13.736  39.462   9.596  0.00  0.00    -0.284 OA
HETATM   32  C   UNK     0      -9.660  40.584   9.514  0.00  0.00     0.074 A 
HETATM   33  C   UNK     0      -9.165  41.268  10.625  0.00  0.00     0.071 A 
BRANCH  24  34
HETATM   34  C   UNK     0     -14.163  41.465  13.977  0.00  0.00     0.004 A 
HETATM   35  C   UNK     0     -13.793  40.924  15.208  0.00  0.00     0.053 A 
HETATM   36  C   UNK     0     -14.470  41.299  16.368  0.00  0.00     0.099 A 
HETATM   37  C   UNK     0     -15.520  42.216  16.296  0.00  0.00     0.098 A 
HETATM   38  C   UNK     0     -15.890  42.756  15.065  0.00  0.00     0.040 A 
HETATM   39  C   UNK     0     -15.212  42.381  13.906  0.00  0.00     0.017 A 
BRANCH  36  40
HETATM   40  O   UNK     0     -14.101  40.763  17.565  0.00  0.00    -0.358 OA
HETATM   41  H   UNK     0     -13.755  39.866  17.427  0.00  0.00     0.217 HD
ENDBRANCH  36  40
BRANCH  37  42
HETATM   42  O   UNK     0     -16.189  42.591  17.422  0.00  0.00    -0.358 OA
HETATM   43  H   UNK     0     -15.960  43.506  17.649  0.00  0.00     0.217 HD
ENDBRANCH  37  42
ENDBRANCH  24  34
BRANCH  30  44
HETATM   44  O   UNK     0     -11.428  39.517   8.369  0.00  0.00    -0.360 OA
HETATM   45  H   UNK     0     -11.550  38.575   8.582  0.00  0.00     0.217 HD
ENDBRANCH  30  44
BRANCH  33  46
HETATM   46  O   UNK     0      -7.862  41.659  10.657  0.00  0.00    -0.361 OA
HETATM   47  H   UNK     0      -7.703  42.161  11.475  0.00  0.00     0.217 HD
ENDBRANCH  33  46
ENDBRANCH  22  23
ENDBRANCH   6  22
BRANCH   3  48
HETATM   48  O   UNK     0     -17.175  34.897  12.471  0.00  0.00    -0.390 OA
HETATM   49  H   UNK     0     -18.025  34.791  12.932  0.00  0.00     0.210 HD
ENDBRANCH   3  48
BRANCH   5  50
HETATM   50  O   UNK     0     -16.819  39.393  14.101  0.00  0.00    -0.388 OA
HETATM   51  H   UNK     0     -17.248  38.891  14.814  0.00  0.00     0.210 HD
ENDBRANCH   5  50
BRANCH   4  52
HETATM   52  O   UNK     0     -18.617  37.099  13.666  0.00  0.00    -0.390 OA
HETATM   53  H   UNK     0     -18.973  36.256  13.338  0.00  0.00     0.210 HD
ENDBRANCH   4  52
TORSDOF 16
ENDMDL
MODEL 9
REMARK VINA RESULT:      -7.0     15.315     18.926
REMARK  16 active torsions:
REMARK  status: ('A' for Active; 'I' for Inactive)
REMARK    1  A    between atoms: O_2  and  C_22 
REMARK    2  A    between atoms: O_2  and  C_26 
REMARK    3  A    between atoms: O_4  and  C_18 
REMARK    4  A    between atoms: O_5  and  C_19 
REMARK    5  A    between atoms: O_6  and  C_25 
REMARK    6  A    between atoms: O_6  and  C_29 
REMARK    7  A    between atoms: O_7  and  C_20 
REMARK    8  A    between atoms: O_8  and  C_21 
REMARK    9  A    between atoms: O_9  and  C_23 
REMARK   10  A    between atoms: O_10  and  C_24 
REMARK   11  A    between atoms: O_13  and  C_35 
REMARK   12  A    between atoms: O_14  and  C_40 
REMARK   13  A    between atoms: O_15  and  C_41 
REMARK   14  A    between atoms: O_16  and  C_43 
REMARK   15  A    between atoms: C_17  and  C_26 
REMARK   16  A    between atoms: C_30  and  C_33 
ROOT
HETATM    1  O   UNK     0     -10.963  41.034   9.647  0.00  0.00    -0.348 OA
HETATM    2  C   UNK     0     -11.275  42.098   8.747  0.00  0.00     0.180 C 
HETATM    3  C   UNK     0     -10.737  43.422   9.296  0.00  0.00     0.180 C 
HETATM    4  C   UNK     0     -11.281  43.687  10.700  0.00  0.00     0.183 C 
HETATM    5  C   UNK     0     -11.101  42.467  11.604  0.00  0.00     0.205 C 
HETATM    6  C   UNK     0     -11.590  41.191  10.918  0.00  0.00     0.298 C 
ENDROOT
BRANCH   2   7
HETATM    7  C   UNK     0     -10.656  41.754   7.396  0.00  0.00     0.205 C 
BRANCH   7   8
HETATM    8  O   UNK     0     -11.077  40.453   7.013  0.00  0.00    -0.356 OA
BRANCH   8   9
HETATM    9  C   UNK     0     -11.981  40.501   5.914  0.00  0.00     0.291 C 
HETATM   10  O   UNK     0     -13.301  40.887   6.309  0.00  0.00    -0.351 OA
HETATM   11  C   UNK     0     -13.945  39.959   7.188  0.00  0.00     0.152 C 
HETATM   12  C   UNK     0     -14.067  38.575   6.535  0.00  0.00     0.178 C 
HETATM   13  C   UNK     0     -15.309  40.549   7.537  0.00  0.00     0.042 C 
HETATM   14  C   UNK     0     -12.693  38.091   6.070  0.00  0.00     0.183 C 
HETATM   15  C   UNK     0     -12.004  39.148   5.205  0.00  0.00     0.204 C 
BRANCH  12  16
HETATM   16  O   UNK     0     -14.576  37.630   7.473  0.00  0.00    -0.390 OA
HETATM   17  H   UNK     0     -14.076  37.732   8.301  0.00  0.00     0.210 HD
ENDBRANCH  12  16
BRANCH  14  18
HETATM   18  O   UNK     0     -12.848  36.882   5.329  0.00  0.00    -0.390 OA
HETATM   19  H   UNK     0     -12.010  36.709   4.866  0.00  0.00     0.210 HD
ENDBRANCH  14  18
BRANCH  15  20
HETATM   20  O   UNK     0     -12.715  39.312   3.977  0.00  0.00    -0.388 OA
HETATM   21  H   UNK     0     -13.660  39.420   4.182  0.00  0.00     0.210 HD
ENDBRANCH  15  20
ENDBRANCH   8   9
ENDBRANCH   7   8
ENDBRANCH   2   7
BRANCH   6  22
HETATM   22  O   UNK     0     -11.260  40.086  11.758  0.00  0.00    -0.311 OA
BRANCH  22  23
HETATM   23  C   UNK     0     -11.876  38.928  11.338  0.00  0.00     0.157 A 
HETATM   24  C   UNK     0     -13.180  38.672  11.547  0.00  0.00     0.124 A 
HETATM   25  O   UNK     0     -13.824  37.505  11.167  0.00  0.00    -0.306 OA
HETATM   26  C   UNK     0     -13.099  36.541  10.514  0.00  0.00     0.096 A 
HETATM   27  C   UNK     0     -11.743  36.681  10.228  0.00  0.00     0.084 A 
HETATM   28  C   UNK     0     -13.776  35.381  10.136  0.00  0.00     0.075 A 
HETATM   29  C   UNK     0     -11.051  37.912  10.640  0.00  0.00     0.223 A 
HETATM   30  C   UNK     0     -11.053  35.665   9.561  0.00  0.00     0.085 A 
HETATM   31  O   UNK     0      -9.860  38.089  10.421  0.00  0.00    -0.284 OA
HETATM   32  C   UNK     0     -11.733  34.506   9.183  0.00  0.00     0.074 A 
HETATM   33  C   UNK     0     -13.091  34.365   9.469  0.00  0.00     0.071 A 
BRANCH  24  34
HETATM   34  C   UNK     0     -14.073  39.621  12.237  0.00  0.00     0.004 A 
HETATM   35  C   UNK     0     -15.008  40.356  11.508  0.00  0.00     0.053 A 
HETATM   36  C   UNK     0     -15.854  41.252  12.161  0.00  0.00     0.099 A 
HETATM   37  C   UNK     0     -15.764  41.414  13.543  0.00  0.00     0.098 A 
HETATM   38  C   UNK     0     -14.829  40.680  14.272  0.00  0.00     0.040 A 
HETATM   39  C   UNK     0     -13.984  39.783  13.620  0.00  0.00     0.017 A 
BRANCH  36  40
HETATM   40  O   UNK     0     -16.762  41.966  11.438  0.00  0.00    -0.358 OA
HETATM   41  H   UNK     0     -17.119  42.687  11.982  0.00  0.00     0.217 HD
ENDBRANCH  36  40
BRANCH  37  42
HETATM   42  O   UNK     0     -16.585  42.286  14.192  0.00  0.00    -0.358 OA
HETATM   43  H   UNK     0     -16.778  41.954  15.083  0.00  0.00     0.217 HD
ENDBRANCH  37  42
ENDBRANCH  24  34
BRANCH  30  44
HETATM   44  O   UNK     0      -9.729  35.751   9.258  0.00  0.00    -0.360 OA
HETATM   45  H   UNK     0      -9.622  36.173   8.388  0.00  0.00     0.217 HD
ENDBRANCH  30  44
BRANCH  33  46
HETATM   46  O   UNK     0     -13.750  33.232   9.099  0.00  0.00    -0.361 OA
HETATM   47  H   UNK     0     -13.098  32.550   8.863  0.00  0.00     0.217 HD
ENDBRANCH  33  46
ENDBRANCH  22  23
ENDBRANCH   6  22
BRANCH   3  48
HETATM   48  O   UNK     0     -11.128  44.485   8.431  0.00  0.00    -0.390 OA
HETATM   49  H   UNK     0     -11.261  45.280   8.973  0.00  0.00     0.210 HD
ENDBRANCH   3  48
BRANCH   5  50
HETATM   50  O   UNK     0     -11.855  42.649  12.802  0.00  0.00    -0.388 OA
HETATM   51  H   UNK     0     -11.848  41.810  13.292  0.00  0.00     0.210 HD
ENDBRANCH   5  50
BRANCH   4  52
HETATM   52  O   UNK     0     -10.563  44.795  11.249  0.00  0.00    -0.390 OA
HETATM   53  H   UNK     0      -9.817  44.435  11.758  0.00  0.00     0.210 HD
ENDBRANCH   4  52
TORSDOF 16
ENDMDL
