MODEL 1
REMARK VINA RESULT:      -9.1      0.000      0.000
REMARK  Name = 5320623
REMARK  11 active torsions:
REMARK  status: ('A' for Active; 'I' for Inactive)
REMARK    1  A    between atoms: O_2  and  C_16
REMARK    2  A    between atoms: O_2  and  C_18
REMARK    3  A    between atoms: O_3  and  C_12
REMARK    4  A    between atoms: O_4  and  C_13
REMARK    5  A    between atoms: O_5  and  C_14
REMARK    6  A    between atoms: O_6  and  C_17
REMARK    7  A    between atoms: O_8  and  C_20
REMARK    8  A    between atoms: O_9  and  C_23
REMARK    9  A    between atoms: O_11  and  C_32
REMARK   10  A    between atoms: C_15  and  C_17
REMARK   11  A    between atoms: C_25  and  C_27
REMARK                            x       y       z     vdW  Elec       q    Type
REMARK                         _______ _______ _______ _____ _____    ______ ____
ROOT
ATOM      7  O   UNL     1     152.641 151.687 147.460  0.00  0.00    +0.000 OA
ATOM     10  O   UNL     1     149.649 154.275 146.483  0.00  0.00    +0.000 OA
ATOM     18  C   UNL     1     151.927 153.006 150.782  0.00  0.00    +0.000 A 
ATOM     19  C   UNL     1     152.500 152.270 149.745  0.00  0.00    +0.000 A 
ATOM     20  C   UNL     1     150.897 153.909 150.515  0.00  0.00    +0.000 A 
ATOM     21  C   UNL     1     152.039 152.438 148.438  0.00  0.00    +0.000 A 
ATOM     22  C   UNL     1     151.010 153.341 148.173  0.00  0.00    +0.000 A 
ATOM     23  C   UNL     1     150.435 154.080 149.209  0.00  0.00    +0.000 A 
ATOM     24  C   UNL     1     150.545 153.499 146.787  0.00  0.00    +0.000 A 
ATOM     25  C   UNL     1     152.198 151.828 146.154  0.00  0.00    +0.000 A 
ATOM     26  C   UNL     1     151.222 152.667 145.773  0.00  0.00    +0.000 A 
ENDROOT
BRANCH  25  27
ATOM     27  C   UNL     1     152.917 150.979 145.183  0.00  0.00    +0.000 A 
ATOM     28  C   UNL     1     153.231 151.474 143.915  0.00  0.00    +0.000 A 
ATOM     29  C   UNL     1     153.284 149.675 145.527  0.00  0.00    +0.000 A 
ATOM     30  C   UNL     1     153.910 150.671 142.998  0.00  0.00    +0.000 A 
ATOM     31  C   UNL     1     153.962 148.873 144.610  0.00  0.00    +0.000 A 
ATOM     32  C   UNL     1     154.274 149.370 143.345  0.00  0.00    +0.000 A 
BRANCH  32  11
ATOM     11  O   UNL     1     154.936 148.587 142.450  0.00  0.00    +0.000 OA
ATOM     39  H   UNL     1     154.296 148.007 142.005  0.00  0.00    +0.000 HD
ENDBRANCH  32  11
ENDBRANCH  25  27
BRANCH  20   8
ATOM      8  O   UNL     1     150.343 154.625 151.536  0.00  0.00    +0.000 OA
ATOM     37  H   UNL     1     149.807 155.341 151.152  0.00  0.00    +0.000 HD
ENDBRANCH  20   8
BRANCH  23   9
ATOM      9  O   UNL     1     149.427 154.970 148.989  0.00  0.00    +0.000 OA
ATOM     38  H   UNL     1     149.644 155.561 148.251  0.00  0.00    +0.000 HD
ENDBRANCH  23   9
BRANCH  18   2
ATOM      2  O   UNL     1     152.385 152.833 152.056  0.00  0.00    +0.000 OA
BRANCH   2  16
ATOM      1  O   UNL     1     152.814 155.106 152.365  0.00  0.00    +0.000 OA
ATOM     12  C   UNL     1     155.641 154.699 152.058  0.00  0.00    +0.000 C 
ATOM     13  C   UNL     1     155.004 156.088 152.027  0.00  0.00    +0.000 C 
ATOM     14  C   UNL     1     154.618 153.614 151.719  0.00  0.00    +0.000 C 
ATOM     15  C   UNL     1     153.709 156.111 152.843  0.00  0.00    +0.000 C 
ATOM     16  C   UNL     1     153.333 153.788 152.529  0.00  0.00    +0.000 C 
BRANCH  12   3
ATOM      3  O   UNL     1     156.697 154.675 151.096  0.00  0.00    +0.000 OA
ATOM     33  H   UNL     1     157.085 155.567 151.069  0.00  0.00    +0.000 HD
ENDBRANCH  12   3
BRANCH  13   4
ATOM      4  O   UNL     1     155.918 157.038 152.568  0.00  0.00    +0.000 OA
ATOM     34  H   UNL     1     156.615 157.194 151.907  0.00  0.00    +0.000 HD
ENDBRANCH  13   4
BRANCH  14   5
ATOM      5  O   UNL     1     155.169 152.333 152.025  0.00  0.00    +0.000 OA
ATOM     35  H   UNL     1     156.045 152.273 151.607  0.00  0.00    +0.000 HD
ENDBRANCH  14   5
BRANCH  15  17
ATOM     17  C   UNL     1     152.994 157.454 152.731  0.00  0.00    +0.000 C 
BRANCH  17   6
ATOM      6  O   UNL     1     151.936 157.326 151.799  0.00  0.00    +0.000 OA
ATOM     36  H   UNL     1     151.725 156.380 151.722  0.00  0.00    +0.000 HD
ENDBRANCH  17   6
ENDBRANCH  15  17
ENDBRANCH   2  16
ENDBRANCH  18   2
TORSDOF 11
ENDMDL
MODEL 2
REMARK VINA RESULT:      -9.0      2.940      6.097
REMARK  Name = 5320623
REMARK  11 active torsions:
REMARK  status: ('A' for Active; 'I' for Inactive)
REMARK    1  A    between atoms: O_2  and  C_16
REMARK    2  A    between atoms: O_2  and  C_18
REMARK    3  A    between atoms: O_3  and  C_12
REMARK    4  A    between atoms: O_4  and  C_13
REMARK    5  A    between atoms: O_5  and  C_14
REMARK    6  A    between atoms: O_6  and  C_17
REMARK    7  A    between atoms: O_8  and  C_20
REMARK    8  A    between atoms: O_9  and  C_23
REMARK    9  A    between atoms: O_11  and  C_32
REMARK   10  A    between atoms: C_15  and  C_17
REMARK   11  A    between atoms: C_25  and  C_27
REMARK                            x       y       z     vdW  Elec       q    Type
REMARK                         _______ _______ _______ _____ _____    ______ ____
ROOT
ATOM      7  O   UNL     1     149.201 154.440 148.668  0.00  0.00    +0.000 OA
ATOM     10  O   UNL     1     149.167 151.827 145.542  0.00  0.00    +0.000 OA
ATOM     18  C   UNL     1     152.561 153.077 149.035  0.00  0.00    +0.000 A 
ATOM     19  C   UNL     1     151.407 153.831 149.250  0.00  0.00    +0.000 A 
ATOM     20  C   UNL     1     152.615 152.165 147.980  0.00  0.00    +0.000 A 
ATOM     21  C   UNL     1     150.307 153.671 148.407  0.00  0.00    +0.000 A 
ATOM     22  C   UNL     1     150.363 152.759 147.354  0.00  0.00    +0.000 A 
ATOM     23  C   UNL     1     151.516 152.002 147.136  0.00  0.00    +0.000 A 
ATOM     24  C   UNL     1     149.188 152.610 146.482  0.00  0.00    +0.000 A 
ATOM     25  C   UNL     1     148.095 154.308 147.842  0.00  0.00    +0.000 A 
ATOM     26  C   UNL     1     148.025 153.461 146.802  0.00  0.00    +0.000 A 
ENDROOT
BRANCH  25  27
ATOM     27  C   UNL     1     146.960 155.176 148.215  0.00  0.00    +0.000 A 
ATOM     28  C   UNL     1     147.124 156.167 149.185  0.00  0.00    +0.000 A 
ATOM     29  C   UNL     1     145.717 155.007 147.601  0.00  0.00    +0.000 A 
ATOM     30  C   UNL     1     146.052 156.986 149.538  0.00  0.00    +0.000 A 
ATOM     31  C   UNL     1     144.644 155.826 147.954  0.00  0.00    +0.000 A 
ATOM     32  C   UNL     1     144.811 156.815 148.923  0.00  0.00    +0.000 A 
BRANCH  32  11
ATOM     11  O   UNL     1     143.765 157.615 149.267  0.00  0.00    +0.000 OA
ATOM     39  H   UNL     1     142.990 157.365 148.736  0.00  0.00    +0.000 HD
ENDBRANCH  32  11
ENDBRANCH  25  27
BRANCH  20   8
ATOM      8  O   UNL     1     153.748 151.431 147.778  0.00  0.00    +0.000 OA
ATOM     37  H   UNL     1     153.803 150.754 148.475  0.00  0.00    +0.000 HD
ENDBRANCH  20   8
BRANCH  23   9
ATOM      9  O   UNL     1     151.608 151.102 146.117  0.00  0.00    +0.000 OA
ATOM     38  H   UNL     1     152.287 151.374 145.478  0.00  0.00    +0.000 HD
ENDBRANCH  23   9
BRANCH  18   2
ATOM      2  O   UNL     1     153.632 153.243 149.865  0.00  0.00    +0.000 OA
BRANCH   2  16
ATOM      1  O   UNL     1     154.070 155.512 150.189  0.00  0.00    +0.000 OA
ATOM     12  C   UNL     1     154.489 155.114 153.004  0.00  0.00    +0.000 C 
ATOM     13  C   UNL     1     154.885 156.406 152.290  0.00  0.00    +0.000 C 
ATOM     14  C   UNL     1     154.389 153.947 152.020  0.00  0.00    +0.000 C 
ATOM     15  C   UNL     1     154.004 156.641 151.061  0.00  0.00    +0.000 C 
ATOM     16  C   UNL     1     153.559 154.325 150.792  0.00  0.00    +0.000 C 
BRANCH  12   3
ATOM      3  O   UNL     1     155.488 154.826 153.983  0.00  0.00    +0.000 OA
ATOM     33  H   UNL     1     155.917 155.667 154.217  0.00  0.00    +0.000 HD
ENDBRANCH  12   3
BRANCH  13   4
ATOM      4  O   UNL     1     154.744 157.503 153.188  0.00  0.00    +0.000 OA
ATOM     34  H   UNL     1     154.320 157.175 154.000  0.00  0.00    +0.000 HD
ENDBRANCH  13   4
BRANCH  14   5
ATOM      5  O   UNL     1     153.758 152.840 152.662  0.00  0.00    +0.000 OA
ATOM     35  H   UNL     1     152.886 152.710 152.254  0.00  0.00    +0.000 HD
ENDBRANCH  14   5
BRANCH  15  17
ATOM     17  C   UNL     1     154.455 157.862 150.266  0.00  0.00    +0.000 C 
BRANCH  17   6
ATOM      6  O   UNL     1     155.810 158.128 150.576  0.00  0.00    +0.000 OA
ATOM     36  H   UNL     1     155.978 159.066 150.380  0.00  0.00    +0.000 HD
ENDBRANCH  17   6
ENDBRANCH  15  17
ENDBRANCH   2  16
ENDBRANCH  18   2
TORSDOF 11
ENDMDL
MODEL 3
REMARK VINA RESULT:      -8.9      3.807      7.327
REMARK  Name = 5320623
REMARK  11 active torsions:
REMARK  status: ('A' for Active; 'I' for Inactive)
REMARK    1  A    between atoms: O_2  and  C_16
REMARK    2  A    between atoms: O_2  and  C_18
REMARK    3  A    between atoms: O_3  and  C_12
REMARK    4  A    between atoms: O_4  and  C_13
REMARK    5  A    between atoms: O_5  and  C_14
REMARK    6  A    between atoms: O_6  and  C_17
REMARK    7  A    between atoms: O_8  and  C_20
REMARK    8  A    between atoms: O_9  and  C_23
REMARK    9  A    between atoms: O_11  and  C_32
REMARK   10  A    between atoms: C_15  and  C_17
REMARK   11  A    between atoms: C_25  and  C_27
REMARK                            x       y       z     vdW  Elec       q    Type
REMARK                         _______ _______ _______ _____ _____    ______ ____
ROOT
ATOM      7  O   UNL     1     149.972 157.545 149.593  0.00  0.00    +0.000 OA
ATOM     10  O   UNL     1     149.852 160.697 152.171  0.00  0.00    +0.000 OA
ATOM     18  C   UNL     1     153.517 157.734 150.418  0.00  0.00    +0.000 A 
ATOM     19  C   UNL     1     152.309 157.325 149.852  0.00  0.00    +0.000 A 
ATOM     20  C   UNL     1     153.544 158.807 151.310  0.00  0.00    +0.000 A 
ATOM     21  C   UNL     1     151.128 157.992 150.180  0.00  0.00    +0.000 A 
ATOM     22  C   UNL     1     151.158 159.063 151.072  0.00  0.00    +0.000 A 
ATOM     23  C   UNL     1     152.365 159.476 151.640  0.00  0.00    +0.000 A 
ATOM     24  C   UNL     1     149.899 159.748 151.400  0.00  0.00    +0.000 A 
ATOM     25  C   UNL     1     148.782 158.183 149.907  0.00  0.00    +0.000 A 
ATOM     26  C   UNL     1     148.683 159.228 150.744  0.00  0.00    +0.000 A 
ENDROOT
BRANCH  25  27
ATOM     27  C   UNL     1     147.602 157.626 149.215  0.00  0.00    +0.000 A 
ATOM     28  C   UNL     1     147.485 157.737 147.828  0.00  0.00    +0.000 A 
ATOM     29  C   UNL     1     146.596 156.989 149.946  0.00  0.00    +0.000 A 
ATOM     30  C   UNL     1     146.370 157.211 147.175  0.00  0.00    +0.000 A 
ATOM     31  C   UNL     1     145.481 156.464 149.293  0.00  0.00    +0.000 A 
ATOM     32  C   UNL     1     145.367 156.576 147.908  0.00  0.00    +0.000 A 
BRANCH  32  11
ATOM     11  O   UNL     1     144.279 156.063 147.270  0.00  0.00    +0.000 OA
ATOM     39  H   UNL     1     143.854 156.769 146.755  0.00  0.00    +0.000 HD
ENDBRANCH  32  11
ENDBRANCH  25  27
BRANCH  20   8
ATOM      8  O   UNL     1     154.731 159.200 151.858  0.00  0.00    +0.000 OA
ATOM     37  H   UNL     1     155.061 158.480 152.423  0.00  0.00    +0.000 HD
ENDBRANCH  20   8
BRANCH  23   9
ATOM      9  O   UNL     1     152.434 160.517 152.516  0.00  0.00    +0.000 OA
ATOM     38  H   UNL     1     153.354 160.785 152.661  0.00  0.00    +0.000 HD
ENDBRANCH  23   9
BRANCH  18   2
ATOM      2  O   UNL     1     154.666 157.074 150.090  0.00  0.00    +0.000 OA
BRANCH   2  16
ATOM      1  O   UNL     1     153.767 154.921 150.121  0.00  0.00    +0.000 OA
ATOM     12  C   UNL     1     154.762 154.453 152.775  0.00  0.00    +0.000 C 
ATOM     13  C   UNL     1     153.732 153.539 152.112  0.00  0.00    +0.000 C 
ATOM     14  C   UNL     1     154.760 155.843 152.136  0.00  0.00    +0.000 C 
ATOM     15  C   UNL     1     153.872 153.575 150.588  0.00  0.00    +0.000 C 
ATOM     16  C   UNL     1     154.815 155.754 150.611  0.00  0.00    +0.000 C 
BRANCH  12   3
ATOM      3  O   UNL     1     154.428 154.565 154.159  0.00  0.00    +0.000 OA
ATOM     33  H   UNL     1     154.874 153.837 154.625  0.00  0.00    +0.000 HD
ENDBRANCH  12   3
BRANCH  13   4
ATOM      4  O   UNL     1     153.922 152.203 152.571  0.00  0.00    +0.000 OA
ATOM     34  H   UNL     1     154.750 152.176 153.081  0.00  0.00    +0.000 HD
ENDBRANCH  13   4
BRANCH  14   5
ATOM      5  O   UNL     1     155.904 156.570 152.583  0.00  0.00    +0.000 OA
ATOM     35  H   UNL     1     155.701 156.947 153.455  0.00  0.00    +0.000 HD
ENDBRANCH  14   5
BRANCH  15  17
ATOM     17  C   UNL     1     152.781 152.763 149.900  0.00  0.00    +0.000 C 
BRANCH  17   6
ATOM      6  O   UNL     1     153.279 151.463 149.642  0.00  0.00    +0.000 OA
ATOM     36  H   UNL     1     153.859 151.520 148.863  0.00  0.00    +0.000 HD
ENDBRANCH  17   6
ENDBRANCH  15  17
ENDBRANCH   2  16
ENDBRANCH  18   2
TORSDOF 11
ENDMDL
MODEL 4
REMARK VINA RESULT:      -8.7      8.164     12.802
REMARK  Name = 5320623
REMARK  11 active torsions:
REMARK  status: ('A' for Active; 'I' for Inactive)
REMARK    1  A    between atoms: O_2  and  C_16
REMARK    2  A    between atoms: O_2  and  C_18
REMARK    3  A    between atoms: O_3  and  C_12
REMARK    4  A    between atoms: O_4  and  C_13
REMARK    5  A    between atoms: O_5  and  C_14
REMARK    6  A    between atoms: O_6  and  C_17
REMARK    7  A    between atoms: O_8  and  C_20
REMARK    8  A    between atoms: O_9  and  C_23
REMARK    9  A    between atoms: O_11  and  C_32
REMARK   10  A    between atoms: C_15  and  C_17
REMARK   11  A    between atoms: C_25  and  C_27
REMARK                            x       y       z     vdW  Elec       q    Type
REMARK                         _______ _______ _______ _____ _____    ______ ____
ROOT
ATOM      7  O   UNL     1     153.190 141.520 143.984  0.00  0.00    +0.000 OA
ATOM     10  O   UNL     1     151.630 139.633 140.728  0.00  0.00    +0.000 OA
ATOM     18  C   UNL     1     151.416 144.335 142.497  0.00  0.00    +0.000 A 
ATOM     19  C   UNL     1     152.198 143.572 143.365  0.00  0.00    +0.000 A 
ATOM     20  C   UNL     1     150.851 143.749 141.364  0.00  0.00    +0.000 A 
ATOM     21  C   UNL     1     152.413 142.220 143.096  0.00  0.00    +0.000 A 
ATOM     22  C   UNL     1     151.848 141.636 141.963  0.00  0.00    +0.000 A 
ATOM     23  C   UNL     1     151.065 142.397 141.092  0.00  0.00    +0.000 A 
ATOM     24  C   UNL     1     152.092 140.209 141.703  0.00  0.00    +0.000 A 
ATOM     25  C   UNL     1     153.415 140.173 143.747  0.00  0.00    +0.000 A 
ATOM     26  C   UNL     1     152.932 139.501 142.690  0.00  0.00    +0.000 A 
ENDROOT
BRANCH  25  27
ATOM     27  C   UNL     1     154.268 139.519 144.760  0.00  0.00    +0.000 A 
ATOM     28  C   UNL     1     155.579 139.156 144.445  0.00  0.00    +0.000 A 
ATOM     29  C   UNL     1     153.765 139.259 146.038  0.00  0.00    +0.000 A 
ATOM     30  C   UNL     1     156.384 138.539 145.402  0.00  0.00    +0.000 A 
ATOM     31  C   UNL     1     154.570 138.641 146.995  0.00  0.00    +0.000 A 
ATOM     32  C   UNL     1     155.879 138.280 146.677  0.00  0.00    +0.000 A 
BRANCH  32  11
ATOM     11  O   UNL     1     156.665 137.677 147.611  0.00  0.00    +0.000 OA
ATOM     39  H   UNL     1     156.373 137.956 148.495  0.00  0.00    +0.000 HD
ENDBRANCH  32  11
ENDBRANCH  25  27
BRANCH  20   8
ATOM      8  O   UNL     1     150.088 144.504 140.521  0.00  0.00    +0.000 OA
ATOM     37  H   UNL     1     150.675 145.115 140.042  0.00  0.00    +0.000 HD
ENDBRANCH  20   8
BRANCH  23   9
ATOM      9  O   UNL     1     150.495 141.861 139.977  0.00  0.00    +0.000 OA
ATOM     38  H   UNL     1     150.912 142.212 139.174  0.00  0.00    +0.000 HD
ENDBRANCH  23   9
BRANCH  18   2
ATOM      2  O   UNL     1     151.212 145.657 142.770  0.00  0.00    +0.000 OA
BRANCH   2  16
ATOM      1  O   UNL     1     149.007 146.423 142.787  0.00  0.00    +0.000 OA
ATOM     12  C   UNL     1     149.338 147.570 145.400  0.00  0.00    +0.000 C 
ATOM     13  C   UNL     1     148.139 147.893 144.509  0.00  0.00    +0.000 C 
ATOM     14  C   UNL     1     150.522 147.065 144.574  0.00  0.00    +0.000 C 
ATOM     15  C   UNL     1     147.843 146.734 143.554  0.00  0.00    +0.000 C 
ATOM     16  C   UNL     1     150.091 145.972 143.596  0.00  0.00    +0.000 C 
BRANCH  12   3
ATOM      3  O   UNL     1     149.713 148.765 146.087  0.00  0.00    +0.000 OA
ATOM     33  H   UNL     1     149.017 149.425 145.923  0.00  0.00    +0.000 HD
ENDBRANCH  12   3
BRANCH  13   4
ATOM      4  O   UNL     1     146.997 148.136 145.324  0.00  0.00    +0.000 OA
ATOM     34  H   UNL     1     147.225 147.898 146.240  0.00  0.00    +0.000 HD
ENDBRANCH  13   4
BRANCH  14   5
ATOM      5  O   UNL     1     151.510 146.519 145.448  0.00  0.00    +0.000 OA
ATOM     35  H   UNL     1     151.896 145.738 145.019  0.00  0.00    +0.000 HD
ENDBRANCH  14   5
BRANCH  15  17
ATOM     17  C   UNL     1     146.726 147.078 142.575  0.00  0.00    +0.000 C 
BRANCH  17   6
ATOM      6  O   UNL     1     146.611 148.487 142.498  0.00  0.00    +0.000 OA
ATOM     36  H   UNL     1     145.700 148.693 142.226  0.00  0.00    +0.000 HD
ENDBRANCH  17   6
ENDBRANCH  15  17
ENDBRANCH   2  16
ENDBRANCH  18   2
TORSDOF 11
ENDMDL
MODEL 5
REMARK VINA RESULT:      -8.6      4.447      6.176
REMARK  Name = 5320623
REMARK  11 active torsions:
REMARK  status: ('A' for Active; 'I' for Inactive)
REMARK    1  A    between atoms: O_2  and  C_16
REMARK    2  A    between atoms: O_2  and  C_18
REMARK    3  A    between atoms: O_3  and  C_12
REMARK    4  A    between atoms: O_4  and  C_13
REMARK    5  A    between atoms: O_5  and  C_14
REMARK    6  A    between atoms: O_6  and  C_17
REMARK    7  A    between atoms: O_8  and  C_20
REMARK    8  A    between atoms: O_9  and  C_23
REMARK    9  A    between atoms: O_11  and  C_32
REMARK   10  A    between atoms: C_15  and  C_17
REMARK   11  A    between atoms: C_25  and  C_27
REMARK                            x       y       z     vdW  Elec       q    Type
REMARK                         _______ _______ _______ _____ _____    ______ ____
ROOT
ATOM      7  O   UNL     1     149.897 157.811 147.202  0.00  0.00    +0.000 OA
ATOM     10  O   UNL     1     146.328 155.864 147.471  0.00  0.00    +0.000 OA
ATOM     18  C   UNL     1     150.308 156.335 150.508  0.00  0.00    +0.000 A 
ATOM     19  C   UNL     1     150.556 157.056 149.340  0.00  0.00    +0.000 A 
ATOM     20  C   UNL     1     149.105 155.644 150.663  0.00  0.00    +0.000 A 
ATOM     21  C   UNL     1     149.598 157.085 148.327  0.00  0.00    +0.000 A 
ATOM     22  C   UNL     1     148.396 156.395 148.483  0.00  0.00    +0.000 A 
ATOM     23  C   UNL     1     148.145 155.672 149.651  0.00  0.00    +0.000 A 
ATOM     24  C   UNL     1     147.404 156.444 147.399  0.00  0.00    +0.000 A 
ATOM     25  C   UNL     1     148.967 157.852 146.175  0.00  0.00    +0.000 A 
ATOM     26  C   UNL     1     147.775 157.236 146.210  0.00  0.00    +0.000 A 
ENDROOT
BRANCH  25  27
ATOM     27  C   UNL     1     149.388 158.665 145.016  0.00  0.00    +0.000 A 
ATOM     28  C   UNL     1     149.527 160.049 145.143  0.00  0.00    +0.000 A 
ATOM     29  C   UNL     1     149.647 158.053 143.787  0.00  0.00    +0.000 A 
ATOM     30  C   UNL     1     149.924 160.816 144.048  0.00  0.00    +0.000 A 
ATOM     31  C   UNL     1     150.044 158.821 142.692  0.00  0.00    +0.000 A 
ATOM     32  C   UNL     1     150.182 160.203 142.822  0.00  0.00    +0.000 A 
BRANCH  32  11
ATOM     11  O   UNL     1     150.569 160.952 141.754  0.00  0.00    +0.000 OA
ATOM     39  H   UNL     1     151.024 160.378 141.115  0.00  0.00    +0.000 HD
ENDBRANCH  32  11
ENDBRANCH  25  27
BRANCH  20   8
ATOM      8  O   UNL     1     148.871 154.941 151.810  0.00  0.00    +0.000 OA
ATOM     37  H   UNL     1     148.185 154.275 151.626  0.00  0.00    +0.000 HD
ENDBRANCH  20   8
BRANCH  23   9
ATOM      9  O   UNL     1     146.983 154.984 149.839  0.00  0.00    +0.000 OA
ATOM     38  H   UNL     1     147.065 154.075 149.510  0.00  0.00    +0.000 HD
ENDBRANCH  23   9
BRANCH  18   2
ATOM      2  O   UNL     1     151.252 156.312 151.493  0.00  0.00    +0.000 OA
BRANCH   2  16
ATOM      1  O   UNL     1     152.367 154.262 151.502  0.00  0.00    +0.000 OA
ATOM     12  C   UNL     1     154.909 155.551 151.864  0.00  0.00    +0.000 C 
ATOM     13  C   UNL     1     154.718 154.045 152.051  0.00  0.00    +0.000 C 
ATOM     14  C   UNL     1     153.584 156.299 152.017  0.00  0.00    +0.000 C 
ATOM     15  C   UNL     1     153.557 153.533 151.196  0.00  0.00    +0.000 C 
ATOM     16  C   UNL     1     152.478 155.648 151.187  0.00  0.00    +0.000 C 
BRANCH  12   3
ATOM      3  O   UNL     1     155.831 156.006 152.855  0.00  0.00    +0.000 OA
ATOM     33  H   UNL     1     156.451 156.614 152.417  0.00  0.00    +0.000 HD
ENDBRANCH  12   3
BRANCH  13   4
ATOM      4  O   UNL     1     155.914 153.368 151.676  0.00  0.00    +0.000 OA
ATOM     34  H   UNL     1     156.537 153.423 152.421  0.00  0.00    +0.000 HD
ENDBRANCH  13   4
BRANCH  14   5
ATOM      5  O   UNL     1     153.747 157.644 151.569  0.00  0.00    +0.000 OA
ATOM     35  H   UNL     1     153.401 158.237 152.257  0.00  0.00    +0.000 HD
ENDBRANCH  14   5
BRANCH  15  17
ATOM     17  C   UNL     1     153.271 152.058 151.454  0.00  0.00    +0.000 C 
BRANCH  17   6
ATOM      6  O   UNL     1     154.049 151.633 152.558  0.00  0.00    +0.000 OA
ATOM     36  H   UNL     1     154.913 152.076 152.496  0.00  0.00    +0.000 HD
ENDBRANCH  17   6
ENDBRANCH  15  17
ENDBRANCH   2  16
ENDBRANCH  18   2
TORSDOF 11
ENDMDL
MODEL 6
REMARK VINA RESULT:      -8.6      2.136      2.672
REMARK  Name = 5320623
REMARK  11 active torsions:
REMARK  status: ('A' for Active; 'I' for Inactive)
REMARK    1  A    between atoms: O_2  and  C_16
REMARK    2  A    between atoms: O_2  and  C_18
REMARK    3  A    between atoms: O_3  and  C_12
REMARK    4  A    between atoms: O_4  and  C_13
REMARK    5  A    between atoms: O_5  and  C_14
REMARK    6  A    between atoms: O_6  and  C_17
REMARK    7  A    between atoms: O_8  and  C_20
REMARK    8  A    between atoms: O_9  and  C_23
REMARK    9  A    between atoms: O_11  and  C_32
REMARK   10  A    between atoms: C_15  and  C_17
REMARK   11  A    between atoms: C_25  and  C_27
REMARK                            x       y       z     vdW  Elec       q    Type
REMARK                         _______ _______ _______ _____ _____    ______ ____
ROOT
ATOM      7  O   UNL     1     152.977 150.222 146.673  0.00  0.00    +0.000 OA
ATOM     10  O   UNL     1     149.114 151.511 146.801  0.00  0.00    +0.000 OA
ATOM     18  C   UNL     1     153.468 153.287 148.583  0.00  0.00    +0.000 A 
ATOM     19  C   UNL     1     153.721 152.091 147.911  0.00  0.00    +0.000 A 
ATOM     20  C   UNL     1     152.166 153.783 148.664  0.00  0.00    +0.000 A 
ATOM     21  C   UNL     1     152.668 151.392 147.320  0.00  0.00    +0.000 A 
ATOM     22  C   UNL     1     151.368 151.889 147.403  0.00  0.00    +0.000 A 
ATOM     23  C   UNL     1     151.111 153.086 148.074  0.00  0.00    +0.000 A 
ATOM     24  C   UNL     1     150.277 151.132 146.770  0.00  0.00    +0.000 A 
ATOM     25  C   UNL     1     151.950 149.502 146.084  0.00  0.00    +0.000 A 
ATOM     26  C   UNL     1     150.662 149.879 146.089  0.00  0.00    +0.000 A 
ENDROOT
BRANCH  25  27
ATOM     27  C   UNL     1     152.395 148.264 145.411  0.00  0.00    +0.000 A 
ATOM     28  C   UNL     1     151.563 147.143 145.383  0.00  0.00    +0.000 A 
ATOM     29  C   UNL     1     153.651 148.210 144.801  0.00  0.00    +0.000 A 
ATOM     30  C   UNL     1     151.983 145.975 144.747  0.00  0.00    +0.000 A 
ATOM     31  C   UNL     1     154.071 147.042 144.166  0.00  0.00    +0.000 A 
ATOM     32  C   UNL     1     153.238 145.924 144.140  0.00  0.00    +0.000 A 
BRANCH  32  11
ATOM     11  O   UNL     1     153.649 144.783 143.520  0.00  0.00    +0.000 OA
ATOM     39  H   UNL     1     153.903 144.996 142.606  0.00  0.00    +0.000 HD
ENDBRANCH  32  11
ENDBRANCH  25  27
BRANCH  20   8
ATOM      8  O   UNL     1     151.928 154.955 149.323  0.00  0.00    +0.000 OA
ATOM     37  H   UNL     1     152.536 155.009 150.082  0.00  0.00    +0.000 HD
ENDBRANCH  20   8
BRANCH  23   9
ATOM      9  O   UNL     1     149.854 153.603 148.177  0.00  0.00    +0.000 OA
ATOM     38  H   UNL     1     149.297 153.042 148.739  0.00  0.00    +0.000 HD
ENDBRANCH  23   9
BRANCH  18   2
ATOM      2  O   UNL     1     154.505 153.963 149.158  0.00  0.00    +0.000 OA
BRANCH   2  16
ATOM      1  O   UNL     1     154.305 156.122 150.021  0.00  0.00    +0.000 OA
ATOM     12  C   UNL     1     155.033 155.227 152.652  0.00  0.00    +0.000 C 
ATOM     13  C   UNL     1     154.991 156.708 152.271  0.00  0.00    +0.000 C 
ATOM     14  C   UNL     1     155.193 154.343 151.415  0.00  0.00    +0.000 C 
ATOM     15  C   UNL     1     153.988 156.950 151.141  0.00  0.00    +0.000 C 
ATOM     16  C   UNL     1     154.200 154.732 150.320  0.00  0.00    +0.000 C 
BRANCH  12   3
ATOM      3  O   UNL     1     156.144 155.028 153.527  0.00  0.00    +0.000 OA
ATOM     33  H   UNL     1     155.891 154.340 154.166  0.00  0.00    +0.000 HD
ENDBRANCH  12   3
BRANCH  13   4
ATOM      4  O   UNL     1     154.612 157.477 153.410  0.00  0.00    +0.000 OA
ATOM     34  H   UNL     1     153.993 158.166 153.114  0.00  0.00    +0.000 HD
ENDBRANCH  13   4
BRANCH  14   5
ATOM      5  O   UNL     1     154.953 152.982 151.773  0.00  0.00    +0.000 OA
ATOM     35  H   UNL     1     155.812 152.548 151.907  0.00  0.00    +0.000 HD
ENDBRANCH  14   5
BRANCH  15  17
ATOM     17  C   UNL     1     154.012 158.398 150.664  0.00  0.00    +0.000 C 
BRANCH  17   6
ATOM      6  O   UNL     1     155.189 159.015 151.150  0.00  0.00    +0.000 OA
ATOM     36  H   UNL     1     155.028 159.268 152.075  0.00  0.00    +0.000 HD
ENDBRANCH  17   6
ENDBRANCH  15  17
ENDBRANCH   2  16
ENDBRANCH  18   2
TORSDOF 11
ENDMDL
MODEL 7
REMARK VINA RESULT:      -8.6      5.086      7.783
REMARK  Name = 5320623
REMARK  11 active torsions:
REMARK  status: ('A' for Active; 'I' for Inactive)
REMARK    1  A    between atoms: O_2  and  C_16
REMARK    2  A    between atoms: O_2  and  C_18
REMARK    3  A    between atoms: O_3  and  C_12
REMARK    4  A    between atoms: O_4  and  C_13
REMARK    5  A    between atoms: O_5  and  C_14
REMARK    6  A    between atoms: O_6  and  C_17
REMARK    7  A    between atoms: O_8  and  C_20
REMARK    8  A    between atoms: O_9  and  C_23
REMARK    9  A    between atoms: O_11  and  C_32
REMARK   10  A    between atoms: C_15  and  C_17
REMARK   11  A    between atoms: C_25  and  C_27
REMARK                            x       y       z     vdW  Elec       q    Type
REMARK                         _______ _______ _______ _____ _____    ______ ____
ROOT
ATOM      7  O   UNL     1     151.666 159.682 147.367  0.00  0.00    +0.000 OA
ATOM     10  O   UNL     1     154.840 161.984 146.258  0.00  0.00    +0.000 OA
ATOM     18  C   UNL     1     153.924 158.894 150.118  0.00  0.00    +0.000 A 
ATOM     19  C   UNL     1     152.800 158.914 149.291  0.00  0.00    +0.000 A 
ATOM     20  C   UNL     1     155.044 159.661 149.795  0.00  0.00    +0.000 A 
ATOM     21  C   UNL     1     152.799 159.703 148.141  0.00  0.00    +0.000 A 
ATOM     22  C   UNL     1     153.919 160.469 147.820  0.00  0.00    +0.000 A 
ATOM     23  C   UNL     1     155.046 160.451 148.645  0.00  0.00    +0.000 A 
ATOM     24  C   UNL     1     153.892 161.290 146.601  0.00  0.00    +0.000 A 
ATOM     25  C   UNL     1     151.634 160.463 146.222  0.00  0.00    +0.000 A 
ATOM     26  C   UNL     1     152.650 161.235 145.805  0.00  0.00    +0.000 A 
ENDROOT
BRANCH  25  27
ATOM     27  C   UNL     1     150.372 160.360 145.462  0.00  0.00    +0.000 A 
ATOM     28  C   UNL     1     150.396 160.289 144.067  0.00  0.00    +0.000 A 
ATOM     29  C   UNL     1     149.148 160.337 146.135  0.00  0.00    +0.000 A 
ATOM     30  C   UNL     1     149.204 160.193 143.350  0.00  0.00    +0.000 A 
ATOM     31  C   UNL     1     147.955 160.241 145.417  0.00  0.00    +0.000 A 
ATOM     32  C   UNL     1     147.983 160.170 144.025  0.00  0.00    +0.000 A 
BRANCH  32  11
ATOM     11  O   UNL     1     146.820 160.076 143.324  0.00  0.00    +0.000 OA
ATOM     39  H   UNL     1     147.010 159.707 142.445  0.00  0.00    +0.000 HD
ENDBRANCH  32  11
ENDBRANCH  25  27
BRANCH  20   8
ATOM      8  O   UNL     1     156.139 159.635 150.609  0.00  0.00    +0.000 OA
ATOM     37  H   UNL     1     156.165 158.773 151.061  0.00  0.00    +0.000 HD
ENDBRANCH  20   8
BRANCH  23   9
ATOM      9  O   UNL     1     156.159 161.187 148.365  0.00  0.00    +0.000 OA
ATOM     38  H   UNL     1     156.896 160.611 148.109  0.00  0.00    +0.000 HD
ENDBRANCH  23   9
BRANCH  18   2
ATOM      2  O   UNL     1     153.913 158.119 151.241  0.00  0.00    +0.000 OA
BRANCH   2  16
ATOM      1  O   UNL     1     153.685 155.844 150.772  0.00  0.00    +0.000 OA
ATOM     12  C   UNL     1     155.813 155.172 152.581  0.00  0.00    +0.000 C 
ATOM     13  C   UNL     1     154.861 154.121 152.007  0.00  0.00    +0.000 C 
ATOM     14  C   UNL     1     155.189 156.567 152.537  0.00  0.00    +0.000 C 
ATOM     15  C   UNL     1     154.314 154.567 150.649  0.00  0.00    +0.000 C 
ATOM     16  C   UNL     1     154.597 156.869 151.160  0.00  0.00    +0.000 C 
BRANCH  12   3
ATOM      3  O   UNL     1     156.096 154.819 153.935  0.00  0.00    +0.000 OA
ATOM     33  H   UNL     1     156.367 153.885 153.942  0.00  0.00    +0.000 HD
ENDBRANCH  12   3
BRANCH  13   4
ATOM      4  O   UNL     1     155.558 152.888 151.852  0.00  0.00    +0.000 OA
ATOM     34  H   UNL     1     155.957 152.878 150.965  0.00  0.00    +0.000 HD
ENDBRANCH  13   4
BRANCH  14   5
ATOM      5  O   UNL     1     156.192 157.543 152.816  0.00  0.00    +0.000 OA
ATOM     35  H   UNL     1     156.800 157.577 152.059  0.00  0.00    +0.000 HD
ENDBRANCH  14   5
BRANCH  15  17
ATOM     17  C   UNL     1     153.272 153.592 150.111  0.00  0.00    +0.000 C 
BRANCH  17   6
ATOM      6  O   UNL     1     152.576 153.024 151.205  0.00  0.00    +0.000 OA
ATOM     36  H   UNL     1     151.629 153.205 151.077  0.00  0.00    +0.000 HD
ENDBRANCH  17   6
ENDBRANCH  15  17
ENDBRANCH   2  16
ENDBRANCH  18   2
TORSDOF 11
ENDMDL
MODEL 8
REMARK VINA RESULT:      -8.6      5.363      8.677
REMARK  Name = 5320623
REMARK  11 active torsions:
REMARK  status: ('A' for Active; 'I' for Inactive)
REMARK    1  A    between atoms: O_2  and  C_16
REMARK    2  A    between atoms: O_2  and  C_18
REMARK    3  A    between atoms: O_3  and  C_12
REMARK    4  A    between atoms: O_4  and  C_13
REMARK    5  A    between atoms: O_5  and  C_14
REMARK    6  A    between atoms: O_6  and  C_17
REMARK    7  A    between atoms: O_8  and  C_20
REMARK    8  A    between atoms: O_9  and  C_23
REMARK    9  A    between atoms: O_11  and  C_32
REMARK   10  A    between atoms: C_15  and  C_17
REMARK   11  A    between atoms: C_25  and  C_27
REMARK                            x       y       z     vdW  Elec       q    Type
REMARK                         _______ _______ _______ _____ _____    ______ ____
ROOT
ATOM      7  O   UNL     1     151.190 145.802 142.322  0.00  0.00    +0.000 OA
ATOM     10  O   UNL     1     147.121 145.613 142.249  0.00  0.00    +0.000 OA
ATOM     18  C   UNL     1     150.454 149.357 142.649  0.00  0.00    +0.000 A 
ATOM     19  C   UNL     1     151.151 148.153 142.544  0.00  0.00    +0.000 A 
ATOM     20  C   UNL     1     149.058 149.361 142.632  0.00  0.00    +0.000 A 
ATOM     21  C   UNL     1     150.450 146.953 142.422  0.00  0.00    +0.000 A 
ATOM     22  C   UNL     1     149.056 146.960 142.405  0.00  0.00    +0.000 A 
ATOM     23  C   UNL     1     148.354 148.163 142.509  0.00  0.00    +0.000 A 
ATOM     24  C   UNL     1     148.342 145.681 142.274  0.00  0.00    +0.000 A 
ATOM     25  C   UNL     1     150.520 144.594 142.207  0.00  0.00    +0.000 A 
ATOM     26  C   UNL     1     149.184 144.471 142.173  0.00  0.00    +0.000 A 
ENDROOT
BRANCH  25  27
ATOM     27  C   UNL     1     151.411 143.421 142.101  0.00  0.00    +0.000 A 
ATOM     28  C   UNL     1     151.412 142.643 140.941  0.00  0.00    +0.000 A 
ATOM     29  C   UNL     1     152.257 143.084 143.161  0.00  0.00    +0.000 A 
ATOM     30  C   UNL     1     152.253 141.536 140.841  0.00  0.00    +0.000 A 
ATOM     31  C   UNL     1     153.098 141.976 143.061  0.00  0.00    +0.000 A 
ATOM     32  C   UNL     1     153.096 141.202 141.901  0.00  0.00    +0.000 A 
BRANCH  32  11
ATOM     11  O   UNL     1     153.918 140.120 141.803  0.00  0.00    +0.000 OA
ATOM     39  H   UNL     1     154.345 139.971 142.664  0.00  0.00    +0.000 HD
ENDBRANCH  32  11
ENDBRANCH  25  27
BRANCH  20   8
ATOM      8  O   UNL     1     148.384 150.543 142.735  0.00  0.00    +0.000 OA
ATOM     37  H   UNL     1     147.449 150.348 142.922  0.00  0.00    +0.000 HD
ENDBRANCH  20   8
BRANCH  23   9
ATOM      9  O   UNL     1     146.992 148.208 142.498  0.00  0.00    +0.000 OA
ATOM     38  H   UNL     1     146.650 148.046 141.605  0.00  0.00    +0.000 HD
ENDBRANCH  23   9
BRANCH  18   2
ATOM      2  O   UNL     1     151.150 150.525 142.769  0.00  0.00    +0.000 OA
BRANCH   2  16
ATOM      1  O   UNL     1     151.288 151.012 145.047  0.00  0.00    +0.000 OA
ATOM     12  C   UNL     1     153.979 151.975 144.763  0.00  0.00    +0.000 C 
ATOM     13  C   UNL     1     153.149 152.221 146.023  0.00  0.00    +0.000 C 
ATOM     14  C   UNL     1     153.084 151.687 143.558  0.00  0.00    +0.000 C 
ATOM     15  C   UNL     1     152.108 151.115 146.212  0.00  0.00    +0.000 C 
ATOM     16  C   UNL     1     152.028 150.632 143.889  0.00  0.00    +0.000 C 
BRANCH  12   3
ATOM      3  O   UNL     1     154.756 153.147 144.511  0.00  0.00    +0.000 OA
ATOM     33  H   UNL     1     154.208 153.915 144.747  0.00  0.00    +0.000 HD
ENDBRANCH  12   3
BRANCH  13   4
ATOM      4  O   UNL     1     154.011 152.255 147.157  0.00  0.00    +0.000 OA
ATOM     34  H   UNL     1     154.768 152.827 146.942  0.00  0.00    +0.000 HD
ENDBRANCH  13   4
BRANCH  14   5
ATOM      5  O   UNL     1     153.883 151.197 142.482  0.00  0.00    +0.000 OA
ATOM     35  H   UNL     1     154.521 150.559 142.844  0.00  0.00    +0.000 HD
ENDBRANCH  14   5
BRANCH  15  17
ATOM     17  C   UNL     1     151.190 151.398 147.396  0.00  0.00    +0.000 C 
BRANCH  17   6
ATOM      6  O   UNL     1     149.968 150.711 147.197  0.00  0.00    +0.000 OA
ATOM     36  H   UNL     1     149.262 151.245 147.598  0.00  0.00    +0.000 HD
ENDBRANCH  17   6
ENDBRANCH  15  17
ENDBRANCH   2  16
ENDBRANCH  18   2
TORSDOF 11
ENDMDL
MODEL 9
REMARK VINA RESULT:      -8.5      1.805      3.007
REMARK  Name = 5320623
REMARK  11 active torsions:
REMARK  status: ('A' for Active; 'I' for Inactive)
REMARK    1  A    between atoms: O_2  and  C_16
REMARK    2  A    between atoms: O_2  and  C_18
REMARK    3  A    between atoms: O_3  and  C_12
REMARK    4  A    between atoms: O_4  and  C_13
REMARK    5  A    between atoms: O_5  and  C_14
REMARK    6  A    between atoms: O_6  and  C_17
REMARK    7  A    between atoms: O_8  and  C_20
REMARK    8  A    between atoms: O_9  and  C_23
REMARK    9  A    between atoms: O_11  and  C_32
REMARK   10  A    between atoms: C_15  and  C_17
REMARK   11  A    between atoms: C_25  and  C_27
REMARK                            x       y       z     vdW  Elec       q    Type
REMARK                         _______ _______ _______ _____ _____    ______ ____
ROOT
ATOM      7  O   UNL     1     151.643 153.800 146.984  0.00  0.00    +0.000 OA
ATOM     10  O   UNL     1     147.638 153.065 147.145  0.00  0.00    +0.000 OA
ATOM     18  C   UNL     1     150.767 156.041 149.721  0.00  0.00    +0.000 A 
ATOM     19  C   UNL     1     151.506 155.350 148.760  0.00  0.00    +0.000 A 
ATOM     20  C   UNL     1     149.391 155.834 149.829  0.00  0.00    +0.000 A 
ATOM     21  C   UNL     1     150.865 154.450 147.908  0.00  0.00    +0.000 A 
ATOM     22  C   UNL     1     149.490 154.245 148.018  0.00  0.00    +0.000 A 
ATOM     23  C   UNL     1     148.748 154.935 148.978  0.00  0.00    +0.000 A 
ATOM     24  C   UNL     1     148.840 153.292 147.106  0.00  0.00    +0.000 A 
ATOM     25  C   UNL     1     151.034 152.894 146.129  0.00  0.00    +0.000 A 
ATOM     26  C   UNL     1     149.721 152.616 146.132  0.00  0.00    +0.000 A 
ENDROOT
BRANCH  25  27
ATOM     27  C   UNL     1     151.961 152.257 145.172  0.00  0.00    +0.000 A 
ATOM     28  C   UNL     1     151.471 151.400 144.184  0.00  0.00    +0.000 A 
ATOM     29  C   UNL     1     153.334 152.506 145.252  0.00  0.00    +0.000 A 
ATOM     30  C   UNL     1     152.346 150.798 143.280  0.00  0.00    +0.000 A 
ATOM     31  C   UNL     1     154.209 151.904 144.349  0.00  0.00    +0.000 A 
ATOM     32  C   UNL     1     153.716 151.049 143.364  0.00  0.00    +0.000 A 
BRANCH  32  11
ATOM     11  O   UNL     1     154.571 150.462 142.482  0.00  0.00    +0.000 OA
ATOM     39  H   UNL     1     154.631 151.016 141.685  0.00  0.00    +0.000 HD
ENDBRANCH  32  11
ENDBRANCH  25  27
BRANCH  20   8
ATOM      8  O   UNL     1     148.677 156.516 150.772  0.00  0.00    +0.000 OA
ATOM     37  H   UNL     1     148.526 157.421 150.447  0.00  0.00    +0.000 HD
ENDBRANCH  20   8
BRANCH  23   9
ATOM      9  O   UNL     1     147.403 154.760 149.116  0.00  0.00    +0.000 OA
ATOM     38  H   UNL     1     146.978 155.579 149.416  0.00  0.00    +0.000 HD
ENDBRANCH  23   9
BRANCH  18   2
ATOM      2  O   UNL     1     151.404 156.919 150.550  0.00  0.00    +0.000 OA
BRANCH   2  16
ATOM      1  O   UNL     1     152.956 155.391 151.390  0.00  0.00    +0.000 OA
ATOM     12  C   UNL     1     154.742 157.504 152.164  0.00  0.00    +0.000 C 
ATOM     13  C   UNL     1     154.916 156.064 152.648  0.00  0.00    +0.000 C 
ATOM     14  C   UNL     1     153.301 157.771 151.729  0.00  0.00    +0.000 C 
ATOM     15  C   UNL     1     154.326 155.076 151.639  0.00  0.00    +0.000 C 
ATOM     16  C   UNL     1     152.789 156.676 150.794  0.00  0.00    +0.000 C 
BRANCH  12   3
ATOM      3  O   UNL     1     155.085 158.377 153.241  0.00  0.00    +0.000 OA
ATOM     33  H   UNL     1     156.016 158.631 153.124  0.00  0.00    +0.000 HD
ENDBRANCH  12   3
BRANCH  13   4
ATOM      4  O   UNL     1     156.303 155.789 152.823  0.00  0.00    +0.000 OA
ATOM     34  H   UNL     1     156.769 156.074 152.018  0.00  0.00    +0.000 HD
ENDBRANCH  13   4
BRANCH  14   5
ATOM      5  O   UNL     1     153.240 159.017 151.034  0.00  0.00    +0.000 OA
ATOM     35  H   UNL     1     152.326 159.342 151.076  0.00  0.00    +0.000 HD
ENDBRANCH  14   5
BRANCH  15  17
ATOM     17  C   UNL     1     154.381 153.641 152.154  0.00  0.00    +0.000 C 
BRANCH  17   6
ATOM      6  O   UNL     1     155.647 153.094 151.833  0.00  0.00    +0.000 OA
ATOM     36  H   UNL     1     156.274 153.383 152.518  0.00  0.00    +0.000 HD
ENDBRANCH  17   6
ENDBRANCH  15  17
ENDBRANCH   2  16
ENDBRANCH  18   2
TORSDOF 11
ENDMDL
MODEL 10
REMARK VINA RESULT:      -8.5      3.443      5.153
REMARK  Name = 5320623
REMARK  11 active torsions:
REMARK  status: ('A' for Active; 'I' for Inactive)
REMARK    1  A    between atoms: O_2  and  C_16
REMARK    2  A    between atoms: O_2  and  C_18
REMARK    3  A    between atoms: O_3  and  C_12
REMARK    4  A    between atoms: O_4  and  C_13
REMARK    5  A    between atoms: O_5  and  C_14
REMARK    6  A    between atoms: O_6  and  C_17
REMARK    7  A    between atoms: O_8  and  C_20
REMARK    8  A    between atoms: O_9  and  C_23
REMARK    9  A    between atoms: O_11  and  C_32
REMARK   10  A    between atoms: C_15  and  C_17
REMARK   11  A    between atoms: C_25  and  C_27
REMARK                            x       y       z     vdW  Elec       q    Type
REMARK                         _______ _______ _______ _____ _____    ______ ____
ROOT
ATOM      7  O   UNL     1     150.239 150.336 144.839  0.00  0.00    +0.000 OA
ATOM     10  O   UNL     1     153.598 151.320 142.754  0.00  0.00    +0.000 OA
ATOM     18  C   UNL     1     152.280 151.559 147.600  0.00  0.00    +0.000 A 
ATOM     19  C   UNL     1     151.211 151.030 146.877  0.00  0.00    +0.000 A 
ATOM     20  C   UNL     1     153.459 151.918 146.945  0.00  0.00    +0.000 A 
ATOM     21  C   UNL     1     151.323 150.860 145.497  0.00  0.00    +0.000 A 
ATOM     22  C   UNL     1     152.502 151.220 144.844  0.00  0.00    +0.000 A 
ATOM     23  C   UNL     1     153.575 151.749 145.565  0.00  0.00    +0.000 A 
ATOM     24  C   UNL     1     152.594 151.029 143.389  0.00  0.00    +0.000 A 
ATOM     25  C   UNL     1     150.319 150.164 143.466  0.00  0.00    +0.000 A 
ATOM     26  C   UNL     1     151.400 150.464 142.728  0.00  0.00    +0.000 A 
ENDROOT
BRANCH  25  27
ATOM     27  C   UNL     1     149.101 149.587 142.862  0.00  0.00    +0.000 A 
ATOM     28  C   UNL     1     149.198 148.505 141.985  0.00  0.00    +0.000 A 
ATOM     29  C   UNL     1     147.847 150.125 143.162  0.00  0.00    +0.000 A 
ATOM     30  C   UNL     1     148.047 147.961 141.414  0.00  0.00    +0.000 A 
ATOM     31  C   UNL     1     146.697 149.582 142.591  0.00  0.00    +0.000 A 
ATOM     32  C   UNL     1     146.796 148.500 141.717  0.00  0.00    +0.000 A 
BRANCH  32  11
ATOM     11  O   UNL     1     145.673 147.970 141.159  0.00  0.00    +0.000 OA
ATOM     39  H   UNL     1     145.755 147.001 141.146  0.00  0.00    +0.000 HD
ENDBRANCH  32  11
ENDBRANCH  25  27
BRANCH  20   8
ATOM      8  O   UNL     1     154.500 152.434 147.661  0.00  0.00    +0.000 OA
ATOM     37  H   UNL     1     154.188 152.622 148.564  0.00  0.00    +0.000 HD
ENDBRANCH  20   8
BRANCH  23   9
ATOM      9  O   UNL     1     154.741 152.112 144.962  0.00  0.00    +0.000 OA
ATOM     38  H   UNL     1     154.786 151.762 144.059  0.00  0.00    +0.000 HD
ENDBRANCH  23   9
BRANCH  18   2
ATOM      2  O   UNL     1     152.159 151.721 148.950  0.00  0.00    +0.000 OA
BRANCH   2  16
ATOM      1  O   UNL     1     153.464 153.057 150.349  0.00  0.00    +0.000 OA
ATOM     12  C   UNL     1     151.249 154.808 150.880  0.00  0.00    +0.000 C 
ATOM     13  C   UNL     1     152.536 154.840 151.705  0.00  0.00    +0.000 C 
ATOM     14  C   UNL     1     151.075 153.461 150.178  0.00  0.00    +0.000 C 
ATOM     15  C   UNL     1     153.728 154.360 150.873  0.00  0.00    +0.000 C 
ATOM     16  C   UNL     1     152.354 153.041 149.454  0.00  0.00    +0.000 C 
BRANCH  12   3
ATOM      3  O   UNL     1     150.151 155.030 151.766  0.00  0.00    +0.000 OA
ATOM     33  H   UNL     1     149.336 154.842 151.271  0.00  0.00    +0.000 HD
ENDBRANCH  12   3
BRANCH  13   4
ATOM      4  O   UNL     1     152.779 156.172 152.150  0.00  0.00    +0.000 OA
ATOM     34  H   UNL     1     153.227 156.123 153.012  0.00  0.00    +0.000 HD
ENDBRANCH  13   4
BRANCH  14   5
ATOM      5  O   UNL     1     150.028 153.563 149.214  0.00  0.00    +0.000 OA
ATOM     35  H   UNL     1     150.430 153.573 148.330  0.00  0.00    +0.000 HD
ENDBRANCH  14   5
BRANCH  15  17
ATOM     17  C   UNL     1     155.001 154.270 151.707  0.00  0.00    +0.000 C 
BRANCH  17   6
ATOM      6  O   UNL     1     155.449 152.927 151.707  0.00  0.00    +0.000 OA
ATOM     36  H   UNL     1     156.007 152.803 152.493  0.00  0.00    +0.000 HD
ENDBRANCH  17   6
ENDBRANCH  15  17
ENDBRANCH   2  16
ENDBRANCH  18   2
TORSDOF 11
ENDMDL
