MODEL 1
REMARK VINA RESULT:     -10.1      0.000      0.000
REMARK  Name = 9823887
REMARK                            x       y       z     vdW  Elec       q    Type
REMARK                         _______ _______ _______ _____ _____    ______ ____
ROOT
ATOM      1  O   LIG    1       27.276  21.311  24.681  0.00  0.00    -0.341 OA
ATOM      2  C   LIG    1       27.010  20.190  23.842  0.00  0.00    +0.282 C 
ATOM      3  C   LIG    1       25.595  20.273  23.268  0.00  0.00    +0.201 C 
ATOM      4  C   LIG    1       25.359  21.609  22.564  0.00  0.00    +0.179 C 
ATOM      5  C   LIG    1       25.805  22.782  23.435  0.00  0.00    +0.177 C 
ATOM     22  C   LIG    1       27.220  22.551  23.973  0.00  0.00    +0.178 C 
ENDROOT
BRANCH   5   6
ATOM      6  O   LIG    1       25.784  23.979  22.662  0.00  0.00    -0.386 OA
ATOM      7  H   LIG    1       25.290  24.651  23.164  0.00  0.00    +0.210 HD
ENDBRANCH   5   6
BRANCH   4   8
ATOM      8  O   LIG    1       23.964  21.764  22.295  0.00  0.00    -0.386 OA
ATOM      9  H   LIG    1       23.728  22.683  22.507  0.00  0.00    +0.210 HD
ENDBRANCH   4   8
BRANCH   3  10
ATOM     10  O   LIG    1       25.428  19.208  22.334  0.00  0.00    -0.384 OA
ATOM     11  H   LIG    1       26.310  18.875  22.095  0.00  0.00    +0.210 HD
ENDBRANCH   3  10
BRANCH   2  12
ATOM     12  O   LIG    1       27.107  18.986  24.601  0.00  0.00    -0.345 OA
BRANCH  12  13
ATOM     13  C   LIG    1       28.452  18.546  24.702  0.00  0.00    +0.190 C 
BRANCH  13  14
ATOM     14  C   LIG    1       28.720  18.137  26.115  0.00  0.00    +0.001 C 
ATOM     15  C   LIG    1       27.992  18.566  27.157  0.00  0.00    +0.006 C 
BRANCH  15  16
ATOM     16  C   LIG    1       28.210  18.180  28.562  0.00  0.00    -0.025 A 
ATOM     17  C   LIG    1       27.298  18.580  29.526  0.00  0.00    +0.008 A 
ATOM     18  C   LIG    1       27.504  18.213  30.855  0.00  0.00    +0.001 A 
ATOM     19  C   LIG    1       28.620  17.452  31.205  0.00  0.00    +0.000 A 
ATOM     20  C   LIG    1       29.529  17.057  30.224  0.00  0.00    +0.001 A 
ATOM     21  C   LIG    1       29.323  17.424  28.894  0.00  0.00    +0.008 A 
ENDBRANCH  15  16
ENDBRANCH  13  14
ENDBRANCH  12  13
ENDBRANCH   2  12
BRANCH  22  23
ATOM     23  C   LIG    1       27.644  23.653  24.940  0.00  0.00    +0.197 C 
BRANCH  23  24
ATOM     24  O   LIG    1       26.631  24.643  24.967  0.00  0.00    -0.346 OA
BRANCH  24  25
ATOM     25  C   LIG    1       25.719  24.436  26.040  0.00  0.00    +0.281 C 
ATOM     26  C   LIG    1       26.025  25.416  27.183  0.00  0.00    +0.201 C 
ATOM     27  C   LIG    1       25.577  26.843  26.854  0.00  0.00    +0.178 C 
ATOM     28  C   LIG    1       24.136  26.837  26.341  0.00  0.00    +0.171 C 
ATOM     29  C   LIG    1       23.977  25.844  25.196  0.00  0.00    +0.197 C 
ATOM     36  O   LIG    1       24.356  24.534  25.612  0.00  0.00    -0.346 OA
BRANCH  28  30
ATOM     30  O   LIG    1       23.769  28.143  25.918  0.00  0.00    -0.387 OA
ATOM     31  H   LIG    1       23.828  28.166  24.947  0.00  0.00    +0.210 HD
ENDBRANCH  28  30
BRANCH  27  32
ATOM     32  O   LIG    1       26.431  27.394  25.853  0.00  0.00    -0.386 OA
ATOM     33  H   LIG    1       25.868  27.687  25.116  0.00  0.00    +0.210 HD
ENDBRANCH  27  32
BRANCH  26  34
ATOM     34  O   LIG    1       25.340  24.962  28.348  0.00  0.00    -0.384 OA
ATOM     35  H   LIG    1       25.899  25.140  29.122  0.00  0.00    +0.210 HD
ENDBRANCH  26  34
ENDBRANCH  24  25
ENDBRANCH  23  24
ENDBRANCH  22  23
TORSDOF 13
ENDMDL
MODEL 2
REMARK VINA RESULT:     -10.1     12.680     19.023
REMARK  Name = 9823887
REMARK                            x       y       z     vdW  Elec       q    Type
REMARK                         _______ _______ _______ _____ _____    ______ ____
ROOT
ATOM      1  O   LIG    1       15.832  37.482  27.605  0.00  0.00    -0.341 OA
ATOM      2  C   LIG    1       15.076  38.385  26.802  0.00  0.00    +0.282 C 
ATOM      3  C   LIG    1       15.989  39.443  26.180  0.00  0.00    +0.201 C 
ATOM      4  C   LIG    1       17.147  38.800  25.418  0.00  0.00    +0.179 C 
ATOM      5  C   LIG    1       17.833  37.723  26.257  0.00  0.00    +0.177 C 
ATOM     22  C   LIG    1       16.804  36.757  26.849  0.00  0.00    +0.178 C 
ENDROOT
BRANCH   5   6
ATOM      6  O   LIG    1       18.746  36.997  25.439  0.00  0.00    -0.386 OA
ATOM      7  H   LIG    1       19.373  36.537  26.025  0.00  0.00    +0.210 HD
ENDBRANCH   5   6
BRANCH   4   8
ATOM      8  O   LIG    1       18.118  39.798  25.099  0.00  0.00    -0.386 OA
ATOM      9  H   LIG    1       18.389  39.656  24.176  0.00  0.00    +0.210 HD
ENDBRANCH   4   8
BRANCH   3  10
ATOM     10  O   LIG    1       15.210  40.233  25.282  0.00  0.00    -0.384 OA
ATOM     11  H   LIG    1       15.816  40.803  24.780  0.00  0.00    +0.210 HD
ENDBRANCH   3  10
BRANCH   2  12
ATOM     12  O   LIG    1       14.110  39.056  27.609  0.00  0.00    -0.345 OA
BRANCH  12  13
ATOM     13  C   LIG    1       14.699  40.115  28.347  0.00  0.00    +0.190 C 
BRANCH  13  14
ATOM     14  C   LIG    1       14.658  39.770  29.801  0.00  0.00    +0.001 C 
ATOM     15  C   LIG    1       15.681  39.196  30.451  0.00  0.00    +0.006 C 
BRANCH  15  16
ATOM     16  C   LIG    1       15.691  38.853  31.884  0.00  0.00    -0.025 A 
ATOM     17  C   LIG    1       16.693  38.032  32.379  0.00  0.00    +0.008 A 
ATOM     18  C   LIG    1       16.701  37.707  33.735  0.00  0.00    +0.001 A 
ATOM     19  C   LIG    1       15.709  38.206  34.579  0.00  0.00    +0.000 A 
ATOM     20  C   LIG    1       14.708  39.031  34.067  0.00  0.00    +0.001 A 
ATOM     21  C   LIG    1       14.699  39.356  32.710  0.00  0.00    +0.008 A 
ENDBRANCH  15  16
ENDBRANCH  13  14
ENDBRANCH  12  13
ENDBRANCH   2  12
BRANCH  22  23
ATOM     23  C   LIG    1       17.453  35.743  27.785  0.00  0.00    +0.197 C 
BRANCH  23  24
ATOM     24  O   LIG    1       18.232  34.849  27.011  0.00  0.00    -0.346 OA
BRANCH  24  25
ATOM     25  C   LIG    1       17.614  33.571  26.900  0.00  0.00    +0.281 C 
ATOM     26  C   LIG    1       18.298  32.754  25.793  0.00  0.00    +0.201 C 
ATOM     27  C   LIG    1       19.675  32.238  26.225  0.00  0.00    +0.178 C 
ATOM     28  C   LIG    1       19.579  31.566  27.596  0.00  0.00    +0.171 C 
ATOM     29  C   LIG    1       18.905  32.491  28.602  0.00  0.00    +0.197 C 
ATOM     36  O   LIG    1       17.607  32.867  28.147  0.00  0.00    -0.346 OA
BRANCH  28  30
ATOM     30  O   LIG    1       20.876  31.204  28.048  0.00  0.00    -0.387 OA
ATOM     31  H   LIG    1       21.520  31.745  27.558  0.00  0.00    +0.210 HD
ENDBRANCH  28  30
BRANCH  27  32
ATOM     32  O   LIG    1       20.592  33.328  26.298  0.00  0.00    -0.386 OA
ATOM     33  H   LIG    1       21.215  33.139  27.022  0.00  0.00    +0.210 HD
ENDBRANCH  27  32
BRANCH  26  34
ATOM     34  O   LIG    1       17.457  31.647  25.478  0.00  0.00    -0.384 OA
ATOM     35  H   LIG    1       16.638  31.726  25.995  0.00  0.00    +0.210 HD
ENDBRANCH  26  34
ENDBRANCH  24  25
ENDBRANCH  23  24
ENDBRANCH  22  23
TORSDOF 13
ENDMDL
MODEL 3
REMARK VINA RESULT:     -10.1      1.533      2.187
REMARK  Name = 9823887
REMARK                            x       y       z     vdW  Elec       q    Type
REMARK                         _______ _______ _______ _____ _____    ______ ____
ROOT
ATOM      1  O   LIG    1       28.110  20.623  24.776  0.00  0.00    -0.341 OA
ATOM      2  C   LIG    1       29.090  20.260  23.806  0.00  0.00    +0.282 C 
ATOM      3  C   LIG    1       28.437  19.527  22.634  0.00  0.00    +0.201 C 
ATOM      4  C   LIG    1       27.289  20.341  22.039  0.00  0.00    +0.179 C 
ATOM      5  C   LIG    1       26.346  20.848  23.129  0.00  0.00    +0.177 C 
ATOM     22  C   LIG    1       27.131  21.524  24.256  0.00  0.00    +0.178 C 
ENDROOT
BRANCH   5   6
ATOM      6  O   LIG    1       25.431  21.784  22.565  0.00  0.00    -0.386 OA
ATOM      7  H   LIG    1       25.501  21.725  21.596  0.00  0.00    +0.210 HD
ENDBRANCH   5   6
BRANCH   4   8
ATOM      8  O   LIG    1       26.533  19.518  21.149  0.00  0.00    -0.386 OA
ATOM      9  H   LIG    1       25.792  19.145  21.656  0.00  0.00    +0.210 HD
ENDBRANCH   4   8
BRANCH   3  10
ATOM     10  O   LIG    1       29.431  19.308  21.633  0.00  0.00    -0.384 OA
ATOM     11  H   LIG    1       29.035  18.771  20.927  0.00  0.00    +0.210 HD
ENDBRANCH   3  10
BRANCH   2  12
ATOM     12  O   LIG    1       30.049  19.383  24.394  0.00  0.00    -0.345 OA
BRANCH  12  13
ATOM     13  C   LIG    1       29.478  18.120  24.695  0.00  0.00    +0.190 C 
BRANCH  13  14
ATOM     14  C   LIG    1       29.522  17.911  26.174  0.00  0.00    +0.001 C 
ATOM     15  C   LIG    1       28.478  18.151  26.984  0.00  0.00    +0.006 C 
BRANCH  15  16
ATOM     16  C   LIG    1       28.470  17.946  28.442  0.00  0.00    -0.025 A 
ATOM     17  C   LIG    1       27.432  18.471  29.196  0.00  0.00    +0.008 A 
ATOM     18  C   LIG    1       27.425  18.277  30.577  0.00  0.00    +0.001 A 
ATOM     19  C   LIG    1       28.456  17.563  31.187  0.00  0.00    +0.000 A 
ATOM     20  C   LIG    1       29.495  17.041  30.416  0.00  0.00    +0.001 A 
ATOM     21  C   LIG    1       29.502  17.235  29.034  0.00  0.00    +0.008 A 
ENDBRANCH  15  16
ENDBRANCH  13  14
ENDBRANCH  12  13
ENDBRANCH   2  12
BRANCH  22  23
ATOM     23  C   LIG    1       26.223  21.935  25.411  0.00  0.00    +0.197 C 
BRANCH  23  24
ATOM     24  O   LIG    1       25.562  23.136  25.059  0.00  0.00    -0.346 OA
BRANCH  24  25
ATOM     25  C   LIG    1       26.355  24.281  25.355  0.00  0.00    +0.281 C 
ATOM     26  C   LIG    1       25.817  25.501  24.592  0.00  0.00    +0.201 C 
ATOM     27  C   LIG    1       24.517  26.036  25.203  0.00  0.00    +0.178 C 
ATOM     28  C   LIG    1       24.676  26.204  26.715  0.00  0.00    +0.171 C 
ATOM     29  C   LIG    1       25.191  24.917  27.347  0.00  0.00    +0.197 C 
ATOM     36  O   LIG    1       26.433  24.532  26.762  0.00  0.00    -0.346 OA
BRANCH  28  30
ATOM     30  O   LIG    1       23.433  26.577  27.292  0.00  0.00    -0.387 OA
ATOM     31  H   LIG    1       22.732  26.334  26.662  0.00  0.00    +0.210 HD
ENDBRANCH  28  30
BRANCH  27  32
ATOM     32  O   LIG    1       23.455  25.121  24.939  0.00  0.00    -0.386 OA
ATOM     33  H   LIG    1       22.709  25.364  25.515  0.00  0.00    +0.210 HD
ENDBRANCH  27  32
BRANCH  26  34
ATOM     34  O   LIG    1       26.812  26.521  24.633  0.00  0.00    -0.384 OA
ATOM     35  H   LIG    1       26.429  27.309  25.054  0.00  0.00    +0.210 HD
ENDBRANCH  26  34
ENDBRANCH  24  25
ENDBRANCH  23  24
ENDBRANCH  22  23
TORSDOF 13
ENDMDL
MODEL 4
REMARK VINA RESULT:     -10.0     12.041     18.415
REMARK  Name = 9823887
REMARK                            x       y       z     vdW  Elec       q    Type
REMARK                         _______ _______ _______ _____ _____    ______ ____
ROOT
ATOM      1  O   LIG    1       16.827  37.334  26.992  0.00  0.00    -0.341 OA
ATOM      2  C   LIG    1       16.860  38.652  26.451  0.00  0.00    +0.282 C 
ATOM      3  C   LIG    1       18.231  38.947  25.841  0.00  0.00    +0.201 C 
ATOM      4  C   LIG    1       18.629  37.878  24.824  0.00  0.00    +0.179 C 
ATOM      5  C   LIG    1       18.428  36.473  25.388  0.00  0.00    +0.177 C 
ATOM     22  C   LIG    1       17.032  36.327  25.999  0.00  0.00    +0.178 C 
ENDROOT
BRANCH   5   6
ATOM      6  O   LIG    1       18.587  35.517  24.343  0.00  0.00    -0.386 OA
ATOM      7  H   LIG    1       17.855  35.637  23.713  0.00  0.00    +0.210 HD
ENDBRANCH   5   6
BRANCH   4   8
ATOM      8  O   LIG    1       20.011  38.028  24.493  0.00  0.00    -0.386 OA
ATOM      9  H   LIG    1       20.221  37.364  23.814  0.00  0.00    +0.210 HD
ENDBRANCH   4   8
BRANCH   3  10
ATOM     10  O   LIG    1       18.169  40.218  25.195  0.00  0.00    -0.384 OA
ATOM     11  H   LIG    1       18.488  40.109  24.284  0.00  0.00    +0.210 HD
ENDBRANCH   3  10
BRANCH   2  12
ATOM     12  O   LIG    1       16.624  39.605  27.486  0.00  0.00    -0.345 OA
BRANCH  12  13
ATOM     13  C   LIG    1       15.252  39.648  27.845  0.00  0.00    +0.190 C 
BRANCH  13  14
ATOM     14  C   LIG    1       15.141  39.551  29.333  0.00  0.00    +0.001 C 
ATOM     15  C   LIG    1       15.936  38.772  30.082  0.00  0.00    +0.006 C 
BRANCH  15  16
ATOM     16  C   LIG    1       15.873  38.656  31.550  0.00  0.00    -0.025 A 
ATOM     17  C   LIG    1       14.860  39.304  32.239  0.00  0.00    +0.008 A 
ATOM     18  C   LIG    1       14.801  39.193  33.628  0.00  0.00    +0.001 A 
ATOM     19  C   LIG    1       15.755  38.438  34.310  0.00  0.00    +0.000 A 
ATOM     20  C   LIG    1       16.768  37.792  33.603  0.00  0.00    +0.001 A 
ATOM     21  C   LIG    1       16.828  37.902  32.213  0.00  0.00    +0.008 A 
ENDBRANCH  15  16
ENDBRANCH  13  14
ENDBRANCH  12  13
ENDBRANCH   2  12
BRANCH  22  23
ATOM     23  C   LIG    1       16.848  34.971  26.673  0.00  0.00    +0.197 C 
BRANCH  23  24
ATOM     24  O   LIG    1       17.945  34.144  26.328  0.00  0.00    -0.346 OA
BRANCH  24  25
ATOM     25  C   LIG    1       18.786  33.888  27.447  0.00  0.00    +0.281 C 
ATOM     26  C   LIG    1       18.411  32.542  28.086  0.00  0.00    +0.201 C 
ATOM     27  C   LIG    1       18.884  31.352  27.244  0.00  0.00    +0.178 C 
ATOM     28  C   LIG    1       20.355  31.529  26.863  0.00  0.00    +0.171 C 
ATOM     29  C   LIG    1       20.583  32.891  26.219  0.00  0.00    +0.197 C 
ATOM     36  O   LIG    1       20.174  33.937  27.098  0.00  0.00    -0.346 OA
BRANCH  28  30
ATOM     30  O   LIG    1       20.752  30.490  25.979  0.00  0.00    -0.387 OA
ATOM     31  H   LIG    1       19.997  30.293  25.399  0.00  0.00    +0.210 HD
ENDBRANCH  28  30
BRANCH  27  32
ATOM     32  O   LIG    1       18.097  31.264  26.058  0.00  0.00    -0.386 OA
ATOM     33  H   LIG    1       18.529  30.622  25.467  0.00  0.00    +0.210 HD
ENDBRANCH  27  32
BRANCH  26  34
ATOM     34  O   LIG    1       19.019  32.481  29.374  0.00  0.00    -0.384 OA
ATOM     35  H   LIG    1       19.971  32.648  29.273  0.00  0.00    +0.210 HD
ENDBRANCH  26  34
ENDBRANCH  24  25
ENDBRANCH  23  24
ENDBRANCH  22  23
TORSDOF 13
ENDMDL
MODEL 5
REMARK VINA RESULT:      -9.8      1.519      2.602
REMARK  Name = 9823887
REMARK                            x       y       z     vdW  Elec       q    Type
REMARK                         _______ _______ _______ _____ _____    ______ ____
ROOT
ATOM      1  O   LIG    1       26.523  21.418  24.302  0.00  0.00    -0.341 OA
ATOM      2  C   LIG    1       27.745  20.689  24.211  0.00  0.00    +0.282 C 
ATOM      3  C   LIG    1       27.563  19.447  23.338  0.00  0.00    +0.201 C 
ATOM      4  C   LIG    1       26.985  19.807  21.970  0.00  0.00    +0.179 C 
ATOM      5  C   LIG    1       25.769  20.722  22.106  0.00  0.00    +0.177 C 
ATOM     22  C   LIG    1       26.076  21.900  23.034  0.00  0.00    +0.178 C 
ENDROOT
BRANCH   5   6
ATOM      6  O   LIG    1       25.404  21.217  20.820  0.00  0.00    -0.386 OA
ATOM      7  H   LIG    1       26.148  21.744  20.480  0.00  0.00    +0.210 HD
ENDBRANCH   5   6
BRANCH   4   8
ATOM      8  O   LIG    1       26.569  18.616  21.300  0.00  0.00    -0.386 OA
ATOM      9  H   LIG    1       25.603  18.552  21.394  0.00  0.00    +0.210 HD
ENDBRANCH   4   8
BRANCH   3  10
ATOM     10  O   LIG    1       28.838  18.830  23.167  0.00  0.00    -0.384 OA
ATOM     11  H   LIG    1       29.521  19.471  23.427  0.00  0.00    +0.210 HD
ENDBRANCH   3  10
BRANCH   2  12
ATOM     12  O   LIG    1       28.148  20.259  25.510  0.00  0.00    -0.345 OA
BRANCH  12  13
ATOM     13  C   LIG    1       27.156  19.448  26.117  0.00  0.00    +0.190 C 
BRANCH  13  14
ATOM     14  C   LIG    1       27.768  18.719  27.270  0.00  0.00    +0.001 C 
ATOM     15  C   LIG    1       27.357  18.866  28.538  0.00  0.00    +0.006 C 
BRANCH  15  16
ATOM     16  C   LIG    1       27.920  18.159  29.702  0.00  0.00    -0.025 A 
ATOM     17  C   LIG    1       27.293  18.271  30.933  0.00  0.00    +0.008 A 
ATOM     18  C   LIG    1       27.826  17.601  32.033  0.00  0.00    +0.001 A 
ATOM     19  C   LIG    1       28.979  16.830  31.890  0.00  0.00    +0.000 A 
ATOM     20  C   LIG    1       29.600  16.728  30.645  0.00  0.00    +0.001 A 
ATOM     21  C   LIG    1       29.066  17.397  29.544  0.00  0.00    +0.008 A 
ENDBRANCH  15  16
ENDBRANCH  13  14
ENDBRANCH  12  13
ENDBRANCH   2  12
BRANCH  22  23
ATOM     23  C   LIG    1       24.843  22.764  23.278  0.00  0.00    +0.197 C 
BRANCH  23  24
ATOM     24  O   LIG    1       24.979  23.399  24.536  0.00  0.00    -0.346 OA
BRANCH  24  25
ATOM     25  C   LIG    1       24.804  24.808  24.439  0.00  0.00    +0.281 C 
ATOM     26  C   LIG    1       25.481  25.503  25.630  0.00  0.00    +0.201 C 
ATOM     27  C   LIG    1       27.008  25.514  25.500  0.00  0.00    +0.178 C 
ATOM     28  C   LIG    1       27.414  26.011  24.111  0.00  0.00    +0.171 C 
ATOM     29  C   LIG    1       26.691  25.223  23.026  0.00  0.00    +0.197 C 
ATOM     36  O   LIG    1       25.279  25.323  23.189  0.00  0.00    -0.346 OA
BRANCH  28  30
ATOM     30  O   LIG    1       28.821  25.898  23.951  0.00  0.00    -0.387 OA
ATOM     31  H   LIG    1       28.986  25.251  23.244  0.00  0.00    +0.210 HD
ENDBRANCH  28  30
BRANCH  27  32
ATOM     32  O   LIG    1       27.513  24.194  25.694  0.00  0.00    -0.386 OA
ATOM     33  H   LIG    1       28.245  24.252  26.332  0.00  0.00    +0.210 HD
ENDBRANCH  27  32
BRANCH  26  34
ATOM     34  O   LIG    1       25.003  26.845  25.688  0.00  0.00    -0.384 OA
ATOM     35  H   LIG    1       25.767  27.442  25.752  0.00  0.00    +0.210 HD
ENDBRANCH  26  34
ENDBRANCH  24  25
ENDBRANCH  23  24
ENDBRANCH  22  23
TORSDOF 13
ENDMDL
MODEL 6
REMARK VINA RESULT:      -9.4      1.458      2.548
REMARK  Name = 9823887
REMARK                            x       y       z     vdW  Elec       q    Type
REMARK                         _______ _______ _______ _____ _____    ______ ____
ROOT
ATOM      1  O   LIG    1       25.511  21.174  24.820  0.00  0.00    -0.341 OA
ATOM      2  C   LIG    1       26.500  20.162  24.996  0.00  0.00    +0.282 C 
ATOM      3  C   LIG    1       26.637  19.321  23.726  0.00  0.00    +0.201 C 
ATOM      4  C   LIG    1       26.898  20.199  22.502  0.00  0.00    +0.179 C 
ATOM      5  C   LIG    1       25.913  21.366  22.438  0.00  0.00    +0.177 C 
ATOM     22  C   LIG    1       25.846  22.095  23.782  0.00  0.00    +0.178 C 
ENDROOT
BRANCH   5   6
ATOM      6  O   LIG    1       26.330  22.280  21.426  0.00  0.00    -0.386 OA
ATOM      7  H   LIG    1       26.499  23.139  21.849  0.00  0.00    +0.210 HD
ENDBRANCH   5   6
BRANCH   4   8
ATOM      8  O   LIG    1       26.738  19.420  21.315  0.00  0.00    -0.386 OA
ATOM      9  H   LIG    1       25.842  19.588  20.976  0.00  0.00    +0.210 HD
ENDBRANCH   4   8
BRANCH   3  10
ATOM     10  O   LIG    1       27.728  18.418  23.903  0.00  0.00    -0.384 OA
ATOM     11  H   LIG    1       28.519  18.819  23.506  0.00  0.00    +0.210 HD
ENDBRANCH   3  10
BRANCH   2  12
ATOM     12  O   LIG    1       26.118  19.294  26.060  0.00  0.00    -0.345 OA
BRANCH  12  13
ATOM     13  C   LIG    1       26.437  19.854  27.324  0.00  0.00    +0.190 C 
BRANCH  13  14
ATOM     14  C   LIG    1       27.474  19.002  27.982  0.00  0.00    +0.001 C 
ATOM     15  C   LIG    1       27.422  18.643  29.274  0.00  0.00    +0.006 C 
BRANCH  15  16
ATOM     16  C   LIG    1       28.412  17.795  29.960  0.00  0.00    -0.025 A 
ATOM     17  C   LIG    1       29.460  17.251  29.234  0.00  0.00    +0.008 A 
ATOM     18  C   LIG    1       30.396  16.448  29.884  0.00  0.00    +0.001 A 
ATOM     19  C   LIG    1       30.273  16.198  31.250  0.00  0.00    +0.000 A 
ATOM     20  C   LIG    1       29.214  16.752  31.968  0.00  0.00    +0.001 A 
ATOM     21  C   LIG    1       28.277  17.556  31.318  0.00  0.00    +0.008 A 
ENDBRANCH  15  16
ENDBRANCH  13  14
ENDBRANCH  12  13
ENDBRANCH   2  12
BRANCH  22  23
ATOM     23  C   LIG    1       24.785  23.192  23.778  0.00  0.00    +0.197 C 
BRANCH  23  24
ATOM     24  O   LIG    1       24.944  23.977  24.946  0.00  0.00    -0.346 OA
BRANCH  24  25
ATOM     25  C   LIG    1       24.782  25.365  24.675  0.00  0.00    +0.281 C 
ATOM     26  C   LIG    1       23.808  25.985  25.688  0.00  0.00    +0.201 C 
ATOM     27  C   LIG    1       24.447  26.157  27.071  0.00  0.00    +0.178 C 
ATOM     28  C   LIG    1       25.808  26.842  26.940  0.00  0.00    +0.171 C 
ATOM     29  C   LIG    1       26.680  26.114  25.925  0.00  0.00    +0.197 C 
ATOM     36  O   LIG    1       26.034  26.058  24.655  0.00  0.00    -0.346 OA
BRANCH  28  30
ATOM     30  O   LIG    1       26.451  26.884  28.206  0.00  0.00    -0.387 OA
ATOM     31  H   LIG    1       25.793  27.177  28.860  0.00  0.00    +0.210 HD
ENDBRANCH  28  30
BRANCH  27  32
ATOM     32  O   LIG    1       24.619  24.879  27.680  0.00  0.00    -0.386 OA
ATOM     33  H   LIG    1       25.529  24.587  27.496  0.00  0.00    +0.210 HD
ENDBRANCH  27  32
BRANCH  26  34
ATOM     34  O   LIG    1       23.407  27.260  25.192  0.00  0.00    -0.384 OA
ATOM     35  H   LIG    1       22.601  27.144  24.662  0.00  0.00    +0.210 HD
ENDBRANCH  26  34
ENDBRANCH  24  25
ENDBRANCH  23  24
ENDBRANCH  22  23
TORSDOF 13
ENDMDL
MODEL 7
REMARK VINA RESULT:      -9.4     17.631     21.214
REMARK  Name = 9823887
REMARK                            x       y       z     vdW  Elec       q    Type
REMARK                         _______ _______ _______ _____ _____    ______ ____
ROOT
ATOM      1  O   LIG    1       22.933  35.332  12.527  0.00  0.00    -0.341 OA
ATOM      2  C   LIG    1       23.236  34.304  13.467  0.00  0.00    +0.282 C 
ATOM      3  C   LIG    1       22.590  32.984  13.045  0.00  0.00    +0.201 C 
ATOM      4  C   LIG    1       22.973  32.609  11.615  0.00  0.00    +0.179 C 
ATOM      5  C   LIG    1       22.783  33.789  10.663  0.00  0.00    +0.177 C 
ATOM     22  C   LIG    1       23.444  35.051  11.223  0.00  0.00    +0.178 C 
ENDROOT
BRANCH   5   6
ATOM      6  O   LIG    1       23.363  33.474   9.399  0.00  0.00    -0.386 OA
ATOM      7  H   LIG    1       22.889  32.706   9.035  0.00  0.00    +0.210 HD
ENDBRANCH   5   6
BRANCH   4   8
ATOM      8  O   LIG    1       22.140  31.539  11.164  0.00  0.00    -0.386 OA
ATOM      9  H   LIG    1       21.516  31.335  11.881  0.00  0.00    +0.210 HD
ENDBRANCH   4   8
BRANCH   3  10
ATOM     10  O   LIG    1       23.035  31.964  13.939  0.00  0.00    -0.384 OA
ATOM     11  H   LIG    1       22.341  31.823  14.605  0.00  0.00    +0.210 HD
ENDBRANCH   3  10
BRANCH   2  12
ATOM     12  O   LIG    1       22.722  34.657  14.750  0.00  0.00    -0.345 OA
BRANCH  12  13
ATOM     13  C   LIG    1       22.186  35.970  14.748  0.00  0.00    +0.190 C 
BRANCH  13  14
ATOM     14  C   LIG    1       23.151  36.886  15.430  0.00  0.00    +0.001 C 
ATOM     15  C   LIG    1       23.714  37.944  14.828  0.00  0.00    +0.006 C 
BRANCH  15  16
ATOM     16  C   LIG    1       24.658  38.880  15.464  0.00  0.00    -0.025 A 
ATOM     17  C   LIG    1       24.886  40.116  14.879  0.00  0.00    +0.008 A 
ATOM     18  C   LIG    1       25.779  41.001  15.482  0.00  0.00    +0.001 A 
ATOM     19  C   LIG    1       26.433  40.641  16.660  0.00  0.00    +0.000 A 
ATOM     20  C   LIG    1       26.193  39.394  17.236  0.00  0.00    +0.001 A 
ATOM     21  C   LIG    1       25.300  38.508  16.634  0.00  0.00    +0.008 A 
ENDBRANCH  15  16
ENDBRANCH  13  14
ENDBRANCH  12  13
ENDBRANCH   2  12
BRANCH  22  23
ATOM     23  C   LIG    1       23.169  36.270  10.347  0.00  0.00    +0.197 C 
BRANCH  23  24
ATOM     24  O   LIG    1       24.405  36.874  10.014  0.00  0.00    -0.346 OA
BRANCH  24  25
ATOM     25  C   LIG    1       24.283  37.745   8.895  0.00  0.00    +0.281 C 
ATOM     26  C   LIG    1       23.590  39.048   9.319  0.00  0.00    +0.201 C 
ATOM     27  C   LIG    1       24.516  39.955  10.137  0.00  0.00    +0.178 C 
ATOM     28  C   LIG    1       25.862  40.109   9.427  0.00  0.00    +0.171 C 
ATOM     29  C   LIG    1       26.449  38.745   9.086  0.00  0.00    +0.197 C 
ATOM     36  O   LIG    1       25.547  37.999   8.272  0.00  0.00    -0.346 OA
BRANCH  28  30
ATOM     30  O   LIG    1       26.759  40.844  10.248  0.00  0.00    -0.387 OA
ATOM     31  H   LIG    1       27.045  40.258  10.969  0.00  0.00    +0.210 HD
ENDBRANCH  28  30
BRANCH  27  32
ATOM     32  O   LIG    1       24.727  39.383  11.427  0.00  0.00    -0.386 OA
ATOM     33  H   LIG    1       24.549  38.429  11.357  0.00  0.00    +0.210 HD
ENDBRANCH  27  32
BRANCH  26  34
ATOM     34  O   LIG    1       23.179  39.734   8.139  0.00  0.00    -0.384 OA
ATOM     35  H   LIG    1       23.973  40.025   7.660  0.00  0.00    +0.210 HD
ENDBRANCH  26  34
ENDBRANCH  24  25
ENDBRANCH  23  24
ENDBRANCH  22  23
TORSDOF 13
ENDMDL
MODEL 8
REMARK VINA RESULT:      -9.3     14.904     18.377
REMARK  Name = 9823887
REMARK                            x       y       z     vdW  Elec       q    Type
REMARK                         _______ _______ _______ _____ _____    ______ ____
ROOT
ATOM      1  O   LIG    1       22.547  28.636  11.060  0.00  0.00    -0.341 OA
ATOM      2  C   LIG    1       22.184  29.239  12.300  0.00  0.00    +0.282 C 
ATOM      3  C   LIG    1       22.910  30.573  12.480  0.00  0.00    +0.201 C 
ATOM      4  C   LIG    1       22.682  31.496  11.284  0.00  0.00    +0.179 C 
ATOM      5  C   LIG    1       22.928  30.765   9.965  0.00  0.00    +0.177 C 
ATOM     22  C   LIG    1       22.176  29.432   9.934  0.00  0.00    +0.178 C 
ENDROOT
BRANCH   5   6
ATOM      6  O   LIG    1       22.487  31.581   8.883  0.00  0.00    -0.386 OA
ATOM      7  H   LIG    1       21.545  31.781   9.024  0.00  0.00    +0.210 HD
ENDBRANCH   5   6
BRANCH   4   8
ATOM      8  O   LIG    1       23.589  32.598  11.354  0.00  0.00    -0.386 OA
ATOM      9  H   LIG    1       23.951  32.620  12.256  0.00  0.00    +0.210 HD
ENDBRANCH   4   8
BRANCH   3  10
ATOM     10  O   LIG    1       22.411  31.197  13.663  0.00  0.00    -0.384 OA
ATOM     11  H   LIG    1       21.444  31.106  13.667  0.00  0.00    +0.210 HD
ENDBRANCH   3  10
BRANCH   2  12
ATOM     12  O   LIG    1       22.558  28.385  13.379  0.00  0.00    -0.345 OA
BRANCH  12  13
ATOM     13  C   LIG    1       23.248  27.236  12.914  0.00  0.00    +0.190 C 
BRANCH  13  14
ATOM     14  C   LIG    1       22.375  26.038  13.108  0.00  0.00    +0.001 C 
ATOM     15  C   LIG    1       21.476  25.627  12.201  0.00  0.00    +0.006 C 
BRANCH  15  16
ATOM     16  C   LIG    1       20.605  24.447  12.342  0.00  0.00    -0.025 A 
ATOM     17  C   LIG    1       20.641  23.457  11.372  0.00  0.00    +0.008 A 
ATOM     18  C   LIG    1       19.817  22.340  11.507  0.00  0.00    +0.001 A 
ATOM     19  C   LIG    1       18.967  22.227  12.607  0.00  0.00    +0.000 A 
ATOM     20  C   LIG    1       18.942  23.232  13.574  0.00  0.00    +0.001 A 
ATOM     21  C   LIG    1       19.766  24.349  13.440  0.00  0.00    +0.008 A 
ENDBRANCH  15  16
ENDBRANCH  13  14
ENDBRANCH  12  13
ENDBRANCH   2  12
BRANCH  22  23
ATOM     23  C   LIG    1       22.498  28.630   8.676  0.00  0.00    +0.197 C 
BRANCH  23  24
ATOM     24  O   LIG    1       21.292  28.097   8.160  0.00  0.00    -0.346 OA
BRANCH  24  25
ATOM     25  C   LIG    1       21.408  27.770   6.780  0.00  0.00    +0.281 C 
ATOM     26  C   LIG    1       22.112  26.413   6.621  0.00  0.00    +0.201 C 
ATOM     27  C   LIG    1       21.197  25.242   6.995  0.00  0.00    +0.178 C 
ATOM     28  C   LIG    1       19.845  25.385   6.294  0.00  0.00    +0.171 C 
ATOM     29  C   LIG    1       19.249  26.762   6.553  0.00  0.00    +0.197 C 
ATOM     36  O   LIG    1       20.139  27.786   6.116  0.00  0.00    -0.346 OA
BRANCH  28  30
ATOM     30  O   LIG    1       18.959  24.369   6.742  0.00  0.00    -0.387 OA
ATOM     31  H   LIG    1       19.201  24.152   7.659  0.00  0.00    +0.210 HD
ENDBRANCH  28  30
BRANCH  27  32
ATOM     32  O   LIG    1       20.996  25.226   8.408  0.00  0.00    -0.386 OA
ATOM     33  H   LIG    1       20.663  24.343   8.646  0.00  0.00    +0.210 HD
ENDBRANCH  27  32
BRANCH  26  34
ATOM     34  O   LIG    1       22.514  26.282   5.260  0.00  0.00    -0.384 OA
ATOM     35  H   LIG    1       21.942  25.623   4.832  0.00  0.00    +0.210 HD
ENDBRANCH  26  34
ENDBRANCH  24  25
ENDBRANCH  23  24
ENDBRANCH  22  23
TORSDOF 13
ENDMDL
MODEL 9
REMARK VINA RESULT:      -8.9      2.819      4.361
REMARK  Name = 9823887
REMARK                            x       y       z     vdW  Elec       q    Type
REMARK                         _______ _______ _______ _____ _____    ______ ____
ROOT
ATOM      1  O   LIG    1       27.229  20.617  24.509  0.00  0.00    -0.341 OA
ATOM      2  C   LIG    1       26.889  19.590  23.581  0.00  0.00    +0.282 C 
ATOM      3  C   LIG    1       25.486  19.819  23.018  0.00  0.00    +0.201 C 
ATOM      4  C   LIG    1       25.346  21.221  22.426  0.00  0.00    +0.179 C 
ATOM      5  C   LIG    1       25.869  22.284  23.391  0.00  0.00    +0.177 C 
ATOM     22  C   LIG    1       27.262  21.912  23.906  0.00  0.00    +0.178 C 
ENDROOT
BRANCH   5   6
ATOM      6  O   LIG    1       25.935  23.540  22.720  0.00  0.00    -0.386 OA
ATOM      7  H   LIG    1       26.478  23.424  21.921  0.00  0.00    +0.210 HD
ENDBRANCH   5   6
BRANCH   4   8
ATOM      8  O   LIG    1       23.967  21.495  22.173  0.00  0.00    -0.386 OA
ATOM      9  H   LIG    1       23.542  21.663  23.031  0.00  0.00    +0.210 HD
ENDBRANCH   4   8
BRANCH   3  10
ATOM     10  O   LIG    1       25.250  18.848  21.999  0.00  0.00    -0.384 OA
ATOM     11  H   LIG    1       24.572  18.231  22.322  0.00  0.00    +0.210 HD
ENDBRANCH   3  10
BRANCH   2  12
ATOM     12  O   LIG    1       26.899  18.324  24.238  0.00  0.00    -0.345 OA
BRANCH  12  13
ATOM     13  C   LIG    1       28.179  18.030  24.774  0.00  0.00    +0.190 C 
BRANCH  13  14
ATOM     14  C   LIG    1       28.703  16.792  24.120  0.00  0.00    +0.001 C 
ATOM     15  C   LIG    1       27.919  15.771  23.741  0.00  0.00    +0.006 C 
BRANCH  15  16
ATOM     16  C   LIG    1       28.387  14.540  23.081  0.00  0.00    -0.025 A 
ATOM     17  C   LIG    1       29.280  13.712  23.743  0.00  0.00    +0.008 A 
ATOM     18  C   LIG    1       29.723  12.547  23.118  0.00  0.00    +0.001 A 
ATOM     19  C   LIG    1       29.269  12.224  21.840  0.00  0.00    +0.000 A 
ATOM     20  C   LIG    1       28.371  13.067  21.185  0.00  0.00    +0.001 A 
ATOM     21  C   LIG    1       27.927  14.233  21.810  0.00  0.00    +0.008 A 
ENDBRANCH  15  16
ENDBRANCH  13  14
ENDBRANCH  12  13
ENDBRANCH   2  12
BRANCH  22  23
ATOM     23  C   LIG    1       27.757  22.898  24.960  0.00  0.00    +0.197 C 
BRANCH  23  24
ATOM     24  O   LIG    1       26.643  23.605  25.474  0.00  0.00    -0.346 OA
BRANCH  24  25
ATOM     25  C   LIG    1       27.015  24.884  25.976  0.00  0.00    +0.281 C 
ATOM     26  C   LIG    1       26.357  25.988  25.134  0.00  0.00    +0.201 C 
ATOM     27  C   LIG    1       24.859  26.122  25.427  0.00  0.00    +0.178 C 
ATOM     28  C   LIG    1       24.622  26.196  26.936  0.00  0.00    +0.171 C 
ATOM     29  C   LIG    1       25.305  25.033  27.645  0.00  0.00    +0.197 C 
ATOM     36  O   LIG    1       26.703  25.027  27.367  0.00  0.00    -0.346 OA
BRANCH  28  30
ATOM     30  O   LIG    1       23.227  26.192  27.206  0.00  0.00    -0.387 OA
ATOM     31  H   LIG    1       23.106  25.887  28.122  0.00  0.00    +0.210 HD
ENDBRANCH  28  30
BRANCH  27  32
ATOM     32  O   LIG    1       24.166  24.993  24.896  0.00  0.00    -0.386 OA
ATOM     33  H   LIG    1       24.801  24.258  24.843  0.00  0.00    +0.210 HD
ENDBRANCH  27  32
BRANCH  26  34
ATOM     34  O   LIG    1       27.009  27.220  25.435  0.00  0.00    -0.384 OA
ATOM     35  H   LIG    1       27.912  27.186  25.078  0.00  0.00    +0.210 HD
ENDBRANCH  26  34
ENDBRANCH  24  25
ENDBRANCH  23  24
ENDBRANCH  22  23
TORSDOF 13
ENDMDL
