REMARK VINA RESULT:      -7.1      2.276      7.170
REMARK  8 active torsions:
REMARK  status: ('A' for Active; 'I' for Inactive)
REMARK    1  A    between atoms: C_2  and  O_3 
REMARK    2  A    between atoms: C_15  and  O_16 
REMARK    3  A    between atoms: C_28  and  C_29 
REMARK    4  A    between atoms: C_33  and  C_34 
REMARK    5  A    between atoms: O_3  and  C_4 
REMARK    6  A    between atoms: C_4  and  C_6 
REMARK    7  A    between atoms: O_16  and  C_17 
REMARK    8  A    between atoms: C_17  and  C_19 
ROOT
ATOM      1  O   LIG     1     180.921 178.027 170.052  0.00  0.00    -0.315 OA
ATOM      2  C   LIG     1     179.969 176.982 170.360  0.00  0.00     0.332 C 
ATOM      3  C   LIG     1     179.316 177.140 171.763  0.00  0.00     0.244 C 
ATOM      4  C   LIG     1     180.361 177.430 172.890  0.00  0.00     0.112 C 
ATOM      5  C   LIG     1     181.379 178.529 172.444  0.00  0.00     0.188 C 
ATOM      6  O   LIG     1     180.716 179.797 172.459  0.00  0.00    -0.220 OA
ATOM      7  C   LIG     1     181.963 178.310 171.012  0.00  0.00     0.182 C 
ENDROOT
BRANCH   2   8
ATOM      8  O   LIG     1     180.454 175.640 170.186  0.00  0.00    -0.418 OA
BRANCH   8   9
ATOM      9  C   LIG     1     179.837 174.625 169.507  0.00  0.00     0.343 C 
ATOM     10  O   LIG     1     180.285 174.285 168.385  0.00  0.00    -0.245 OA
BRANCH   9  11
ATOM     11  C   LIG     1     178.687 173.991 170.053  0.00  0.00     0.082 A 
ATOM     12  C   LIG     1     177.587 173.651 169.226  0.00  0.00     0.052 A 
ATOM     13  C   LIG     1     176.500 172.906 169.725  0.00  0.00     0.238 A 
ATOM     14  C   LIG     1     176.479 172.522 171.079  0.00  0.00     0.273 A 
ATOM     15  O   LIG     1     175.474 172.543 168.910  0.00  0.00    -0.283 OA
ATOM     16  O   LIG     1     175.438 171.783 171.540  0.00  0.00    -0.280 OA
ATOM     17  C   LIG     1     177.532 172.907 171.935  0.00  0.00     0.238 A 
ATOM     18  C   LIG     1     178.630 173.624 171.421  0.00  0.00     0.052 A 
ATOM     19  O   LIG     1     177.490 172.573 173.252  0.00  0.00    -0.283 OA
ENDBRANCH   9  11
ENDBRANCH   8   9
ENDBRANCH   2   8
BRANCH   3  20
ATOM     20  O   LIG     1     178.337 178.195 171.666  0.00  0.00    -0.442 OA
BRANCH  20  21
ATOM     21  C   LIG     1     177.003 178.128 171.963  0.00  0.00     0.341 C 
ATOM     22  O   LIG     1     176.690 178.611 173.075  0.00  0.00    -0.245 OA
BRANCH  21  23
ATOM     23  C   LIG     1     176.001 177.649 171.072  0.00  0.00     0.082 A 
ATOM     24  C   LIG     1     175.611 178.411 169.942  0.00  0.00     0.052 A 
ATOM     25  C   LIG     1     174.595 177.966 169.072  0.00  0.00     0.238 A 
ATOM     26  O   LIG     1     174.226 178.739 168.017  0.00  0.00    -0.283 OA
ATOM     27  C   LIG     1     173.960 176.729 169.306  0.00  0.00     0.273 A 
ATOM     28  O   LIG     1     172.980 176.264 168.485  0.00  0.00    -0.280 OA
ATOM     29  C   LIG     1     174.342 175.950 170.415  0.00  0.00     0.238 A 
ATOM     30  O   LIG     1     173.720 174.768 170.653  0.00  0.00    -0.283 OA
ATOM     31  C   LIG     1     175.364 176.401 171.277  0.00  0.00     0.052 A 
ENDBRANCH  21  23
ENDBRANCH  20  21
ENDBRANCH   3  20
BRANCH   7  32
ATOM     32  C   LIG     1     183.163 177.330 170.897  0.00  0.00     0.214 C 
ATOM     33  O   LIG     1     184.351 177.906 171.433  0.00  0.00    -0.218 OA
ENDBRANCH   7  32
BRANCH   4  34
ATOM     34  C   LIG     1     181.032 176.142 173.457  0.00  0.00     0.189 C 
ATOM     35  O   LIG     1     180.367 175.697 174.635  0.00  0.00    -0.220 OA
ENDBRANCH   4  34
TORSDOF 8
