REMARK VINA RESULT:      -7.2      2.637      4.630
REMARK  8 active torsions:
REMARK  status: ('A' for Active; 'I' for Inactive)
REMARK    1  A    between atoms: C_2  and  O_3 
REMARK    2  A    between atoms: C_15  and  O_16 
REMARK    3  A    between atoms: C_28  and  C_29 
REMARK    4  A    between atoms: C_33  and  C_34 
REMARK    5  A    between atoms: O_3  and  C_4 
REMARK    6  A    between atoms: C_4  and  C_6 
REMARK    7  A    between atoms: O_16  and  C_17 
REMARK    8  A    between atoms: C_17  and  C_19 
ROOT
ATOM      1  O   LIG     1     174.589 176.355 170.319  0.00  0.00    -0.315 OA
ATOM      2  C   LIG     1     175.963 175.903 170.289  0.00  0.00     0.332 C 
ATOM      3  C   LIG     1     176.994 177.063 170.404  0.00  0.00     0.244 C 
ATOM      4  C   LIG     1     176.674 178.258 169.447  0.00  0.00     0.112 C 
ATOM      5  C   LIG     1     175.159 178.635 169.505  0.00  0.00     0.188 C 
ATOM      6  O   LIG     1     174.904 179.303 170.745  0.00  0.00    -0.220 OA
ATOM      7  C   LIG     1     174.195 177.411 169.414  0.00  0.00     0.182 C 
ENDROOT
BRANCH   2   8
ATOM      8  O   LIG     1     176.303 175.045 169.188  0.00  0.00    -0.418 OA
BRANCH   8   9
ATOM      9  C   LIG     1     177.030 173.888 169.241  0.00  0.00     0.343 C 
ATOM     10  O   LIG     1     176.465 172.802 168.960  0.00  0.00    -0.245 OA
BRANCH   9  11
ATOM     11  C   LIG     1     178.394 173.915 169.642  0.00  0.00     0.082 A 
ATOM     12  C   LIG     1     178.807 173.293 170.847  0.00  0.00     0.052 A 
ATOM     13  C   LIG     1     180.170 173.197 171.191  0.00  0.00     0.238 A 
ATOM     14  C   LIG     1     181.145 173.762 170.348  0.00  0.00     0.273 A 
ATOM     15  O   LIG     1     180.557 172.554 172.325  0.00  0.00    -0.283 OA
ATOM     16  O   LIG     1     182.455 173.640 170.678  0.00  0.00    -0.280 OA
ATOM     17  C   LIG     1     180.751 174.443 169.177  0.00  0.00     0.238 A 
ATOM     18  C   LIG     1     179.389 174.507 168.825  0.00  0.00     0.052 A 
ATOM     19  O   LIG     1     181.689 175.027 168.386  0.00  0.00    -0.283 OA
ENDBRANCH   9  11
ENDBRANCH   8   9
ENDBRANCH   2   8
BRANCH   3  20
ATOM     20  O   LIG     1     177.017 177.483 171.784  0.00  0.00    -0.442 OA
BRANCH  20  21
ATOM     21  C   LIG     1     177.870 178.377 172.372  0.00  0.00     0.341 C 
ATOM     22  O   LIG     1     177.316 179.217 173.116  0.00  0.00    -0.245 OA
BRANCH  21  23
ATOM     23  C   LIG     1     179.289 178.332 172.258  0.00  0.00     0.082 A 
ATOM     24  C   LIG     1     180.005 177.153 172.584  0.00  0.00     0.052 A 
ATOM     25  C   LIG     1     181.413 177.106 172.510  0.00  0.00     0.238 A 
ATOM     26  O   LIG     1     182.067 175.968 172.860  0.00  0.00    -0.283 OA
ATOM     27  C   LIG     1     182.133 178.241 172.085  0.00  0.00     0.273 A 
ATOM     28  O   LIG     1     183.490 178.231 171.996  0.00  0.00    -0.280 OA
ATOM     29  C   LIG     1     181.439 179.418 171.745  0.00  0.00     0.238 A 
ATOM     30  O   LIG     1     182.132 180.517 171.353  0.00  0.00    -0.283 OA
ATOM     31  C   LIG     1     180.031 179.453 171.815  0.00  0.00     0.052 A 
ENDBRANCH  21  23
ENDBRANCH  20  21
ENDBRANCH   3  20
BRANCH   7  32
ATOM     32  C   LIG     1     173.878 176.885 167.986  0.00  0.00     0.214 C 
ATOM     33  O   LIG     1     173.101 175.692 168.038  0.00  0.00    -0.218 OA
ENDBRANCH   7  32
BRANCH   4  34
ATOM     34  C   LIG     1     177.217 178.051 167.999  0.00  0.00     0.189 C 
ATOM     35  O   LIG     1     178.620 177.805 168.012  0.00  0.00    -0.220 OA
ENDBRANCH   4  34
TORSDOF 8
