REMARK VINA RESULT:      -7.2      0.000      0.000
REMARK  8 active torsions:
REMARK  status: ('A' for Active; 'I' for Inactive)
REMARK    1  A    between atoms: C_2  and  O_3 
REMARK    2  A    between atoms: C_15  and  O_16 
REMARK    3  A    between atoms: C_28  and  C_29 
REMARK    4  A    between atoms: C_33  and  C_34 
REMARK    5  A    between atoms: O_3  and  C_4 
REMARK    6  A    between atoms: C_4  and  C_6 
REMARK    7  A    between atoms: O_16  and  C_17 
REMARK    8  A    between atoms: C_17  and  C_19 
ROOT
ATOM      1  O   LIG     1     172.760 174.317 171.133  0.00  0.00    -0.315 OA
ATOM      2  C   LIG     1     173.769 174.359 170.097  0.00  0.00     0.332 C 
ATOM      3  C   LIG     1     173.268 175.014 168.778  0.00  0.00     0.244 C 
ATOM      4  C   LIG     1     171.876 174.468 168.319  0.00  0.00     0.112 C 
ATOM      5  C   LIG     1     170.873 174.405 169.516  0.00  0.00     0.188 C 
ATOM      6  O   LIG     1     170.464 175.738 169.837  0.00  0.00    -0.220 OA
ATOM      7  C   LIG     1     171.466 173.761 170.808  0.00  0.00     0.182 C 
ENDROOT
BRANCH   2   8
ATOM      8  O   LIG     1     174.412 173.105 169.816  0.00  0.00    -0.418 OA
BRANCH   8   9
ATOM      9  C   LIG     1     175.632 172.922 169.226  0.00  0.00     0.343 C 
ATOM     10  O   LIG     1     175.680 172.465 168.058  0.00  0.00    -0.245 OA
BRANCH   9  11
ATOM     11  C   LIG     1     176.826 173.213 169.942  0.00  0.00     0.082 A 
ATOM     12  C   LIG     1     176.802 173.380 171.350  0.00  0.00     0.052 A 
ATOM     13  C   LIG     1     177.993 173.537 172.088  0.00  0.00     0.238 A 
ATOM     14  C   LIG     1     179.230 173.569 171.418  0.00  0.00     0.273 A 
ATOM     15  O   LIG     1     177.961 173.648 173.442  0.00  0.00    -0.283 OA
ATOM     16  O   LIG     1     180.371 173.696 172.143  0.00  0.00    -0.280 OA
ATOM     17  C   LIG     1     179.272 173.470 170.011  0.00  0.00     0.238 A 
ATOM     18  C   LIG     1     178.079 173.282 169.285  0.00  0.00     0.052 A 
ATOM     19  O   LIG     1     180.463 173.546 169.362  0.00  0.00    -0.283 OA
ENDBRANCH   9  11
ENDBRANCH   8   9
ENDBRANCH   2   8
BRANCH   3  20
ATOM     20  O   LIG     1     173.230 176.441 168.992  0.00  0.00    -0.442 OA
BRANCH  20  21
ATOM     21  C   LIG     1     174.259 177.333 168.867  0.00  0.00     0.341 C 
ATOM     22  O   LIG     1     174.029 178.294 168.099  0.00  0.00    -0.245 OA
BRANCH  21  23
ATOM     23  C   LIG     1     175.475 177.270 169.608  0.00  0.00     0.082 A 
ATOM     24  C   LIG     1     176.718 177.102 168.947  0.00  0.00     0.052 A 
ATOM     25  C   LIG     1     177.925 177.002 169.669  0.00  0.00     0.238 A 
ATOM     26  O   LIG     1     179.093 176.810 169.004  0.00  0.00    -0.283 OA
ATOM     27  C   LIG     1     177.911 177.089 171.077  0.00  0.00     0.273 A 
ATOM     28  O   LIG     1     179.056 177.002 171.807  0.00  0.00    -0.280 OA
ATOM     29  C   LIG     1     176.688 177.268 171.751  0.00  0.00     0.238 A 
ATOM     30  O   LIG     1     176.671 177.335 173.107  0.00  0.00    -0.283 OA
ATOM     31  C   LIG     1     175.487 177.374 171.020  0.00  0.00     0.052 A 
ENDBRANCH  21  23
ENDBRANCH  20  21
ENDBRANCH   3  20
BRANCH   7  32
ATOM     32  C   LIG     1     171.450 172.209 170.878  0.00  0.00     0.214 C 
ATOM     33  O   LIG     1     170.143 171.697 170.635  0.00  0.00    -0.218 OA
ENDBRANCH   7  32
BRANCH   4  34
ATOM     34  C   LIG     1     171.971 173.139 167.507  0.00  0.00     0.189 C 
ATOM     35  O   LIG     1     170.715 172.468 167.479  0.00  0.00    -0.220 OA
ENDBRANCH   4  34
TORSDOF 8
