REMARK VINA RESULT:      -7.1      2.672      8.115
REMARK  8 active torsions:
REMARK  status: ('A' for Active; 'I' for Inactive)
REMARK    1  A    between atoms: C_2  and  O_3 
REMARK    2  A    between atoms: C_15  and  O_16 
REMARK    3  A    between atoms: C_28  and  C_29 
REMARK    4  A    between atoms: C_33  and  C_34 
REMARK    5  A    between atoms: O_3  and  C_4 
REMARK    6  A    between atoms: C_4  and  C_6 
REMARK    7  A    between atoms: O_16  and  C_17 
REMARK    8  A    between atoms: C_17  and  C_19 
ROOT
ATOM      1  O   LIG     1     181.364 177.685 172.973  0.00  0.00    -0.315 OA
ATOM      2  C   LIG     1     180.165 177.052 172.468  0.00  0.00     0.332 C 
ATOM      3  C   LIG     1     180.260 176.669 170.963  0.00  0.00     0.244 C 
ATOM      4  C   LIG     1     180.814 177.831 170.075  0.00  0.00     0.112 C 
ATOM      5  C   LIG     1     182.071 178.490 170.729  0.00  0.00     0.188 C 
ATOM      6  O   LIG     1     183.178 177.593 170.592  0.00  0.00    -0.220 OA
ATOM      7  C   LIG     1     181.902 178.812 172.247  0.00  0.00     0.182 C 
ENDROOT
BRANCH   2   8
ATOM      8  O   LIG     1     178.942 177.761 172.724  0.00  0.00    -0.418 OA
BRANCH   8   9
ATOM      9  C   LIG     1     177.703 177.218 172.924  0.00  0.00     0.343 C 
ATOM     10  O   LIG     1     177.484 176.578 173.981  0.00  0.00    -0.245 OA
BRANCH   9  11
ATOM     11  C   LIG     1     176.693 177.350 171.931  0.00  0.00     0.082 A 
ATOM     12  C   LIG     1     176.478 178.591 171.280  0.00  0.00     0.052 A 
ATOM     13  C   LIG     1     175.574 178.705 170.204  0.00  0.00     0.238 A 
ATOM     14  C   LIG     1     174.838 177.580 169.788  0.00  0.00     0.273 A 
ATOM     15  O   LIG     1     175.412 179.889 169.556  0.00  0.00    -0.283 OA
ATOM     16  O   LIG     1     173.991 177.698 168.735  0.00  0.00    -0.280 OA
ATOM     17  C   LIG     1     174.989 176.351 170.465  0.00  0.00     0.238 A 
ATOM     18  C   LIG     1     175.918 176.239 171.518  0.00  0.00     0.052 A 
ATOM     19  O   LIG     1     174.246 175.278 170.090  0.00  0.00    -0.283 OA
ENDBRANCH   9  11
ENDBRANCH   8   9
ENDBRANCH   2   8
BRANCH   3  20
ATOM     20  O   LIG     1     181.089 175.491 170.869  0.00  0.00    -0.442 OA
BRANCH  20  21
ATOM     21  C   LIG     1     180.722 174.191 171.083  0.00  0.00     0.341 C 
ATOM     22  O   LIG     1     181.666 173.420 171.367  0.00  0.00    -0.245 OA
BRANCH  21  23
ATOM     23  C   LIG     1     179.375 173.724 171.091  0.00  0.00     0.082 A 
ATOM     24  C   LIG     1     178.749 173.343 172.304  0.00  0.00     0.052 A 
ATOM     25  C   LIG     1     177.430 172.845 172.323  0.00  0.00     0.238 A 
ATOM     26  O   LIG     1     176.873 172.460 173.500  0.00  0.00    -0.283 OA
ATOM     27  C   LIG     1     176.701 172.738 171.120  0.00  0.00     0.273 A 
ATOM     28  O   LIG     1     175.425 172.268 171.100  0.00  0.00    -0.280 OA
ATOM     29  C   LIG     1     177.302 173.124 169.906  0.00  0.00     0.238 A 
ATOM     30  O   LIG     1     176.608 173.004 168.746  0.00  0.00    -0.283 OA
ATOM     31  C   LIG     1     178.619 173.627 169.899  0.00  0.00     0.052 A 
ENDBRANCH  21  23
ENDBRANCH  20  21
ENDBRANCH   3  20
BRANCH   7  32
ATOM     32  C   LIG     1     181.180 180.144 172.595  0.00  0.00     0.214 C 
ATOM     33  O   LIG     1     182.111 181.141 173.006  0.00  0.00    -0.218 OA
ENDBRANCH   7  32
BRANCH   4  34
ATOM     34  C   LIG     1     179.718 178.855 169.644  0.00  0.00     0.189 C 
ATOM     35  O   LIG     1     179.024 178.400 168.486  0.00  0.00    -0.220 OA
ENDBRANCH   4  34
TORSDOF 8
