REMARK VINA RESULT:      -8.2      1.212      2.430
REMARK  21 active torsions:
REMARK  status: ('A' for Active; 'I' for Inactive)
REMARK    1  A    between atoms: C_2  and  O_11 
REMARK    2  A    between atoms: C_3  and  O_7 
REMARK    3  A    between atoms: C_4  and  O_42 
REMARK    4  A    between atoms: C_5  and  O_9 
REMARK    5  A    between atoms: C_6  and  C_26 
REMARK    6  A    between atoms: O_11  and  C_12 
REMARK    7  A    between atoms: C_12  and  C_14 
REMARK    8  A    between atoms: C_16  and  O_20 
REMARK    9  A    between atoms: C_17  and  O_22 
REMARK   10  A    between atoms: C_18  and  O_24 
REMARK   11  A    between atoms: C_26  and  O_27 
REMARK   12  A    between atoms: O_27  and  C_28 
REMARK   13  A    between atoms: C_28  and  C_30 
REMARK   14  A    between atoms: C_32  and  O_36 
REMARK   15  A    between atoms: C_33  and  O_38 
REMARK   16  A    between atoms: C_34  and  O_40 
REMARK   17  A    between atoms: O_42  and  C_43 
REMARK   18  A    between atoms: C_43  and  C_45 
REMARK   19  A    between atoms: C_47  and  O_51 
REMARK   20  A    between atoms: C_48  and  O_53 
REMARK   21  A    between atoms: C_49  and  O_55 
ROOT
ATOM      1  O   UNL     1     182.710 182.588 172.748  0.00  0.00    -0.330 OA
ATOM      2  C   UNL     1     181.632 182.864 173.641  0.00  0.00     0.344 C 
ATOM      3  C   UNL     1     180.754 183.988 173.090  0.00  0.00     0.226 C 
ATOM      4  C   UNL     1     180.281 183.678 171.670  0.00  0.00     0.242 C 
ATOM      5  C   UNL     1     181.443 183.233 170.783  0.00  0.00     0.190 C 
ATOM      6  C   UNL     1     182.260 182.135 171.470  0.00  0.00     0.192 C 
ENDROOT
BRANCH   6   7
ATOM      7  C   UNL     1     183.493 181.756 170.656  0.00  0.00     0.266 C 
BRANCH   7   8
ATOM      8  O   UNL     1     184.543 182.644 170.992  0.00  0.00    -0.458 OA
BRANCH   8   9
ATOM      9  C   UNL     1     185.020 183.425 169.979  0.00  0.00     0.340 C 
ATOM     10  O   UNL     1     184.786 183.274 168.790  0.00  0.00    -0.245 OA
BRANCH   9  11
ATOM     11  C   UNL     1     185.884 184.512 170.507  0.00  0.00     0.066 A 
ATOM     12  C   UNL     1     185.321 185.555 171.242  0.00  0.00     0.064 A 
ATOM     13  C   UNL     1     186.132 186.574 171.739  0.00  0.00     0.163 A 
ATOM     14  C   UNL     1     187.506 186.551 171.503  0.00  0.00     0.201 A 
ATOM     15  C   UNL     1     188.069 185.508 170.767  0.00  0.00     0.163 A 
ATOM     16  C   UNL     1     187.258 184.489 170.270  0.00  0.00     0.064 A 
BRANCH  13  17
ATOM     17  O   UNL     1     185.570 187.588 172.457  0.00  0.00    -0.503 OA
ATOM     18  H   UNL     1     186.076 188.405 172.303  0.00  0.00     0.292 HD
ENDBRANCH  13  17
BRANCH  14  19
ATOM     19  O   UNL     1     188.300 187.548 171.987  0.00  0.00    -0.501 OA
ATOM     20  H   UNL     1     189.173 187.479 171.562  0.00  0.00     0.292 HD
ENDBRANCH  14  19
BRANCH  15  21
ATOM     21  O   UNL     1     189.410 185.472 170.529  0.00  0.00    -0.503 OA
ATOM     22  H   UNL     1     189.593 185.908 169.679  0.00  0.00     0.292 HD
ENDBRANCH  15  21
ENDBRANCH   9  11
ENDBRANCH   8   9
ENDBRANCH   7   8
ENDBRANCH   6   7
BRANCH   5  23
ATOM     23  O   UNL     1     180.933 182.738 169.549  0.00  0.00    -0.385 OA
ATOM     24  H   UNL     1     179.970 182.879 169.543  0.00  0.00     0.210 HD
ENDBRANCH   5  23
BRANCH   4  25
ATOM     25  O   UNL     1     179.710 184.854 171.093  0.00  0.00    -0.452 OA
BRANCH  25  26
ATOM     26  C   UNL     1     180.509 185.952 171.076  0.00  0.00     0.340 C 
ATOM     27  O   UNL     1     181.729 185.956 171.027  0.00  0.00    -0.245 OA
BRANCH  26  28
ATOM     28  C   UNL     1     179.692 187.191 171.128  0.00  0.00     0.066 A 
ATOM     29  C   UNL     1     179.587 188.006 170.001  0.00  0.00     0.064 A 
ATOM     30  C   UNL     1     178.816 189.168 170.050  0.00  0.00     0.163 A 
ATOM     31  C   UNL     1     178.153 189.516 171.226  0.00  0.00     0.201 A 
ATOM     32  C   UNL     1     178.258 188.701 172.354  0.00  0.00     0.163 A 
ATOM     33  C   UNL     1     179.028 187.538 172.305  0.00  0.00     0.064 A 
BRANCH  30  34
ATOM     34  O   UNL     1     178.721 189.955 168.942  0.00  0.00    -0.503 OA
ATOM     35  H   UNL     1     177.817 189.899 168.588  0.00  0.00     0.292 HD
ENDBRANCH  30  34
BRANCH  31  36
ATOM     36  O   UNL     1     177.402 190.653 171.275  0.00  0.00    -0.501 OA
ATOM     37  H   UNL     1     176.480 190.420 171.066  0.00  0.00     0.292 HD
ENDBRANCH  31  36
BRANCH  32  38
ATOM     38  O   UNL     1     177.615 189.030 173.509  0.00  0.00    -0.503 OA
ATOM     39  H   UNL     1     177.114 188.257 173.824  0.00  0.00     0.292 HD
ENDBRANCH  32  38
ENDBRANCH  26  28
ENDBRANCH  25  26
ENDBRANCH   4  25
BRANCH   2  40
ATOM     40  O   UNL     1     182.148 183.287 174.903  0.00  0.00    -0.429 OA
BRANCH  40  41
ATOM     41  C   UNL     1     183.222 182.595 175.365  0.00  0.00     0.342 C 
ATOM     42  O   UNL     1     183.199 181.492 175.890  0.00  0.00    -0.245 OA
BRANCH  41  43
ATOM     43  C   UNL     1     184.473 183.367 175.148  0.00  0.00     0.066 A 
ATOM     44  C   UNL     1     184.505 184.734 175.420  0.00  0.00     0.064 A 
ATOM     45  C   UNL     1     185.679 185.459 175.214  0.00  0.00     0.163 A 
ATOM     46  C   UNL     1     186.821 184.816 174.735  0.00  0.00     0.201 A 
ATOM     47  C   UNL     1     186.788 183.448 174.462  0.00  0.00     0.163 A 
ATOM     48  C   UNL     1     185.614 182.723 174.668  0.00  0.00     0.064 A 
BRANCH  45  49
ATOM     49  O   UNL     1     185.697 186.794 175.484  0.00  0.00    -0.503 OA
ATOM     50  H   UNL     1     185.853 187.283 174.658  0.00  0.00     0.292 HD
ENDBRANCH  45  49
BRANCH  46  51
ATOM     51  O   UNL     1     187.967 185.524 174.535  0.00  0.00    -0.501 OA
ATOM     52  H   UNL     1     188.553 185.004 173.957  0.00  0.00     0.292 HD
ENDBRANCH  46  51
BRANCH  47  53
ATOM     53  O   UNL     1     187.896 182.809 173.994  0.00  0.00    -0.503 OA
ATOM     54  H   UNL     1     188.476 183.455 173.556  0.00  0.00     0.292 HD
ENDBRANCH  47  53
ENDBRANCH  41  43
ENDBRANCH  40  41
ENDBRANCH   2  40
BRANCH   3  55
ATOM     55  O   UNL     1     179.621 184.129 173.947  0.00  0.00    -0.382 OA
ATOM     56  H   UNL     1     179.943 184.313 174.846  0.00  0.00     0.210 HD
ENDBRANCH   3  55
TORSDOF 21
