REMARK VINA RESULT:      -8.2      5.275     10.248
REMARK  21 active torsions:
REMARK  status: ('A' for Active; 'I' for Inactive)
REMARK    1  A    between atoms: C_2  and  O_11 
REMARK    2  A    between atoms: C_3  and  O_7 
REMARK    3  A    between atoms: C_4  and  O_42 
REMARK    4  A    between atoms: C_5  and  O_9 
REMARK    5  A    between atoms: C_6  and  C_26 
REMARK    6  A    between atoms: O_11  and  C_12 
REMARK    7  A    between atoms: C_12  and  C_14 
REMARK    8  A    between atoms: C_16  and  O_20 
REMARK    9  A    between atoms: C_17  and  O_22 
REMARK   10  A    between atoms: C_18  and  O_24 
REMARK   11  A    between atoms: C_26  and  O_27 
REMARK   12  A    between atoms: O_27  and  C_28 
REMARK   13  A    between atoms: C_28  and  C_30 
REMARK   14  A    between atoms: C_32  and  O_36 
REMARK   15  A    between atoms: C_33  and  O_38 
REMARK   16  A    between atoms: C_34  and  O_40 
REMARK   17  A    between atoms: O_42  and  C_43 
REMARK   18  A    between atoms: C_43  and  C_45 
REMARK   19  A    between atoms: C_47  and  O_51 
REMARK   20  A    between atoms: C_48  and  O_53 
REMARK   21  A    between atoms: C_49  and  O_55 
ROOT
ATOM      1  O   UNL     1     180.611 180.513 171.626  0.00  0.00    -0.330 OA
ATOM      2  C   UNL     1     181.415 180.353 172.792  0.00  0.00     0.344 C 
ATOM      3  C   UNL     1     182.631 181.279 172.736  0.00  0.00     0.226 C 
ATOM      4  C   UNL     1     182.214 182.730 172.500  0.00  0.00     0.242 C 
ATOM      5  C   UNL     1     181.226 182.841 171.339  0.00  0.00     0.190 C 
ATOM      6  C   UNL     1     180.083 181.835 171.501  0.00  0.00     0.192 C 
ENDROOT
BRANCH   6   7
ATOM      7  C   UNL     1     179.147 181.846 170.297  0.00  0.00     0.266 C 
BRANCH   7   8
ATOM      8  O   UNL     1     178.711 180.520 170.055  0.00  0.00    -0.458 OA
BRANCH   8   9
ATOM      9  C   UNL     1     177.361 180.324 170.036  0.00  0.00     0.340 C 
ATOM     10  O   UNL     1     176.528 181.125 169.639  0.00  0.00    -0.245 OA
BRANCH   9  11
ATOM     11  C   UNL     1     177.010 178.984 170.571  0.00  0.00     0.066 A 
ATOM     12  C   UNL     1     176.403 178.040 169.743  0.00  0.00     0.064 A 
ATOM     13  C   UNL     1     176.075 176.780 170.244  0.00  0.00     0.163 A 
ATOM     14  C   UNL     1     176.356 176.464 171.573  0.00  0.00     0.201 A 
ATOM     15  C   UNL     1     176.963 177.408 172.401  0.00  0.00     0.163 A 
ATOM     16  C   UNL     1     177.291 178.667 171.900  0.00  0.00     0.064 A 
BRANCH  13  17
ATOM     17  O   UNL     1     175.482 175.866 169.426  0.00  0.00    -0.503 OA
ATOM     18  H   UNL     1     175.640 174.974 169.779  0.00  0.00     0.292 HD
ENDBRANCH  13  17
BRANCH  14  19
ATOM     19  O   UNL     1     176.035 175.233 172.065  0.00  0.00    -0.501 OA
ATOM     20  H   UNL     1     176.826 174.858 172.491  0.00  0.00     0.292 HD
ENDBRANCH  14  19
BRANCH  15  21
ATOM     21  O   UNL     1     177.244 177.112 173.701  0.00  0.00    -0.503 OA
ATOM     22  H   UNL     1     176.528 176.563 174.063  0.00  0.00     0.292 HD
ENDBRANCH  15  21
ENDBRANCH   9  11
ENDBRANCH   8   9
ENDBRANCH   7   8
ENDBRANCH   6   7
BRANCH   5  23
ATOM     23  O   UNL     1     180.690 184.160 171.301  0.00  0.00    -0.385 OA
ATOM     24  H   UNL     1     181.231 184.688 170.689  0.00  0.00     0.210 HD
ENDBRANCH   5  23
BRANCH   4  25
ATOM     25  O   UNL     1     183.367 183.509 172.175  0.00  0.00    -0.452 OA
BRANCH  25  26
ATOM     26  C   UNL     1     183.501 184.680 172.851  0.00  0.00     0.340 C 
ATOM     27  O   UNL     1     182.761 185.648 172.769  0.00  0.00    -0.245 OA
BRANCH  26  28
ATOM     28  C   UNL     1     184.697 184.639 173.730  0.00  0.00     0.066 A 
ATOM     29  C   UNL     1     184.800 185.517 174.809  0.00  0.00     0.064 A 
ATOM     30  C   UNL     1     185.923 185.477 175.636  0.00  0.00     0.163 A 
ATOM     31  C   UNL     1     186.943 184.561 175.382  0.00  0.00     0.201 A 
ATOM     32  C   UNL     1     186.841 183.683 174.302  0.00  0.00     0.163 A 
ATOM     33  C   UNL     1     185.717 183.723 173.476  0.00  0.00     0.064 A 
BRANCH  30  34
ATOM     34  O   UNL     1     186.011 186.339 176.687  0.00  0.00    -0.503 OA
ATOM     35  H   UNL     1     186.328 187.201 176.366  0.00  0.00     0.292 HD
ENDBRANCH  30  34
BRANCH  31  36
ATOM     36  O   UNL     1     188.042 184.523 176.188  0.00  0.00    -0.501 OA
ATOM     37  H   UNL     1     188.836 184.580 175.628  0.00  0.00     0.292 HD
ENDBRANCH  31  36
BRANCH  32  38
ATOM     38  O   UNL     1     187.830 182.783 174.044  0.00  0.00    -0.503 OA
ATOM     39  H   UNL     1     188.316 183.064 173.249  0.00  0.00     0.292 HD
ENDBRANCH  32  38
ENDBRANCH  26  28
ENDBRANCH  25  26
ENDBRANCH   4  25
BRANCH   2  40
ATOM     40  O   UNL     1     181.889 179.009 172.870  0.00  0.00    -0.429 OA
BRANCH  40  41
ATOM     41  C   UNL     1     182.030 178.362 171.683  0.00  0.00     0.342 C 
ATOM     42  O   UNL     1     182.765 178.691 170.764  0.00  0.00    -0.245 OA
BRANCH  41  43
ATOM     43  C   UNL     1     181.154 177.164 171.635  0.00  0.00     0.066 A 
ATOM     44  C   UNL     1     180.539 176.797 170.439  0.00  0.00     0.064 A 
ATOM     45  C   UNL     1     179.714 175.672 170.395  0.00  0.00     0.163 A 
ATOM     46  C   UNL     1     179.504 174.916 171.547  0.00  0.00     0.201 A 
ATOM     47  C   UNL     1     180.119 175.283 172.744  0.00  0.00     0.163 A 
ATOM     48  C   UNL     1     180.944 176.407 172.789  0.00  0.00     0.064 A 
BRANCH  45  49
ATOM     49  O   UNL     1     179.119 175.326 169.219  0.00  0.00    -0.503 OA
ATOM     50  H   UNL     1     179.756 174.838 168.672  0.00  0.00     0.292 HD
ENDBRANCH  45  49
BRANCH  46  51
ATOM     51  O   UNL     1     178.699 173.817 171.504  0.00  0.00    -0.501 OA
ATOM     52  H   UNL     1     177.802 174.103 171.255  0.00  0.00     0.292 HD
ENDBRANCH  46  51
BRANCH  47  53
ATOM     53  O   UNL     1     179.922 174.553 173.877  0.00  0.00    -0.503 OA
ATOM     54  H   UNL     1     180.459 173.743 173.832  0.00  0.00     0.292 HD
ENDBRANCH  47  53
ENDBRANCH  41  43
ENDBRANCH  40  41
ENDBRANCH   2  40
BRANCH   3  55
ATOM     55  O   UNL     1     183.325 181.181 173.980  0.00  0.00    -0.382 OA
ATOM     56  H   UNL     1     183.824 180.346 173.983  0.00  0.00     0.210 HD
ENDBRANCH   3  55
TORSDOF 21
