MODEL 1
REMARK VINA RESULT:      -8.9      0.000      0.000
REMARK  Name = 5280637
REMARK                            x       y       z     vdW  Elec       q    Type
REMARK                         _______ _______ _______ _____ _____    ______ ____
ROOT
ATOM     13  C   LIG    1      153.533 153.244 148.521  0.00  0.00    +0.131 A 
ATOM     14  C   LIG    1      153.691 152.065 147.793  0.00  0.00    +0.092 A 
ATOM     15  C   LIG    1      152.615 151.528 147.085  0.00  0.00    +0.135 A 
ATOM     16  C   LIG    1      151.380 152.179 147.111  0.00  0.00    +0.105 A 
ATOM     17  C   LIG    1      150.227 151.637 146.376  0.00  0.00    +0.197 A 
ATOM     18  C   LIG    1      148.971 152.409 146.472  0.00  0.00    +0.098 A 
ATOM     19  C   LIG    1      148.945 153.535 147.200  0.00  0.00    +0.139 A 
ATOM     30  O   LIG    1      150.031 154.040 147.898  0.00  0.00    -0.454 OA
ATOM     31  O   LIG    1      150.295 150.606 145.721  0.00  0.00    -0.287 OA
ATOM     32  C   LIG    1      151.221 153.359 147.837  0.00  0.00    +0.146 A 
ATOM     35  C   LIG    1      152.297 153.893 148.544  0.00  0.00    +0.093 A 
ENDROOT
BRANCH  19  20
ATOM     20  C   LIG    1      147.715 154.343 147.339  0.00  0.00    +0.021 A 
ATOM     21  C   LIG    1      146.506 153.727 147.668  0.00  0.00    +0.015 A 
ATOM     22  C   LIG    1      145.345 154.489 147.797  0.00  0.00    +0.050 A 
ATOM     23  C   LIG    1      145.391 155.870 147.600  0.00  0.00    +0.158 A 
ATOM     24  C   LIG    1      146.597 156.487 147.271  0.00  0.00    +0.159 A 
ATOM     29  C   LIG    1      147.758 155.725 147.141  0.00  0.00    +0.060 A 
BRANCH  24  25
ATOM     25  O   LIG    1      146.654 157.835 147.077  0.00  0.00    -0.503 OA
ATOM     26  H   LIG    1      147.411 158.030 146.500  0.00  0.00    +0.292 HD
ENDBRANCH  24  25
BRANCH  23  27
ATOM     27  O   LIG    1      144.250 156.603 147.728  0.00  0.00    -0.503 OA
ATOM     28  H   LIG    1      144.485 157.542 147.816  0.00  0.00    +0.292 HD
ENDBRANCH  23  27
ENDBRANCH  19  20
BRANCH  15  33
ATOM     33  O   LIG    1      152.821 150.374 146.390  0.00  0.00    -0.506 OA
ATOM     34  H   LIG    1      153.297 149.730 146.935  0.00  0.00    +0.292 HD
ENDBRANCH  15  33
BRANCH  13  12
ATOM     12  O   LIG    1      154.588 153.765 149.212  0.00  0.00    -0.461 OA
BRANCH  12   2
ATOM      1  O   LIG    1      154.331 155.938 150.019  0.00  0.00    -0.331 OA
ATOM      2  C   LIG    1      154.273 154.555 150.357  0.00  0.00    +0.339 C 
ATOM      3  C   LIG    1      155.292 154.226 151.449  0.00  0.00    +0.214 C 
ATOM      4  C   LIG    1      155.120 155.140 152.663  0.00  0.00    +0.180 C 
ATOM      5  C   LIG    1      155.025 156.607 152.244  0.00  0.00    +0.177 C 
ATOM     36  C   LIG    1      154.000 156.786 151.122  0.00  0.00    +0.179 C 
BRANCH   5   6
ATOM      6  O   LIG    1      154.638 157.394 153.366  0.00  0.00    -0.386 OA
ATOM      7  H   LIG    1      153.961 158.026 153.070  0.00  0.00    +0.210 HD
ENDBRANCH   5   6
BRANCH   4   8
ATOM      8  O   LIG    1      156.248 154.998 153.528  0.00  0.00    -0.386 OA
ATOM      9  H   LIG    1      155.931 154.602 154.357  0.00  0.00    +0.210 HD
ENDBRANCH   4   8
BRANCH   3  10
ATOM     10  O   LIG    1      155.102 152.869 151.846  0.00  0.00    -0.383 OA
ATOM     11  H   LIG    1      154.348 152.511 151.346  0.00  0.00    +0.210 HD
ENDBRANCH   3  10
BRANCH  36  37
ATOM     37  C   LIG    1      153.973 158.221 150.606  0.00  0.00    +0.190 C 
BRANCH  37  38
ATOM     38  O   LIG    1      155.076 158.918 151.155  0.00  0.00    -0.392 OA
ATOM     39  H   LIG    1      155.682 159.134 150.426  0.00  0.00    +0.210 HD
ENDBRANCH  37  38
ENDBRANCH  36  37
ENDBRANCH  12   2
ENDBRANCH  13  12
TORSDOF 11
ENDMDL
MODEL 2
REMARK VINA RESULT:      -8.9      2.701      5.994
REMARK  Name = 5280637
REMARK                            x       y       z     vdW  Elec       q    Type
REMARK                         _______ _______ _______ _____ _____    ______ ____
ROOT
ATOM     13  C   LIG    1      153.506 153.323 148.605  0.00  0.00    +0.131 A 
ATOM     14  C   LIG    1      152.269 153.963 148.672  0.00  0.00    +0.092 A 
ATOM     15  C   LIG    1      151.147 153.387 148.073  0.00  0.00    +0.135 A 
ATOM     16  C   LIG    1      151.273 152.166 147.408  0.00  0.00    +0.105 A 
ATOM     17  C   LIG    1      150.109 151.534 146.767  0.00  0.00    +0.197 A 
ATOM     18  C   LIG    1      150.356 150.243 146.093  0.00  0.00    +0.098 A 
ATOM     19  C   LIG    1      151.594 149.723 146.102  0.00  0.00    +0.139 A 
ATOM     30  O   LIG    1      152.690 150.324 146.701  0.00  0.00    -0.454 OA
ATOM     31  O   LIG    1      148.997 152.043 146.784  0.00  0.00    -0.287 OA
ATOM     32  C   LIG    1      152.509 151.524 147.341  0.00  0.00    +0.146 A 
ATOM     35  C   LIG    1      153.628 152.102 147.939  0.00  0.00    +0.093 A 
ENDROOT
BRANCH  19  20
ATOM     20  C   LIG    1      151.902 148.439 145.438  0.00  0.00    +0.021 A 
ATOM     21  C   LIG    1      153.217 147.974 145.388  0.00  0.00    +0.015 A 
ATOM     22  C   LIG    1      153.508 146.763 144.760  0.00  0.00    +0.050 A 
ATOM     23  C   LIG    1      152.483 146.014 144.180  0.00  0.00    +0.158 A 
ATOM     24  C   LIG    1      151.169 146.478 144.227  0.00  0.00    +0.159 A 
ATOM     29  C   LIG    1      150.878 147.688 144.856  0.00  0.00    +0.060 A 
BRANCH  24  25
ATOM     25  O   LIG    1      150.160 145.753 143.666  0.00  0.00    -0.503 OA
ATOM     26  H   LIG    1      150.524 145.254 142.915  0.00  0.00    +0.292 HD
ENDBRANCH  24  25
BRANCH  23  27
ATOM     27  O   LIG    1      152.780 144.834 143.569  0.00  0.00    -0.503 OA
ATOM     28  H   LIG    1      151.959 144.435 143.233  0.00  0.00    +0.292 HD
ENDBRANCH  23  27
ENDBRANCH  19  20
BRANCH  15  33
ATOM     33  O   LIG    1      149.962 154.053 148.166  0.00  0.00    -0.506 OA
ATOM     34  H   LIG    1      149.288 153.491 148.576  0.00  0.00    +0.292 HD
ENDBRANCH  15  33
BRANCH  13  12
ATOM     12  O   LIG    1      154.599 153.891 149.190  0.00  0.00    -0.461 OA
BRANCH  12   2
ATOM      1  O   LIG    1      154.620 156.102 149.933  0.00  0.00    -0.331 OA
ATOM      2  C   LIG    1      154.353 154.751 150.301  0.00  0.00    +0.339 C 
ATOM      3  C   LIG    1      155.270 154.317 151.445  0.00  0.00    +0.214 C 
ATOM      4  C   LIG    1      155.180 155.282 152.628  0.00  0.00    +0.180 C 
ATOM      5  C   LIG    1      155.311 156.734 152.169  0.00  0.00    +0.177 C 
ATOM     36  C   LIG    1      154.368 157.021 150.998  0.00  0.00    +0.179 C 
BRANCH   5   6
ATOM      6  O   LIG    1      154.993 157.602 153.254  0.00  0.00    -0.386 OA
ATOM      7  H   LIG    1      154.521 158.372 152.893  0.00  0.00    +0.210 HD
ENDBRANCH   5   6
BRANCH   4   8
ATOM      8  O   LIG    1      156.241 155.010 153.545  0.00  0.00    -0.386 OA
ATOM      9  H   LIG    1      155.896 155.164 154.442  0.00  0.00    +0.210 HD
ENDBRANCH   4   8
BRANCH   3  10
ATOM     10  O   LIG    1      154.873 153.012 151.867  0.00  0.00    -0.383 OA
ATOM     11  H   LIG    1      154.332 153.107 152.669  0.00  0.00    +0.210 HD
ENDBRANCH   3  10
BRANCH  36  37
ATOM     37  C   LIG    1      154.565 158.429 150.447  0.00  0.00    +0.190 C 
BRANCH  37  38
ATOM     38  O   LIG    1      155.802 158.930 150.921  0.00  0.00    -0.392 OA
ATOM     39  H   LIG    1      155.732 159.021 151.887  0.00  0.00    +0.210 HD
ENDBRANCH  37  38
ENDBRANCH  36  37
ENDBRANCH  12   2
ENDBRANCH  13  12
TORSDOF 11
ENDMDL
MODEL 3
REMARK VINA RESULT:      -8.7      2.773      5.851
REMARK  Name = 5280637
REMARK                            x       y       z     vdW  Elec       q    Type
REMARK                         _______ _______ _______ _____ _____    ______ ____
ROOT
ATOM     13  C   LIG    1      151.902 153.076 150.823  0.00  0.00    +0.131 A 
ATOM     14  C   LIG    1      150.868 153.979 150.575  0.00  0.00    +0.092 A 
ATOM     15  C   LIG    1      150.396 154.164 149.275  0.00  0.00    +0.135 A 
ATOM     16  C   LIG    1      150.965 153.439 148.225  0.00  0.00    +0.105 A 
ATOM     17  C   LIG    1      150.489 153.613 146.845  0.00  0.00    +0.197 A 
ATOM     18  C   LIG    1      151.161 152.795 145.815  0.00  0.00    +0.098 A 
ATOM     19  C   LIG    1      152.142 151.954 146.179  0.00  0.00    +0.139 A 
ATOM     30  O   LIG    1      152.593 151.797 147.481  0.00  0.00    -0.454 OA
ATOM     31  O   LIG    1      149.590 154.390 146.556  0.00  0.00    -0.287 OA
ATOM     32  C   LIG    1      151.998 152.535 148.472  0.00  0.00    +0.146 A 
ATOM     35  C   LIG    1      152.468 152.353 149.772  0.00  0.00    +0.093 A 
ENDROOT
BRANCH  19  20
ATOM     20  C   LIG    1      152.855 151.117 145.192  0.00  0.00    +0.021 A 
ATOM     21  C   LIG    1      153.052 151.583 143.891  0.00  0.00    +0.015 A 
ATOM     22  C   LIG    1      153.724 150.793 142.959  0.00  0.00    +0.050 A 
ATOM     23  C   LIG    1      154.201 149.534 143.326  0.00  0.00    +0.158 A 
ATOM     24  C   LIG    1      154.004 149.066 144.625  0.00  0.00    +0.159 A 
ATOM     29  C   LIG    1      153.332 149.856 145.557  0.00  0.00    +0.060 A 
BRANCH  24  25
ATOM     25  O   LIG    1      154.468 147.839 144.995  0.00  0.00    -0.503 OA
ATOM     26  H   LIG    1      155.420 147.801 144.804  0.00  0.00    +0.292 HD
ENDBRANCH  24  25
BRANCH  23  27
ATOM     27  O   LIG    1      154.855 148.771 142.406  0.00  0.00    -0.503 OA
ATOM     28  H   LIG    1      154.801 147.837 142.673  0.00  0.00    +0.292 HD
ENDBRANCH  23  27
ENDBRANCH  19  20
BRANCH  15  33
ATOM     33  O   LIG    1      149.386 155.058 149.085  0.00  0.00    -0.506 OA
ATOM     34  H   LIG    1      149.033 154.987 148.185  0.00  0.00    +0.292 HD
ENDBRANCH  15  33
BRANCH  13  12
ATOM     12  O   LIG    1      152.361 152.899 152.096  0.00  0.00    -0.461 OA
BRANCH  12   2
ATOM      1  O   LIG    1      152.794 155.170 152.407  0.00  0.00    -0.331 OA
ATOM      2  C   LIG    1      153.311 153.852 152.569  0.00  0.00    +0.339 C 
ATOM      3  C   LIG    1      154.596 153.676 151.760  0.00  0.00    +0.214 C 
ATOM      4  C   LIG    1      155.620 154.760 152.100  0.00  0.00    +0.180 C 
ATOM      5  C   LIG    1      154.985 156.150 152.071  0.00  0.00    +0.177 C 
ATOM     36  C   LIG    1      153.691 156.174 152.887  0.00  0.00    +0.179 C 
BRANCH   5   6
ATOM      6  O   LIG    1      155.901 157.098 152.613  0.00  0.00    -0.386 OA
ATOM      7  H   LIG    1      156.662 157.158 152.010  0.00  0.00    +0.210 HD
ENDBRANCH   5   6
BRANCH   4   8
ATOM      8  O   LIG    1      156.676 154.735 151.138  0.00  0.00    -0.386 OA
ATOM      9  H   LIG    1      157.307 154.050 151.417  0.00  0.00    +0.210 HD
ENDBRANCH   4   8
BRANCH   3  10
ATOM     10  O   LIG    1      155.145 152.394 152.062  0.00  0.00    -0.383 OA
ATOM     11  H   LIG    1      155.297 152.350 153.022  0.00  0.00    +0.210 HD
ENDBRANCH   3  10
BRANCH  36  37
ATOM     37  C   LIG    1      152.978 157.518 152.777  0.00  0.00    +0.190 C 
BRANCH  37  38
ATOM     38  O   LIG    1      153.438 158.177 151.611  0.00  0.00    -0.392 OA
ATOM     39  H   LIG    1      154.290 157.779 151.363  0.00  0.00    +0.210 HD
ENDBRANCH  37  38
ENDBRANCH  36  37
ENDBRANCH  12   2
ENDBRANCH  13  12
TORSDOF 11
ENDMDL
MODEL 4
REMARK VINA RESULT:      -8.7      2.819      5.712
REMARK  Name = 5280637
REMARK                            x       y       z     vdW  Elec       q    Type
REMARK                         _______ _______ _______ _____ _____    ______ ____
ROOT
ATOM     13  C   LIG    1      153.126 158.209 150.773  0.00  0.00    +0.131 A 
ATOM     14  C   LIG    1      153.015 159.328 151.599  0.00  0.00    +0.092 A 
ATOM     15  C   LIG    1      151.769 159.914 151.822  0.00  0.00    +0.135 A 
ATOM     16  C   LIG    1      150.634 159.373 151.212  0.00  0.00    +0.105 A 
ATOM     17  C   LIG    1      149.307 159.970 151.427  0.00  0.00    +0.197 A 
ATOM     18  C   LIG    1      148.178 159.316 150.735  0.00  0.00    +0.098 A 
ATOM     19  C   LIG    1      148.411 158.239 149.969  0.00  0.00    +0.139 A 
ATOM     30  O   LIG    1      149.664 157.683 149.762  0.00  0.00    -0.454 OA
ATOM     31  O   LIG    1      149.139 160.953 152.135  0.00  0.00    -0.287 OA
ATOM     32  C   LIG    1      150.744 158.255 150.387  0.00  0.00    +0.146 A 
ATOM     35  C   LIG    1      151.990 157.671 150.165  0.00  0.00    +0.093 A 
ENDROOT
BRANCH  19  20
ATOM     20  C   LIG    1      147.322 157.549 149.246  0.00  0.00    +0.021 A 
ATOM     21  C   LIG    1      147.622 156.633 148.236  0.00  0.00    +0.015 A 
ATOM     22  C   LIG    1      146.594 155.983 147.553  0.00  0.00    +0.050 A 
ATOM     23  C   LIG    1      145.264 156.246 147.880  0.00  0.00    +0.158 A 
ATOM     24  C   LIG    1      144.962 157.162 148.888  0.00  0.00    +0.159 A 
ATOM     29  C   LIG    1      145.989 157.812 149.571  0.00  0.00    +0.060 A 
BRANCH  24  25
ATOM     25  O   LIG    1      143.665 157.425 149.216  0.00  0.00    -0.503 OA
ATOM     26  H   LIG    1      143.387 156.790 149.897  0.00  0.00    +0.292 HD
ENDBRANCH  24  25
BRANCH  23  27
ATOM     27  O   LIG    1      144.269 155.606 147.205  0.00  0.00    -0.503 OA
ATOM     28  H   LIG    1      143.788 156.252 146.660  0.00  0.00    +0.292 HD
ENDBRANCH  23  27
ENDBRANCH  19  20
BRANCH  15  33
ATOM     33  O   LIG    1      151.713 161.005 152.636  0.00  0.00    -0.506 OA
ATOM     34  H   LIG    1      151.592 161.813 152.115  0.00  0.00    +0.292 HD
ENDBRANCH  15  33
BRANCH  13  12
ATOM     12  O   LIG    1      154.347 157.640 150.557  0.00  0.00    -0.461 OA
BRANCH  12   2
ATOM      1  O   LIG    1      153.344 155.534 150.599  0.00  0.00    -0.331 OA
ATOM      2  C   LIG    1      154.499 156.282 150.969  0.00  0.00    +0.339 C 
ATOM      3  C   LIG    1      154.684 156.269 152.486  0.00  0.00    +0.214 C 
ATOM      4  C   LIG    1      154.705 154.840 153.032  0.00  0.00    +0.180 C 
ATOM      5  C   LIG    1      153.536 154.022 152.484  0.00  0.00    +0.177 C 
ATOM     36  C   LIG    1      153.444 154.156 150.962  0.00  0.00    +0.179 C 
BRANCH   5   6
ATOM      6  O   LIG    1      153.719 152.650 152.827  0.00  0.00    -0.386 OA
ATOM      7  H   LIG    1      154.350 152.607 153.565  0.00  0.00    +0.210 HD
ENDBRANCH   5   6
BRANCH   4   8
ATOM      8  O   LIG    1      154.594 154.873 154.455  0.00  0.00    -0.386 OA
ATOM      9  H   LIG    1      154.600 155.808 154.726  0.00  0.00    +0.210 HD
ENDBRANCH   4   8
BRANCH   3  10
ATOM     10  O   LIG    1      155.922 156.911 152.793  0.00  0.00    -0.383 OA
ATOM     11  H   LIG    1      156.309 156.465 153.565  0.00  0.00    +0.210 HD
ENDBRANCH   3  10
BRANCH  36  37
ATOM     37  C   LIG    1      152.216 153.443 150.406  0.00  0.00    +0.190 C 
BRANCH  37  38
ATOM     38  O   LIG    1      151.315 153.200 151.471  0.00  0.00    -0.392 OA
ATOM     39  H   LIG    1      150.496 153.691 151.283  0.00  0.00    +0.210 HD
ENDBRANCH  37  38
ENDBRANCH  36  37
ENDBRANCH  12   2
ENDBRANCH  13  12
TORSDOF 11
ENDMDL
MODEL 5
REMARK VINA RESULT:      -8.6      2.719      9.646
REMARK  Name = 5280637
REMARK                            x       y       z     vdW  Elec       q    Type
REMARK                         _______ _______ _______ _____ _____    ______ ____
ROOT
ATOM     13  C   LIG    1      148.320 159.065 150.106  0.00  0.00    +0.131 A 
ATOM     14  C   LIG    1      148.594 160.330 150.626  0.00  0.00    +0.092 A 
ATOM     15  C   LIG    1      149.798 160.571 151.288  0.00  0.00    +0.135 A 
ATOM     16  C   LIG    1      150.727 159.537 151.427  0.00  0.00    +0.105 A 
ATOM     17  C   LIG    1      152.004 159.760 152.121  0.00  0.00    +0.197 A 
ATOM     18  C   LIG    1      152.911 158.597 152.207  0.00  0.00    +0.098 A 
ATOM     19  C   LIG    1      152.538 157.430 151.661  0.00  0.00    +0.139 A 
ATOM     30  O   LIG    1      151.330 157.220 151.014  0.00  0.00    -0.454 OA
ATOM     31  O   LIG    1      152.306 160.843 152.603  0.00  0.00    -0.287 OA
ATOM     32  C   LIG    1      150.455 158.272 150.907  0.00  0.00    +0.146 A 
ATOM     35  C   LIG    1      149.250 158.034 150.246  0.00  0.00    +0.093 A 
ENDROOT
BRANCH  19  20
ATOM     20  C   LIG    1      153.400 156.231 151.724  0.00  0.00    +0.021 A 
ATOM     21  C   LIG    1      153.030 155.066 151.051  0.00  0.00    +0.015 A 
ATOM     22  C   LIG    1      153.843 153.934 151.111  0.00  0.00    +0.050 A 
ATOM     23  C   LIG    1      155.029 153.966 151.845  0.00  0.00    +0.158 A 
ATOM     24  C   LIG    1      155.400 155.129 152.520  0.00  0.00    +0.159 A 
ATOM     29  C   LIG    1      154.587 156.260 152.459  0.00  0.00    +0.060 A 
BRANCH  24  25
ATOM     25  O   LIG    1      156.558 155.171 153.238  0.00  0.00    -0.503 OA
ATOM     26  H   LIG    1      157.110 155.890 152.887  0.00  0.00    +0.292 HD
ENDBRANCH  24  25
BRANCH  23  27
ATOM     27  O   LIG    1      155.814 152.854 151.898  0.00  0.00    -0.503 OA
ATOM     28  H   LIG    1      155.857 152.454 151.012  0.00  0.00    +0.292 HD
ENDBRANCH  23  27
ENDBRANCH  19  20
BRANCH  15  33
ATOM     33  O   LIG    1      150.017 161.823 151.778  0.00  0.00    -0.506 OA
ATOM     34  H   LIG    1      150.689 161.803 152.476  0.00  0.00    +0.292 HD
ENDBRANCH  15  33
BRANCH  13  12
ATOM     12  O   LIG    1      147.141 158.835 149.460  0.00  0.00    -0.461 OA
BRANCH  12   2
ATOM      1  O   LIG    1      147.751 156.780 148.538  0.00  0.00    -0.331 OA
ATOM      2  C   LIG    1      146.760 157.470 149.295  0.00  0.00    +0.339 C 
ATOM      3  C   LIG    1      145.415 157.442 148.569  0.00  0.00    +0.214 C 
ATOM      4  C   LIG    1      145.003 156.012 148.217  0.00  0.00    +0.180 C 
ATOM      5  C   LIG    1      146.150 155.254 147.549  0.00  0.00    +0.177 C 
ATOM     36  C   LIG    1      147.440 155.397 148.358  0.00  0.00    +0.179 C 
BRANCH   5   6
ATOM      6  O   LIG    1      145.807 153.874 147.448  0.00  0.00    -0.386 OA
ATOM      7  H   LIG    1      146.020 153.577 146.547  0.00  0.00    +0.210 HD
ENDBRANCH   5   6
BRANCH   4   8
ATOM      8  O   LIG    1      143.903 156.045 147.305  0.00  0.00    -0.386 OA
ATOM      9  H   LIG    1      143.879 155.186 146.849  0.00  0.00    +0.210 HD
ENDBRANCH   4   8
BRANCH   3  10
ATOM     10  O   LIG    1      144.431 158.021 149.425  0.00  0.00    -0.383 OA
ATOM     11  H   LIG    1      143.733 157.360 149.573  0.00  0.00    +0.210 HD
ENDBRANCH   3  10
BRANCH  36  37
ATOM     37  C   LIG    1      148.625 154.747 147.651  0.00  0.00    +0.190 C 
BRANCH  37  38
ATOM     38  O   LIG    1      148.564 153.349 147.862  0.00  0.00    -0.392 OA
ATOM     39  H   LIG    1      147.850 153.177 148.500  0.00  0.00    +0.210 HD
ENDBRANCH  37  38
ENDBRANCH  36  37
ENDBRANCH  12   2
ENDBRANCH  13  12
TORSDOF 11
ENDMDL
MODEL 6
REMARK VINA RESULT:      -8.6      2.327      5.883
REMARK  Name = 5280637
REMARK                            x       y       z     vdW  Elec       q    Type
REMARK                         _______ _______ _______ _____ _____    ______ ____
ROOT
ATOM     13  C   LIG    1      150.591 154.947 150.165  0.00  0.00    +0.131 A 
ATOM     14  C   LIG    1      149.279 155.213 149.774  0.00  0.00    +0.092 A 
ATOM     15  C   LIG    1      148.773 154.663 148.595  0.00  0.00    +0.135 A 
ATOM     16  C   LIG    1      149.589 153.846 147.810  0.00  0.00    +0.105 A 
ATOM     17  C   LIG    1      149.085 153.253 146.562  0.00  0.00    +0.197 A 
ATOM     18  C   LIG    1      150.034 152.404 145.813  0.00  0.00    +0.098 A 
ATOM     19  C   LIG    1      151.272 152.218 146.296  0.00  0.00    +0.139 A 
ATOM     30  O   LIG    1      151.747 152.784 147.469  0.00  0.00    -0.454 OA
ATOM     31  O   LIG    1      147.947 153.448 146.160  0.00  0.00    -0.287 OA
ATOM     32  C   LIG    1      150.901 153.579 148.200  0.00  0.00    +0.146 A 
ATOM     35  C   LIG    1      151.404 154.130 149.378  0.00  0.00    +0.093 A 
ENDROOT
BRANCH  19  20
ATOM     20  C   LIG    1      152.266 151.386 145.586  0.00  0.00    +0.021 A 
ATOM     21  C   LIG    1      152.772 150.232 146.187  0.00  0.00    +0.015 A 
ATOM     22  C   LIG    1      153.711 149.448 145.517  0.00  0.00    +0.050 A 
ATOM     23  C   LIG    1      154.146 149.816 144.244  0.00  0.00    +0.158 A 
ATOM     24  C   LIG    1      153.643 150.969 143.642  0.00  0.00    +0.159 A 
ATOM     29  C   LIG    1      152.704 151.753 144.312  0.00  0.00    +0.060 A 
BRANCH  24  25
ATOM     25  O   LIG    1      154.060 151.336 142.398  0.00  0.00    -0.503 OA
ATOM     26  H   LIG    1      154.928 150.930 142.233  0.00  0.00    +0.292 HD
ENDBRANCH  24  25
BRANCH  23  27
ATOM     27  O   LIG    1      155.064 149.042 143.601  0.00  0.00    -0.503 OA
ATOM     28  H   LIG    1      154.684 148.730 142.761  0.00  0.00    +0.292 HD
ENDBRANCH  23  27
ENDBRANCH  19  20
BRANCH  15  33
ATOM     33  O   LIG    1      147.485 154.954 148.257  0.00  0.00    -0.506 OA
ATOM     34  H   LIG    1      146.999 154.144 148.040  0.00  0.00    +0.292 HD
ENDBRANCH  15  33
BRANCH  13  12
ATOM     12  O   LIG    1      151.081 155.488 151.318  0.00  0.00    -0.461 OA
BRANCH  12   2
ATOM      1  O   LIG    1      153.272 155.273 152.088  0.00  0.00    -0.331 OA
ATOM      2  C   LIG    1      152.398 156.033 151.257  0.00  0.00    +0.339 C 
ATOM      3  C   LIG    1      152.328 157.483 151.737  0.00  0.00    +0.214 C 
ATOM      4  C   LIG    1      153.724 158.100 151.847  0.00  0.00    +0.180 C 
ATOM      5  C   LIG    1      154.677 157.179 152.609  0.00  0.00    +0.177 C 
ATOM     36  C   LIG    1      154.617 155.755 152.052  0.00  0.00    +0.179 C 
BRANCH   5   6
ATOM      6  O   LIG    1      156.007 157.676 152.491  0.00  0.00    -0.386 OA
ATOM      7  H   LIG    1      156.500 157.078 151.904  0.00  0.00    +0.210 HD
ENDBRANCH   5   6
BRANCH   4   8
ATOM      8  O   LIG    1      153.642 159.337 152.557  0.00  0.00    -0.386 OA
ATOM      9  H   LIG    1      153.020 159.209 153.293  0.00  0.00    +0.210 HD
ENDBRANCH   4   8
BRANCH   3  10
ATOM     10  O   LIG    1      151.554 158.229 150.798  0.00  0.00    -0.383 OA
ATOM     11  H   LIG    1      152.167 158.660 150.177  0.00  0.00    +0.210 HD
ENDBRANCH   3  10
BRANCH  36  37
ATOM     37  C   LIG    1      155.472 154.792 152.872  0.00  0.00    +0.190 C 
BRANCH  37  38
ATOM     38  O   LIG    1      156.833 155.010 152.547  0.00  0.00    -0.392 OA
ATOM     39  H   LIG    1      157.314 154.183 152.721  0.00  0.00    +0.210 HD
ENDBRANCH  37  38
ENDBRANCH  36  37
ENDBRANCH  12   2
ENDBRANCH  13  12
TORSDOF 11
ENDMDL
MODEL 7
REMARK VINA RESULT:      -8.5      2.999      9.075
REMARK  Name = 5280637
REMARK                            x       y       z     vdW  Elec       q    Type
REMARK                         _______ _______ _______ _____ _____    ______ ____
ROOT
ATOM     13  C   LIG    1      152.616 150.566 146.913  0.00  0.00    +0.131 A 
ATOM     14  C   LIG    1      151.251 150.734 146.679  0.00  0.00    +0.092 A 
ATOM     15  C   LIG    1      150.560 151.785 147.284  0.00  0.00    +0.135 A 
ATOM     16  C   LIG    1      151.244 152.666 148.123  0.00  0.00    +0.105 A 
ATOM     17  C   LIG    1      150.542 153.782 148.776  0.00  0.00    +0.197 A 
ATOM     18  C   LIG    1      151.364 154.653 149.641  0.00  0.00    +0.098 A 
ATOM     19  C   LIG    1      152.673 154.392 149.783  0.00  0.00    +0.139 A 
ATOM     30  O   LIG    1      153.330 153.335 149.173  0.00  0.00    -0.454 OA
ATOM     31  O   LIG    1      149.347 153.985 148.617  0.00  0.00    -0.287 OA
ATOM     32  C   LIG    1      152.608 152.500 148.358  0.00  0.00    +0.146 A 
ATOM     35  C   LIG    1      153.296 151.448 147.753  0.00  0.00    +0.093 A 
ENDROOT
BRANCH  19  20
ATOM     20  C   LIG    1      153.542 155.223 150.642  0.00  0.00    +0.021 A 
ATOM     21  C   LIG    1      153.187 156.542 150.931  0.00  0.00    +0.015 A 
ATOM     22  C   LIG    1      154.008 157.327 151.741  0.00  0.00    +0.050 A 
ATOM     23  C   LIG    1      155.186 156.794 152.264  0.00  0.00    +0.158 A 
ATOM     24  C   LIG    1      155.544 155.477 151.976  0.00  0.00    +0.159 A 
ATOM     29  C   LIG    1      154.723 154.692 151.166  0.00  0.00    +0.060 A 
BRANCH  24  25
ATOM     25  O   LIG    1      156.692 154.946 152.484  0.00  0.00    -0.503 OA
ATOM     26  H   LIG    1      157.443 155.301 151.979  0.00  0.00    +0.292 HD
ENDBRANCH  24  25
BRANCH  23  27
ATOM     27  O   LIG    1      155.980 157.570 153.053  0.00  0.00    -0.503 OA
ATOM     28  H   LIG    1      155.763 157.401 153.986  0.00  0.00    +0.292 HD
ENDBRANCH  23  27
ENDBRANCH  19  20
BRANCH  15  33
ATOM     33  O   LIG    1      149.228 151.905 147.023  0.00  0.00    -0.506 OA
ATOM     34  H   LIG    1      149.081 152.106 146.087  0.00  0.00    +0.292 HD
ENDBRANCH  15  33
BRANCH  13  12
ATOM     12  O   LIG    1      153.287 149.536 146.321  0.00  0.00    -0.461 OA
BRANCH  12   2
ATOM      1  O   LIG    1      152.045 147.925 145.178  0.00  0.00    -0.331 OA
ATOM      2  C   LIG    1      152.813 149.119 145.041  0.00  0.00    +0.339 C 
ATOM      3  C   LIG    1      154.029 148.874 144.147  0.00  0.00    +0.214 C 
ATOM      4  C   LIG    1      153.618 148.278 142.800  0.00  0.00    +0.180 C 
ATOM      5  C   LIG    1      152.664 147.098 142.985  0.00  0.00    +0.177 C 
ATOM     36  C   LIG    1      151.519 147.467 143.931  0.00  0.00    +0.179 C 
BRANCH   5   6
ATOM      6  O   LIG    1      152.128 146.721 141.719  0.00  0.00    -0.386 OA
ATOM      7  H   LIG    1      152.461 147.348 141.054  0.00  0.00    +0.210 HD
ENDBRANCH   5   6
BRANCH   4   8
ATOM      8  O   LIG    1      154.779 147.806 142.115  0.00  0.00    -0.386 OA
ATOM      9  H   LIG    1      155.294 148.587 141.845  0.00  0.00    +0.210 HD
ENDBRANCH   4   8
BRANCH   3  10
ATOM     10  O   LIG    1      154.685 150.123 143.931  0.00  0.00    -0.383 OA
ATOM     11  H   LIG    1      155.623 150.016 144.165  0.00  0.00    +0.210 HD
ENDBRANCH   3  10
BRANCH  36  37
ATOM     37  C   LIG    1      150.620 146.269 144.223  0.00  0.00    +0.190 C 
BRANCH  37  38
ATOM     38  O   LIG    1      149.648 146.175 143.199  0.00  0.00    -0.392 OA
ATOM     39  H   LIG    1      148.877 145.708 143.564  0.00  0.00    +0.210 HD
ENDBRANCH  37  38
ENDBRANCH  36  37
ENDBRANCH  12   2
ENDBRANCH  13  12
TORSDOF 11
ENDMDL
MODEL 8
REMARK VINA RESULT:      -8.5      3.579      5.730
REMARK  Name = 5280637
REMARK                            x       y       z     vdW  Elec       q    Type
REMARK                         _______ _______ _______ _____ _____    ______ ____
ROOT
ATOM     13  C   LIG    1      151.865 153.284 146.691  0.00  0.00    +0.131 A 
ATOM     14  C   LIG    1      153.129 153.365 146.108  0.00  0.00    +0.092 A 
ATOM     15  C   LIG    1      153.408 152.659 144.937  0.00  0.00    +0.135 A 
ATOM     16  C   LIG    1      152.412 151.872 144.353  0.00  0.00    +0.105 A 
ATOM     17  C   LIG    1      152.675 151.116 143.120  0.00  0.00    +0.197 A 
ATOM     18  C   LIG    1      151.550 150.319 142.590  0.00  0.00    +0.098 A 
ATOM     19  C   LIG    1      150.375 150.326 143.240  0.00  0.00    +0.139 A 
ATOM     30  O   LIG    1      150.132 151.034 144.407  0.00  0.00    -0.454 OA
ATOM     31  O   LIG    1      153.762 151.139 142.559  0.00  0.00    -0.287 OA
ATOM     32  C   LIG    1      151.147 151.791 144.936  0.00  0.00    +0.146 A 
ATOM     35  C   LIG    1      150.872 152.497 146.106  0.00  0.00    +0.093 A 
ENDROOT
BRANCH  19  20
ATOM     20  C   LIG    1      149.218 149.542 142.762  0.00  0.00    +0.021 A 
ATOM     21  C   LIG    1      149.405 148.255 142.254  0.00  0.00    +0.015 A 
ATOM     22  C   LIG    1      148.313 147.515 141.801  0.00  0.00    +0.050 A 
ATOM     23  C   LIG    1      147.030 148.060 141.857  0.00  0.00    +0.158 A 
ATOM     24  C   LIG    1      146.840 149.346 142.363  0.00  0.00    +0.159 A 
ATOM     29  C   LIG    1      147.933 150.086 142.816  0.00  0.00    +0.060 A 
BRANCH  24  25
ATOM     25  O   LIG    1      145.591 149.888 142.424  0.00  0.00    -0.503 OA
ATOM     26  H   LIG    1      145.063 149.519 141.695  0.00  0.00    +0.292 HD
ENDBRANCH  24  25
BRANCH  23  27
ATOM     27  O   LIG    1      145.971 147.328 141.411  0.00  0.00    -0.503 OA
ATOM     28  H   LIG    1      145.726 146.678 142.092  0.00  0.00    +0.292 HD
ENDBRANCH  23  27
ENDBRANCH  19  20
BRANCH  15  33
ATOM     33  O   LIG    1      154.658 152.770 144.407  0.00  0.00    -0.506 OA
ATOM     34  H   LIG    1      155.329 152.531 145.063  0.00  0.00    +0.292 HD
ENDBRANCH  15  33
BRANCH  13  12
ATOM     12  O   LIG    1      151.598 153.975 147.837  0.00  0.00    -0.461 OA
BRANCH  12   2
ATOM      1  O   LIG    1      152.380 152.955 149.784  0.00  0.00    -0.331 OA
ATOM      2  C   LIG    1      152.623 153.985 148.830  0.00  0.00    +0.339 C 
ATOM      3  C   LIG    1      152.609 155.356 149.506  0.00  0.00    +0.214 C 
ATOM      4  C   LIG    1      153.578 155.404 150.688  0.00  0.00    +0.180 C 
ATOM      5  C   LIG    1      153.393 154.194 151.604  0.00  0.00    +0.177 C 
ATOM     36  C   LIG    1      153.388 152.895 150.795  0.00  0.00    +0.179 C 
BRANCH   5   6
ATOM      6  O   LIG    1      154.456 154.154 152.553  0.00  0.00    -0.386 OA
ATOM      7  H   LIG    1      155.180 153.630 152.170  0.00  0.00    +0.210 HD
ENDBRANCH   5   6
BRANCH   4   8
ATOM      8  O   LIG    1      153.334 156.583 151.456  0.00  0.00    -0.386 OA
ATOM      9  H   LIG    1      152.441 156.897 151.231  0.00  0.00    +0.210 HD
ENDBRANCH   4   8
BRANCH   3  10
ATOM     10  O   LIG    1      152.991 156.336 148.541  0.00  0.00    -0.383 OA
ATOM     11  H   LIG    1      152.181 156.733 148.177  0.00  0.00    +0.210 HD
ENDBRANCH   3  10
BRANCH  36  37
ATOM     37  C   LIG    1      153.087 151.684 151.673  0.00  0.00    +0.190 C 
BRANCH  37  38
ATOM     38  O   LIG    1      154.298 151.239 152.255  0.00  0.00    -0.392 OA
ATOM     39  H   LIG    1      154.838 150.842 151.549  0.00  0.00    +0.210 HD
ENDBRANCH  37  38
ENDBRANCH  36  37
ENDBRANCH  12   2
ENDBRANCH  13  12
TORSDOF 11
ENDMDL
MODEL 9
REMARK VINA RESULT:      -8.5      3.609      5.822
REMARK  Name = 5280637
REMARK                            x       y       z     vdW  Elec       q    Type
REMARK                         _______ _______ _______ _____ _____    ______ ____
ROOT
ATOM     13  C   LIG    1      152.286 151.604 147.467  0.00  0.00    +0.131 A 
ATOM     14  C   LIG    1      153.448 151.982 146.795  0.00  0.00    +0.092 A 
ATOM     15  C   LIG    1      153.553 151.795 145.416  0.00  0.00    +0.135 A 
ATOM     16  C   LIG    1      152.487 151.227 144.715  0.00  0.00    +0.105 A 
ATOM     17  C   LIG    1      152.569 151.016 143.262  0.00  0.00    +0.197 A 
ATOM     18  C   LIG    1      151.383 150.410 142.623  0.00  0.00    +0.098 A 
ATOM     19  C   LIG    1      150.319 150.094 143.377  0.00  0.00    +0.139 A 
ATOM     30  O   LIG    1      150.247 150.287 144.748  0.00  0.00    -0.454 OA
ATOM     31  O   LIG    1      153.559 151.321 142.612  0.00  0.00    -0.287 OA
ATOM     32  C   LIG    1      151.325 150.849 145.386  0.00  0.00    +0.146 A 
ATOM     35  C   LIG    1      151.223 151.036 146.764  0.00  0.00    +0.093 A 
ENDROOT
BRANCH  19  20
ATOM     20  C   LIG    1      149.108 149.478 142.795  0.00  0.00    +0.021 A 
ATOM     21  C   LIG    1      147.850 150.028 143.048  0.00  0.00    +0.015 A 
ATOM     22  C   LIG    1      146.708 149.446 142.499  0.00  0.00    +0.050 A 
ATOM     23  C   LIG    1      146.821 148.312 141.695  0.00  0.00    +0.158 A 
ATOM     24  C   LIG    1      148.077 147.760 141.441  0.00  0.00    +0.159 A 
ATOM     29  C   LIG    1      149.219 148.342 141.990  0.00  0.00    +0.060 A 
BRANCH  24  25
ATOM     25  O   LIG    1      148.198 146.653 140.655  0.00  0.00    -0.503 OA
ATOM     26  H   LIG    1      149.074 146.261 140.811  0.00  0.00    +0.292 HD
ENDBRANCH  24  25
BRANCH  23  27
ATOM     27  O   LIG    1      145.698 147.752 141.165  0.00  0.00    -0.503 OA
ATOM     28  H   LIG    1      145.537 148.135 140.286  0.00  0.00    +0.292 HD
ENDBRANCH  23  27
ENDBRANCH  19  20
BRANCH  15  33
ATOM     33  O   LIG    1      154.709 152.180 144.807  0.00  0.00    -0.506 OA
ATOM     34  H   LIG    1      155.219 151.406 144.523  0.00  0.00    +0.292 HD
ENDBRANCH  15  33
BRANCH  13  12
ATOM     12  O   LIG    1      152.189 151.788 148.816  0.00  0.00    -0.461 OA
BRANCH  12   2
ATOM      1  O   LIG    1      153.655 153.115 150.054  0.00  0.00    -0.331 OA
ATOM      2  C   LIG    1      152.446 153.106 149.300  0.00  0.00    +0.339 C 
ATOM      3  C   LIG    1      151.264 153.523 150.175  0.00  0.00    +0.214 C 
ATOM      4  C   LIG    1      151.525 154.866 150.859  0.00  0.00    +0.180 C 
ATOM      5  C   LIG    1      152.902 154.891 151.521  0.00  0.00    +0.177 C 
ATOM     36  C   LIG    1      153.983 154.415 150.548  0.00  0.00    +0.179 C 
BRANCH   5   6
ATOM      6  O   LIG    1      153.199 156.221 151.942  0.00  0.00    -0.386 OA
ATOM      7  H   LIG    1      152.688 156.832 151.384  0.00  0.00    +0.210 HD
ENDBRANCH   5   6
BRANCH   4   8
ATOM      8  O   LIG    1      150.542 155.083 151.872  0.00  0.00    -0.386 OA
ATOM      9  H   LIG    1      150.059 155.895 151.639  0.00  0.00    +0.210 HD
ENDBRANCH   4   8
BRANCH   3  10
ATOM     10  O   LIG    1      150.107 153.631 149.346  0.00  0.00    -0.383 OA
ATOM     11  H   LIG    1      149.511 154.288 149.744  0.00  0.00    +0.210 HD
ENDBRANCH   3  10
BRANCH  36  37
ATOM     37  C   LIG    1      155.348 154.320 151.223  0.00  0.00    +0.190 C 
BRANCH  37  38
ATOM     38  O   LIG    1      155.498 153.016 151.753  0.00  0.00    -0.392 OA
ATOM     39  H   LIG    1      154.705 152.818 152.280  0.00  0.00    +0.210 HD
ENDBRANCH  37  38
ENDBRANCH  36  37
ENDBRANCH  12   2
ENDBRANCH  13  12
TORSDOF 11
ENDMDL
MODEL 10
REMARK VINA RESULT:      -8.4      6.788     10.913
REMARK  Name = 5280637
REMARK                            x       y       z     vdW  Elec       q    Type
REMARK                         _______ _______ _______ _____ _____    ______ ____
ROOT
ATOM     13  C   LIG    1      150.401 149.441 142.641  0.00  0.00    +0.131 A 
ATOM     14  C   LIG    1      149.008 149.481 142.592  0.00  0.00    +0.092 A 
ATOM     15  C   LIG    1      148.277 148.302 142.449  0.00  0.00    +0.135 A 
ATOM     16  C   LIG    1      148.949 147.081 142.356  0.00  0.00    +0.105 A 
ATOM     17  C   LIG    1      148.206 145.821 142.204  0.00  0.00    +0.197 A 
ATOM     18  C   LIG    1      149.019 144.591 142.117  0.00  0.00    +0.098 A 
ATOM     19  C   LIG    1      150.357 144.680 142.183  0.00  0.00    +0.139 A 
ATOM     30  O   LIG    1      151.055 145.870 142.318  0.00  0.00    -0.454 OA
ATOM     31  O   LIG    1      146.985 145.785 142.151  0.00  0.00    -0.287 OA
ATOM     32  C   LIG    1      150.342 147.039 142.406  0.00  0.00    +0.146 A 
ATOM     35  C   LIG    1      151.071 148.220 142.547  0.00  0.00    +0.093 A 
ENDROOT
BRANCH  19  20
ATOM     20  C   LIG    1      151.220 143.484 142.093  0.00  0.00    +0.021 A 
ATOM     21  C   LIG    1      152.204 143.257 143.057  0.00  0.00    +0.015 A 
ATOM     22  C   LIG    1      153.021 142.129 142.971  0.00  0.00    +0.050 A 
ATOM     23  C   LIG    1      152.854 141.225 141.922  0.00  0.00    +0.158 A 
ATOM     24  C   LIG    1      151.872 141.451 140.957  0.00  0.00    +0.159 A 
ATOM     29  C   LIG    1      151.056 142.579 141.042  0.00  0.00    +0.060 A 
BRANCH  24  25
ATOM     25  O   LIG    1      151.700 140.574 139.928  0.00  0.00    -0.503 OA
ATOM     26  H   LIG    1      152.512 140.046 139.837  0.00  0.00    +0.292 HD
ENDBRANCH  24  25
BRANCH  23  27
ATOM     27  O   LIG    1      153.658 140.128 141.848  0.00  0.00    -0.503 OA
ATOM     28  H   LIG    1      153.373 139.481 142.516  0.00  0.00    +0.292 HD
ENDBRANCH  23  27
ENDBRANCH  19  20
BRANCH  15  33
ATOM     33  O   LIG    1      146.918 148.395 142.406  0.00  0.00    -0.506 OA
ATOM     34  H   LIG    1      146.601 148.320 141.494  0.00  0.00    +0.292 HD
ENDBRANCH  15  33
BRANCH  13  12
ATOM     12  O   LIG    1      151.112 150.597 142.779  0.00  0.00    -0.461 OA
BRANCH  12   2
ATOM      1  O   LIG    1      151.276 151.051 145.062  0.00  0.00    -0.331 OA
ATOM      2  C   LIG    1      151.999 150.671 143.894  0.00  0.00    +0.339 C 
ATOM      3  C   LIG    1      153.076 151.707 143.569  0.00  0.00    +0.214 C 
ATOM      4  C   LIG    1      153.986 151.960 144.772  0.00  0.00    +0.180 C 
ATOM      5  C   LIG    1      153.169 152.205 146.041  0.00  0.00    +0.177 C 
ATOM     36  C   LIG    1      152.107 151.119 146.223  0.00  0.00    +0.179 C 
BRANCH   5   6
ATOM      6  O   LIG    1      154.040 152.206 147.170  0.00  0.00    -0.386 OA
ATOM      7  H   LIG    1      154.456 151.329 147.228  0.00  0.00    +0.210 HD
ENDBRANCH   5   6
BRANCH   4   8
ATOM      8  O   LIG    1      154.785 153.118 144.529  0.00  0.00    -0.386 OA
ATOM      9  H   LIG    1      155.598 152.821 144.084  0.00  0.00    +0.210 HD
ENDBRANCH   4   8
BRANCH   3  10
ATOM     10  O   LIG    1      153.857 151.216 142.480  0.00  0.00    -0.383 OA
ATOM     11  H   LIG    1      154.332 150.423 142.784  0.00  0.00    +0.210 HD
ENDBRANCH   3  10
BRANCH  36  37
ATOM     37  C   LIG    1      151.204 151.407 147.418  0.00  0.00    +0.190 C 
BRANCH  37  38
ATOM     38  O   LIG    1      149.953 150.781 147.199  0.00  0.00    -0.392 OA
ATOM     39  H   LIG    1      149.395 151.402 146.701  0.00  0.00    +0.210 HD
ENDBRANCH  37  38
ENDBRANCH  36  37
ENDBRANCH  12   2
ENDBRANCH  13  12
TORSDOF 11
ENDMDL
