MODEL 1
REMARK VINA RESULT:    -8.787      0.000      0.000
REMARK INTER + INTRA:         -10.792
REMARK INTER:                 -10.432
REMARK INTRA:                  -0.360
REMARK UNBOUND:                -0.206
REMARK  6 active torsions:
REMARK  status: ('A' for Active; 'I' for Inactive)
REMARK    1  A    between atoms: O_2  and  C_9 
REMARK    2  A    between atoms: O_4  and  C_14 
REMARK    3  A    between atoms: O_5  and  C_19 
REMARK    4  A    between atoms: O_6  and  C_20 
REMARK    5  A    between atoms: O_7  and  C_22 
REMARK    6  A    between atoms: C_8  and  C_10 
ROOT
HETATM    1  O   UNK     0       4.493  44.021  22.838  0.00  0.00    -0.337 OA
HETATM    2  O   UNK     0       2.057  41.318  20.939  0.00  0.00    -0.289 OA
HETATM    3  C   UNK     0       4.679  43.696  21.451  0.00  0.00     0.198 C 
HETATM    4  C   UNK     0       3.349  43.351  20.780  0.00  0.00     0.227 C 
HETATM    5  C   UNK     0       2.731  42.174  21.501  0.00  0.00     0.196 C 
HETATM    6  C   UNK     0       2.957  42.130  22.959  0.00  0.00     0.079 A 
HETATM    7  C   UNK     0       3.812  43.066  23.545  0.00  0.00     0.089 A 
HETATM    8  C   UNK     0       2.301  41.181  23.749  0.00  0.00     0.085 A 
HETATM    9  C   UNK     0       3.984  43.075  24.930  0.00  0.00     0.074 A 
HETATM   10  C   UNK     0       2.492  41.183  25.130  0.00  0.00     0.074 A 
HETATM   11  C   UNK     0       3.328  42.131  25.721  0.00  0.00     0.071 A 
ENDROOT
BRANCH   3  12
HETATM   12  C   UNK     0       5.347  44.890  20.796  0.00  0.00    -0.023 A 
HETATM   13  C   UNK     0       6.560  44.727  20.131  0.00  0.00     0.049 A 
HETATM   14  C   UNK     0       7.176  45.824  19.528  0.00  0.00     0.099 A 
HETATM   15  C   UNK     0       6.577  47.082  19.593  0.00  0.00     0.098 A 
HETATM   16  C   UNK     0       5.361  47.243  20.259  0.00  0.00     0.040 A 
HETATM   17  C   UNK     0       4.747  46.146  20.862  0.00  0.00     0.013 A 
BRANCH  14  18
HETATM   18  O   UNK     0       8.361  45.655  18.879  0.00  0.00    -0.358 OA
HETATM   19  H   UNK     0       9.076  45.671  19.539  0.00  0.00     0.217 HD
ENDBRANCH  14  18
BRANCH  15  20
HETATM   20  O   UNK     0       7.167  48.161  19.007  0.00  0.00    -0.358 OA
HETATM   21  H   UNK     0       7.950  48.414  19.526  0.00  0.00     0.217 HD
ENDBRANCH  15  20
ENDBRANCH   3  12
BRANCH   4  22
HETATM   22  O   UNK     0       3.565  42.977  19.430  0.00  0.00    -0.385 OA
HETATM   23  H   UNK     0       4.399  43.386  19.142  0.00  0.00     0.210 HD
ENDBRANCH   4  22
BRANCH   8  24
HETATM   24  O   UNK     0       1.460  40.244  23.228  0.00  0.00    -0.360 OA
HETATM   25  H   UNK     0       1.555  39.401  23.696  0.00  0.00     0.217 HD
ENDBRANCH   8  24
BRANCH  11  26
HETATM   26  O   UNK     0       3.504  42.134  27.071  0.00  0.00    -0.361 OA
HETATM   27  H   UNK     0       4.082  42.879  27.312  0.00  0.00     0.217 HD
ENDBRANCH  11  26
TORSDOF 6
ENDMDL
MODEL 2
REMARK VINA RESULT:    -7.814      1.373      3.264
REMARK INTER + INTRA:          -9.619
REMARK INTER:                  -9.254
REMARK INTRA:                  -0.365
REMARK UNBOUND:                -0.206
REMARK  6 active torsions:
REMARK  status: ('A' for Active; 'I' for Inactive)
REMARK    1  A    between atoms: O_2  and  C_9 
REMARK    2  A    between atoms: O_4  and  C_14 
REMARK    3  A    between atoms: O_5  and  C_19 
REMARK    4  A    between atoms: O_6  and  C_20 
REMARK    5  A    between atoms: O_7  and  C_22 
REMARK    6  A    between atoms: C_8  and  C_10 
ROOT
HETATM    1  O   UNK     0       4.092  43.044  22.294  0.00  0.00    -0.337 OA
HETATM    2  O   UNK     0       4.730  43.536  26.318  0.00  0.00    -0.289 OA
HETATM    3  C   UNK     0       4.572  44.289  22.826  0.00  0.00     0.198 C 
HETATM    4  C   UNK     0       5.432  44.065  24.070  0.00  0.00     0.227 C 
HETATM    5  C   UNK     0       4.601  43.351  25.114  0.00  0.00     0.196 C 
HETATM    6  C   UNK     0       3.630  42.370  24.592  0.00  0.00     0.079 A 
HETATM    7  C   UNK     0       3.444  42.262  23.212  0.00  0.00     0.089 A 
HETATM    8  C   UNK     0       2.926  41.537  25.467  0.00  0.00     0.085 A 
HETATM    9  C   UNK     0       2.576  41.294  22.705  0.00  0.00     0.074 A 
HETATM   10  C   UNK     0       2.046  40.585  24.954  0.00  0.00     0.074 A 
HETATM   11  C   UNK     0       1.874  40.459  23.576  0.00  0.00     0.071 A 
ENDROOT
BRANCH   3  12
HETATM   12  C   UNK     0       5.349  44.979  21.721  0.00  0.00    -0.023 A 
HETATM   13  C   UNK     0       4.919  46.212  21.236  0.00  0.00     0.049 A 
HETATM   14  C   UNK     0       5.633  46.848  20.220  0.00  0.00     0.099 A 
HETATM   15  C   UNK     0       6.775  46.249  19.691  0.00  0.00     0.098 A 
HETATM   16  C   UNK     0       7.205  45.014  20.179  0.00  0.00     0.040 A 
HETATM   17  C   UNK     0       6.491  44.379  21.194  0.00  0.00     0.013 A 
BRANCH  14  18
HETATM   18  O   UNK     0       5.204  48.054  19.753  0.00  0.00    -0.358 OA
HETATM   19  H   UNK     0       4.650  48.467  20.437  0.00  0.00     0.217 HD
ENDBRANCH  14  18
BRANCH  15  20
HETATM   20  O   UNK     0       7.482  46.860  18.699  0.00  0.00    -0.358 OA
HETATM   21  H   UNK     0       6.898  47.000  17.934  0.00  0.00     0.217 HD
ENDBRANCH  15  20
ENDBRANCH   3  12
BRANCH   4  22
HETATM   22  O   UNK     0       5.844  45.309  24.610  0.00  0.00    -0.385 OA
HETATM   23  H   UNK     0       5.335  46.006  24.163  0.00  0.00     0.210 HD
ENDBRANCH   4  22
BRANCH   8  24
HETATM   24  O   UNK     0       3.068  41.603  26.820  0.00  0.00    -0.360 OA
HETATM   25  H   UNK     0       3.193  42.520  27.107  0.00  0.00     0.217 HD
ENDBRANCH   8  24
BRANCH  11  26
HETATM   26  O   UNK     0       1.020  39.523  23.079  0.00  0.00    -0.361 OA
HETATM   27  H   UNK     0       1.006  38.758  23.680  0.00  0.00     0.217 HD
ENDBRANCH  11  26
TORSDOF 6
ENDMDL
MODEL 3
REMARK VINA RESULT:    -7.653      1.345      3.001
REMARK INTER + INTRA:          -9.426
REMARK INTER:                  -9.106
REMARK INTRA:                  -0.320
REMARK UNBOUND:                -0.206
REMARK  6 active torsions:
REMARK  status: ('A' for Active; 'I' for Inactive)
REMARK    1  A    between atoms: O_2  and  C_9 
REMARK    2  A    between atoms: O_4  and  C_14 
REMARK    3  A    between atoms: O_5  and  C_19 
REMARK    4  A    between atoms: O_6  and  C_20 
REMARK    5  A    between atoms: O_7  and  C_22 
REMARK    6  A    between atoms: C_8  and  C_10 
ROOT
HETATM    1  O   UNK     0       4.149  43.151  22.263  0.00  0.00    -0.337 OA
HETATM    2  O   UNK     0       4.816  43.467  26.300  0.00  0.00    -0.289 OA
HETATM    3  C   UNK     0       4.615  44.377  22.847  0.00  0.00     0.198 C 
HETATM    4  C   UNK     0       5.490  44.109  24.073  0.00  0.00     0.227 C 
HETATM    5  C   UNK     0       4.679  43.335  25.089  0.00  0.00     0.196 C 
HETATM    6  C   UNK     0       3.718  42.364  24.531  0.00  0.00     0.079 A 
HETATM    7  C   UNK     0       3.521  42.317  23.149  0.00  0.00     0.089 A 
HETATM    8  C   UNK     0       3.035  41.482  25.372  0.00  0.00     0.085 A 
HETATM    9  C   UNK     0       2.663  41.360  22.605  0.00  0.00     0.074 A 
HETATM   10  C   UNK     0       2.164  40.540  24.824  0.00  0.00     0.074 A 
HETATM   11  C   UNK     0       1.982  40.476  23.442  0.00  0.00     0.071 A 
ENDROOT
BRANCH   3  12
HETATM   12  C   UNK     0       5.372  45.129  21.769  0.00  0.00    -0.023 A 
HETATM   13  C   UNK     0       6.655  44.722  21.410  0.00  0.00     0.049 A 
HETATM   14  C   UNK     0       7.352  45.414  20.418  0.00  0.00     0.099 A 
HETATM   15  C   UNK     0       6.764  46.511  19.790  0.00  0.00     0.098 A 
HETATM   16  C   UNK     0       5.479  46.917  20.151  0.00  0.00     0.040 A 
HETATM   17  C   UNK     0       4.783  46.225  21.142  0.00  0.00     0.013 A 
BRANCH  14  18
HETATM   18  O   UNK     0       8.605  45.009  20.073  0.00  0.00    -0.358 OA
HETATM   19  H   UNK     0       8.990  44.529  20.827  0.00  0.00     0.217 HD
ENDBRANCH  14  18
BRANCH  15  20
HETATM   20  O   UNK     0       7.434  47.195  18.819  0.00  0.00    -0.358 OA
HETATM   21  H   UNK     0       8.384  47.000  18.893  0.00  0.00     0.217 HD
ENDBRANCH  15  20
ENDBRANCH   3  12
BRANCH   4  22
HETATM   22  O   UNK     0       5.888  45.334  24.666  0.00  0.00    -0.385 OA
HETATM   23  H   UNK     0       5.663  46.047  24.045  0.00  0.00     0.210 HD
ENDBRANCH   4  22
BRANCH   8  24
HETATM   24  O   UNK     0       3.188  41.487  26.726  0.00  0.00    -0.360 OA
HETATM   25  H   UNK     0       4.008  41.938  26.976  0.00  0.00     0.217 HD
ENDBRANCH   8  24
BRANCH  11  26
HETATM   26  O   UNK     0       1.138  39.550  22.910  0.00  0.00    -0.361 OA
HETATM   27  H   UNK     0       0.905  38.902  23.598  0.00  0.00     0.217 HD
ENDBRANCH  11  26
TORSDOF 6
ENDMDL
MODEL 4
REMARK VINA RESULT:    -7.357      2.580      6.915
REMARK INTER + INTRA:          -9.069
REMARK INTER:                  -8.980
REMARK INTRA:                  -0.089
REMARK UNBOUND:                -0.206
REMARK  6 active torsions:
REMARK  status: ('A' for Active; 'I' for Inactive)
REMARK    1  A    between atoms: O_2  and  C_9 
REMARK    2  A    between atoms: O_4  and  C_14 
REMARK    3  A    between atoms: O_5  and  C_19 
REMARK    4  A    between atoms: O_6  and  C_20 
REMARK    5  A    between atoms: O_7  and  C_22 
REMARK    6  A    between atoms: C_8  and  C_10 
ROOT
HETATM    1  O   UNK     0       7.164  43.267  20.684  0.00  0.00    -0.337 OA
HETATM    2  O   UNK     0       7.797  45.548  17.331  0.00  0.00    -0.289 OA
HETATM    3  C   UNK     0       6.197  44.235  20.247  0.00  0.00     0.198 C 
HETATM    4  C   UNK     0       6.208  44.382  18.725  0.00  0.00     0.227 C 
HETATM    5  C   UNK     0       7.592  44.811  18.288  0.00  0.00     0.196 C 
HETATM    6  C   UNK     0       8.710  44.251  19.073  0.00  0.00     0.079 A 
HETATM    7  C   UNK     0       8.430  43.498  20.216  0.00  0.00     0.089 A 
HETATM    8  C   UNK     0      10.031  44.447  18.662  0.00  0.00     0.085 A 
HETATM    9  C   UNK     0       9.476  42.910  20.930  0.00  0.00     0.074 A 
HETATM   10  C   UNK     0      11.072  43.873  19.391  0.00  0.00     0.074 A 
HETATM   11  C   UNK     0      10.796  43.102  20.519  0.00  0.00     0.071 A 
ENDROOT
BRANCH   3  12
HETATM   12  C   UNK     0       4.844  43.779  20.759  0.00  0.00    -0.023 A 
HETATM   13  C   UNK     0       3.966  43.117  19.903  0.00  0.00     0.049 A 
HETATM   14  C   UNK     0       2.720  42.698  20.373  0.00  0.00     0.099 A 
HETATM   15  C   UNK     0       2.356  42.943  21.696  0.00  0.00     0.098 A 
HETATM   16  C   UNK     0       3.237  43.606  22.551  0.00  0.00     0.040 A 
HETATM   17  C   UNK     0       4.481  44.025  22.082  0.00  0.00     0.013 A 
BRANCH  14  18
HETATM   18  O   UNK     0       1.869  42.051  19.529  0.00  0.00    -0.358 OA
HETATM   19  H   UNK     0       1.358  42.718  19.039  0.00  0.00     0.217 HD
ENDBRANCH  14  18
BRANCH  15  20
HETATM   20  O   UNK     0       1.143  42.538  22.167  0.00  0.00    -0.358 OA
HETATM   21  H   UNK     0       0.451  43.107  21.789  0.00  0.00     0.217 HD
ENDBRANCH  15  20
ENDBRANCH   3  12
BRANCH   4  22
HETATM   22  O   UNK     0       5.289  45.384  18.324  0.00  0.00    -0.385 OA
HETATM   23  H   UNK     0       4.427  44.954  18.191  0.00  0.00     0.210 HD
ENDBRANCH   4  22
BRANCH   8  24
HETATM   24  O   UNK     0      10.358  45.175  17.558  0.00  0.00    -0.360 OA
HETATM   25  H   UNK     0       9.717  45.887  17.415  0.00  0.00     0.217 HD
ENDBRANCH   8  24
BRANCH  11  26
HETATM   26  O   UNK     0      11.815  42.537  21.223  0.00  0.00    -0.361 OA
HETATM   27  H   UNK     0      12.022  43.101  21.988  0.00  0.00     0.217 HD
ENDBRANCH  11  26
TORSDOF 6
ENDMDL
MODEL 5
REMARK VINA RESULT:    -7.351      2.776      4.818
REMARK INTER + INTRA:          -9.062
REMARK INTER:                  -8.908
REMARK INTRA:                  -0.154
REMARK UNBOUND:                -0.206
REMARK  6 active torsions:
REMARK  status: ('A' for Active; 'I' for Inactive)
REMARK    1  A    between atoms: O_2  and  C_9 
REMARK    2  A    between atoms: O_4  and  C_14 
REMARK    3  A    between atoms: O_5  and  C_19 
REMARK    4  A    between atoms: O_6  and  C_20 
REMARK    5  A    between atoms: O_7  and  C_22 
REMARK    6  A    between atoms: C_8  and  C_10 
ROOT
HETATM    1  O   UNK     0       7.099  43.181  20.447  0.00  0.00    -0.337 OA
HETATM    2  O   UNK     0       5.105  46.722  21.023  0.00  0.00    -0.289 OA
HETATM    3  C   UNK     0       7.480  44.374  19.744  0.00  0.00     0.198 C 
HETATM    4  C   UNK     0       7.209  45.623  20.584  0.00  0.00     0.227 C 
HETATM    5  C   UNK     0       5.734  45.676  20.915  0.00  0.00     0.196 C 
HETATM    6  C   UNK     0       5.085  44.369  21.143  0.00  0.00     0.079 A 
HETATM    7  C   UNK     0       5.811  43.199  20.911  0.00  0.00     0.089 A 
HETATM    8  C   UNK     0       3.771  44.304  21.613  0.00  0.00     0.085 A 
HETATM    9  C   UNK     0       5.230  41.959  21.184  0.00  0.00     0.074 A 
HETATM   10  C   UNK     0       3.189  43.062  21.865  0.00  0.00     0.074 A 
HETATM   11  C   UNK     0       3.918  41.892  21.657  0.00  0.00     0.071 A 
ENDROOT
BRANCH   3  12
HETATM   12  C   UNK     0       8.950  44.239  19.394  0.00  0.00    -0.023 A 
HETATM   13  C   UNK     0       9.459  44.893  18.275  0.00  0.00     0.049 A 
HETATM   14  C   UNK     0      10.811  44.770  17.951  0.00  0.00     0.099 A 
HETATM   15  C   UNK     0      11.649  43.991  18.749  0.00  0.00     0.098 A 
HETATM   16  C   UNK     0      11.137  43.337  19.870  0.00  0.00     0.040 A 
HETATM   17  C   UNK     0       9.786  43.461  20.192  0.00  0.00     0.013 A 
BRANCH  14  18
HETATM   18  O   UNK     0      11.300  45.413  16.856  0.00  0.00    -0.358 OA
HETATM   19  H   UNK     0      11.155  46.369  16.972  0.00  0.00     0.217 HD
ENDBRANCH  14  18
BRANCH  15  20
HETATM   20  O   UNK     0      12.972  43.864  18.445  0.00  0.00    -0.358 OA
HETATM   21  H   UNK     0      13.074  43.182  17.758  0.00  0.00     0.217 HD
ENDBRANCH  15  20
ENDBRANCH   3  12
BRANCH   4  22
HETATM   22  O   UNK     0       7.537  46.789  19.846  0.00  0.00    -0.385 OA
HETATM   23  H   UNK     0       7.433  47.551  20.441  0.00  0.00     0.210 HD
ENDBRANCH   4  22
BRANCH   8  24
HETATM   24  O   UNK     0       3.018  45.415  21.852  0.00  0.00    -0.360 OA
HETATM   25  H   UNK     0       3.582  46.199  21.935  0.00  0.00     0.217 HD
ENDBRANCH   8  24
BRANCH  11  26
HETATM   26  O   UNK     0       3.350  40.682  21.912  0.00  0.00    -0.361 OA
HETATM   27  H   UNK     0       4.001  39.982  21.731  0.00  0.00     0.217 HD
ENDBRANCH  11  26
TORSDOF 6
ENDMDL
MODEL 6
REMARK VINA RESULT:    -7.297      1.598      6.721
REMARK INTER + INTRA:          -8.996
REMARK INTER:                  -8.905
REMARK INTRA:                  -0.092
REMARK UNBOUND:                -0.206
REMARK  6 active torsions:
REMARK  status: ('A' for Active; 'I' for Inactive)
REMARK    1  A    between atoms: O_2  and  C_9 
REMARK    2  A    between atoms: O_4  and  C_14 
REMARK    3  A    between atoms: O_5  and  C_19 
REMARK    4  A    between atoms: O_6  and  C_20 
REMARK    5  A    between atoms: O_7  and  C_22 
REMARK    6  A    between atoms: C_8  and  C_10 
ROOT
HETATM    1  O   UNK     0       4.522  44.486  22.667  0.00  0.00    -0.337 OA
HETATM    2  O   UNK     0       5.666  41.983  19.622  0.00  0.00    -0.289 OA
HETATM    3  C   UNK     0       4.083  43.119  22.621  0.00  0.00     0.198 C 
HETATM    4  C   UNK     0       5.133  42.222  21.964  0.00  0.00     0.227 C 
HETATM    5  C   UNK     0       5.391  42.722  20.560  0.00  0.00     0.196 C 
HETATM    6  C   UNK     0       5.328  44.187  20.384  0.00  0.00     0.079 A 
HETATM    7  C   UNK     0       4.913  44.984  21.453  0.00  0.00     0.089 A 
HETATM    8  C   UNK     0       5.707  44.771  19.172  0.00  0.00     0.085 A 
HETATM    9  C   UNK     0       4.910  46.374  21.318  0.00  0.00     0.074 A 
HETATM   10  C   UNK     0       5.684  46.158  19.038  0.00  0.00     0.074 A 
HETATM   11  C   UNK     0       5.292  46.959  20.111  0.00  0.00     0.071 A 
ENDROOT
BRANCH   3  12
HETATM   12  C   UNK     0       3.791  42.693  24.047  0.00  0.00    -0.023 A 
HETATM   13  C   UNK     0       2.926  41.628  24.289  0.00  0.00     0.049 A 
HETATM   14  C   UNK     0       2.657  41.235  25.601  0.00  0.00     0.099 A 
HETATM   15  C   UNK     0       3.252  41.910  26.666  0.00  0.00     0.098 A 
HETATM   16  C   UNK     0       4.118  42.976  26.421  0.00  0.00     0.040 A 
HETATM   17  C   UNK     0       4.387  43.368  25.110  0.00  0.00     0.013 A 
BRANCH  14  18
HETATM   18  O   UNK     0       1.811  40.193  25.828  0.00  0.00    -0.358 OA
HETATM   19  H   UNK     0       2.312  39.481  26.262  0.00  0.00     0.217 HD
ENDBRANCH  14  18
BRANCH  15  20
HETATM   20  O   UNK     0       2.998  41.536  27.952  0.00  0.00    -0.358 OA
HETATM   21  H   UNK     0       2.113  41.852  28.205  0.00  0.00     0.217 HD
ENDBRANCH  15  20
ENDBRANCH   3  12
BRANCH   4  22
HETATM   22  O   UNK     0       4.653  40.891  21.877  0.00  0.00    -0.385 OA
HETATM   23  H   UNK     0       3.917  40.803  22.506  0.00  0.00     0.210 HD
ENDBRANCH   4  22
BRANCH   8  24
HETATM   24  O   UNK     0       6.116  44.039  18.098  0.00  0.00    -0.360 OA
HETATM   25  H   UNK     0       5.617  43.210  18.038  0.00  0.00     0.217 HD
ENDBRANCH   8  24
BRANCH  11  26
HETATM   26  O   UNK     0       5.279  48.314  19.978  0.00  0.00    -0.361 OA
HETATM   27  H   UNK     0       4.786  48.548  19.173  0.00  0.00     0.217 HD
ENDBRANCH  11  26
TORSDOF 6
ENDMDL
MODEL 7
REMARK VINA RESULT:    -7.202      1.726      2.255
REMARK INTER + INTRA:          -8.881
REMARK INTER:                  -9.108
REMARK INTRA:                   0.227
REMARK UNBOUND:                -0.206
REMARK  6 active torsions:
REMARK  status: ('A' for Active; 'I' for Inactive)
REMARK    1  A    between atoms: O_2  and  C_9 
REMARK    2  A    between atoms: O_4  and  C_14 
REMARK    3  A    between atoms: O_5  and  C_19 
REMARK    4  A    between atoms: O_6  and  C_20 
REMARK    5  A    between atoms: O_7  and  C_22 
REMARK    6  A    between atoms: C_8  and  C_10 
ROOT
HETATM    1  O   UNK     0       5.803  43.124  22.052  0.00  0.00    -0.337 OA
HETATM    2  O   UNK     0       2.200  42.393  20.227  0.00  0.00    -0.289 OA
HETATM    3  C   UNK     0       5.721  42.863  20.642  0.00  0.00     0.198 C 
HETATM    4  C   UNK     0       4.401  43.371  20.061  0.00  0.00     0.227 C 
HETATM    5  C   UNK     0       3.258  42.681  20.774  0.00  0.00     0.196 C 
HETATM    6  C   UNK     0       3.478  42.402  22.207  0.00  0.00     0.079 A 
HETATM    7  C   UNK     0       4.733  42.654  22.766  0.00  0.00     0.089 A 
HETATM    8  C   UNK     0       2.436  41.918  23.001  0.00  0.00     0.085 A 
HETATM    9  C   UNK     0       4.934  42.455  24.133  0.00  0.00     0.074 A 
HETATM   10  C   UNK     0       2.648  41.702  24.362  0.00  0.00     0.074 A 
HETATM   11  C   UNK     0       3.894  41.975  24.929  0.00  0.00     0.071 A 
ENDROOT
BRANCH   3  12
HETATM   12  C   UNK     0       6.917  43.533  19.991  0.00  0.00    -0.023 A 
HETATM   13  C   UNK     0       6.725  44.419  18.934  0.00  0.00     0.049 A 
HETATM   14  C   UNK     0       7.824  45.035  18.334  0.00  0.00     0.099 A 
HETATM   15  C   UNK     0       9.112  44.762  18.794  0.00  0.00     0.098 A 
HETATM   16  C   UNK     0       9.302  43.874  19.853  0.00  0.00     0.040 A 
HETATM   17  C   UNK     0       8.203  43.259  20.452  0.00  0.00     0.013 A 
BRANCH  14  18
HETATM   18  O   UNK     0       7.627  45.900  17.301  0.00  0.00    -0.358 OA
HETATM   19  H   UNK     0       7.713  45.407  16.468  0.00  0.00     0.217 HD
ENDBRANCH  14  18
BRANCH  15  20
HETATM   20  O   UNK     0      10.194  45.358  18.217  0.00  0.00    -0.358 OA
HETATM   21  H   UNK     0      10.952  44.751  18.265  0.00  0.00     0.217 HD
ENDBRANCH  15  20
ENDBRANCH   3  12
BRANCH   4  22
HETATM   22  O   UNK     0       4.318  43.050  18.682  0.00  0.00    -0.385 OA
HETATM   23  H   UNK     0       3.416  43.261  18.386  0.00  0.00     0.210 HD
ENDBRANCH   4  22
BRANCH   8  24
HETATM   24  O   UNK     0       1.194  41.652  22.506  0.00  0.00    -0.360 OA
HETATM   25  H   UNK     0       1.203  41.664  21.537  0.00  0.00     0.217 HD
ENDBRANCH   8  24
BRANCH  11  26
HETATM   26  O   UNK     0       4.095  41.771  26.260  0.00  0.00    -0.361 OA
HETATM   27  H   UNK     0       3.388  41.196  26.602  0.00  0.00     0.217 HD
ENDBRANCH  11  26
TORSDOF 6
ENDMDL
MODEL 8
REMARK VINA RESULT:    -7.128     28.209     30.318
REMARK INTER + INTRA:          -8.792
REMARK INTER:                  -8.433
REMARK INTRA:                  -0.360
REMARK UNBOUND:                -0.206
REMARK  6 active torsions:
REMARK  status: ('A' for Active; 'I' for Inactive)
REMARK    1  A    between atoms: O_2  and  C_9 
REMARK    2  A    between atoms: O_4  and  C_14 
REMARK    3  A    between atoms: O_5  and  C_19 
REMARK    4  A    between atoms: O_6  and  C_20 
REMARK    5  A    between atoms: O_7  and  C_22 
REMARK    6  A    between atoms: C_8  and  C_10 
ROOT
HETATM    1  O   UNK     0      16.960  68.617   9.018  0.00  0.00    -0.337 OA
HETATM    2  O   UNK     0      17.550  64.927  10.716  0.00  0.00    -0.289 OA
HETATM    3  C   UNK     0      16.254  67.458   8.547  0.00  0.00     0.198 C 
HETATM    4  C   UNK     0      16.002  66.464   9.681  0.00  0.00     0.227 C 
HETATM    5  C   UNK     0      17.334  66.047  10.267  0.00  0.00     0.196 C 
HETATM    6  C   UNK     0      18.370  67.097  10.303  0.00  0.00     0.079 A 
HETATM    7  C   UNK     0      18.117  68.326   9.691  0.00  0.00     0.089 A 
HETATM    8  C   UNK     0      19.580  66.875  10.967  0.00  0.00     0.085 A 
HETATM    9  C   UNK     0      19.064  69.349   9.774  0.00  0.00     0.074 A 
HETATM   10  C   UNK     0      20.530  67.894  11.029  0.00  0.00     0.074 A 
HETATM   11  C   UNK     0      20.271  69.130  10.439  0.00  0.00     0.071 A 
ENDROOT
BRANCH   3  12
HETATM   12  C   UNK     0      14.958  67.944   7.926  0.00  0.00    -0.023 A 
HETATM   13  C   UNK     0      14.080  68.725   8.674  0.00  0.00     0.049 A 
HETATM   14  C   UNK     0      12.888  69.172   8.103  0.00  0.00     0.099 A 
HETATM   15  C   UNK     0      12.576  68.834   6.787  0.00  0.00     0.098 A 
HETATM   16  C   UNK     0      13.457  68.052   6.039  0.00  0.00     0.040 A 
HETATM   17  C   UNK     0      14.649  67.606   6.610  0.00  0.00     0.013 A 
BRANCH  14  18
HETATM   18  O   UNK     0      12.036  69.936   8.842  0.00  0.00    -0.358 OA
HETATM   19  H   UNK     0      11.820  69.452   9.658  0.00  0.00     0.217 HD
ENDBRANCH  14  18
BRANCH  15  20
HETATM   20  O   UNK     0      11.415  69.265   6.217  0.00  0.00    -0.358 OA
HETATM   21  H   UNK     0      10.742  68.568   6.305  0.00  0.00     0.217 HD
ENDBRANCH  15  20
ENDBRANCH   3  12
BRANCH   4  22
HETATM   22  O   UNK     0      15.358  65.304   9.180  0.00  0.00    -0.385 OA
HETATM   23  H   UNK     0      16.043  64.631   9.027  0.00  0.00     0.210 HD
ENDBRANCH   4  22
BRANCH   8  24
HETATM   24  O   UNK     0      19.879  65.694  11.577  0.00  0.00    -0.360 OA
HETATM   25  H   UNK     0      20.811  65.466  11.444  0.00  0.00     0.217 HD
ENDBRANCH   8  24
BRANCH  11  26
HETATM   26  O   UNK     0      21.197  70.125  10.510  0.00  0.00    -0.361 OA
HETATM   27  H   UNK     0      20.954  70.829   9.884  0.00  0.00     0.217 HD
ENDBRANCH  11  26
TORSDOF 6
ENDMDL
MODEL 9
REMARK VINA RESULT:    -7.051     28.535     30.252
REMARK INTER + INTRA:          -8.700
REMARK INTER:                  -8.494
REMARK INTRA:                  -0.206
REMARK UNBOUND:                -0.206
REMARK  6 active torsions:
REMARK  status: ('A' for Active; 'I' for Inactive)
REMARK    1  A    between atoms: O_2  and  C_9 
REMARK    2  A    between atoms: O_4  and  C_14 
REMARK    3  A    between atoms: O_5  and  C_19 
REMARK    4  A    between atoms: O_6  and  C_20 
REMARK    5  A    between atoms: O_7  and  C_22 
REMARK    6  A    between atoms: C_8  and  C_10 
ROOT
HETATM    1  O   UNK     0      15.948  67.478   7.695  0.00  0.00    -0.337 OA
HETATM    2  O   UNK     0      12.653  69.353   9.267  0.00  0.00    -0.289 OA
HETATM    3  C   UNK     0      16.023  68.206   8.931  0.00  0.00     0.198 C 
HETATM    4  C   UNK     0      14.699  68.145   9.692  0.00  0.00     0.227 C 
HETATM    5  C   UNK     0      13.609  68.730   8.821  0.00  0.00     0.196 C 
HETATM    6  C   UNK     0      13.744  68.473   7.373  0.00  0.00     0.079 A 
HETATM    7  C   UNK     0      14.898  67.848   6.897  0.00  0.00     0.089 A 
HETATM    8  C   UNK     0      12.717  68.824   6.494  0.00  0.00     0.085 A 
HETATM    9  C   UNK     0      15.009  67.541   5.539  0.00  0.00     0.074 A 
HETATM   10  C   UNK     0      12.842  68.533   5.136  0.00  0.00     0.074 A 
HETATM   11  C   UNK     0      13.983  67.888   4.659  0.00  0.00     0.071 A 
ENDROOT
BRANCH   3  12
HETATM   12  C   UNK     0      17.163  67.610   9.734  0.00  0.00    -0.023 A 
HETATM   13  C   UNK     0      17.456  66.252   9.621  0.00  0.00     0.049 A 
HETATM   14  C   UNK     0      18.504  65.703  10.360  0.00  0.00     0.099 A 
HETATM   15  C   UNK     0      19.255  66.512  11.212  0.00  0.00     0.098 A 
HETATM   16  C   UNK     0      18.960  67.871  11.324  0.00  0.00     0.040 A 
HETATM   17  C   UNK     0      17.913  68.420  10.585  0.00  0.00     0.013 A 
BRANCH  14  18
HETATM   18  O   UNK     0      18.784  64.375  10.242  0.00  0.00    -0.358 OA
HETATM   19  H   UNK     0      19.680  64.219  10.586  0.00  0.00     0.217 HD
ENDBRANCH  14  18
BRANCH  15  20
HETATM   20  O   UNK     0      20.282  65.988  11.938  0.00  0.00    -0.358 OA
HETATM   21  H   UNK     0      20.803  66.715  12.321  0.00  0.00     0.217 HD
ENDBRANCH  15  20
ENDBRANCH   3  12
BRANCH   4  22
HETATM   22  O   UNK     0      14.779  68.919  10.877  0.00  0.00    -0.385 OA
HETATM   23  H   UNK     0      14.186  69.681  10.770  0.00  0.00     0.210 HD
ENDBRANCH   4  22
BRANCH   8  24
HETATM   24  O   UNK     0      11.572  69.439   6.905  0.00  0.00    -0.360 OA
HETATM   25  H   UNK     0      10.812  68.847   6.809  0.00  0.00     0.217 HD
ENDBRANCH   8  24
BRANCH  11  26
HETATM   26  O   UNK     0      14.097  67.598   3.334  0.00  0.00    -0.361 OA
HETATM   27  H   UNK     0      14.669  66.818   3.230  0.00  0.00     0.217 HD
ENDBRANCH  11  26
TORSDOF 6
ENDMDL
