MODEL 1
REMARK VINA RESULT:      -8.6      0.000      0.000
REMARK  6 active torsions:
REMARK  status: ('A' for Active; 'I' for Inactive)
REMARK    1  A    between atoms: O_2  and  C_9 
REMARK    2  A    between atoms: O_4  and  C_14 
REMARK    3  A    between atoms: O_5  and  C_19 
REMARK    4  A    between atoms: O_6  and  C_20 
REMARK    5  A    between atoms: O_7  and  C_22 
REMARK    6  A    between atoms: C_8  and  C_10 
ROOT
HETATM    1  O   UNK     0       4.502  44.031  22.856  0.00  0.00    -0.337 OA
HETATM    2  O   UNK     0       2.069  41.312  20.975  0.00  0.00    -0.289 OA
HETATM    3  C   UNK     0       4.686  43.698  21.471  0.00  0.00     0.198 C 
HETATM    4  C   UNK     0       3.356  43.347  20.803  0.00  0.00     0.227 C 
HETATM    5  C   UNK     0       2.741  42.172  21.532  0.00  0.00     0.196 C 
HETATM    6  C   UNK     0       2.970  42.137  22.990  0.00  0.00     0.079 A 
HETATM    7  C   UNK     0       3.824  43.078  23.569  0.00  0.00     0.089 A 
HETATM    8  C   UNK     0       2.317  41.192  23.786  0.00  0.00     0.085 A 
HETATM    9  C   UNK     0       3.997  43.096  24.954  0.00  0.00     0.074 A 
HETATM   10  C   UNK     0       2.510  41.202  25.167  0.00  0.00     0.074 A 
HETATM   11  C   UNK     0       3.344  42.155  25.751  0.00  0.00     0.071 A 
ENDROOT
BRANCH   3  12
HETATM   12  C   UNK     0       5.351  44.889  20.808  0.00  0.00    -0.023 A 
HETATM   13  C   UNK     0       6.563  44.725  20.140  0.00  0.00     0.049 A 
HETATM   14  C   UNK     0       7.175  45.820  19.530  0.00  0.00     0.099 A 
HETATM   15  C   UNK     0       6.574  47.077  19.590  0.00  0.00     0.098 A 
HETATM   16  C   UNK     0       5.360  47.240  20.258  0.00  0.00     0.040 A 
HETATM   17  C   UNK     0       4.749  46.145  20.868  0.00  0.00     0.013 A 
BRANCH  14  18
HETATM   18  O   UNK     0       8.359  45.649  18.880  0.00  0.00    -0.358 OA
HETATM   19  H   UNK     0       8.276  44.881  18.289  0.00  0.00     0.217 HD
ENDBRANCH  14  18
BRANCH  15  20
HETATM   20  O   UNK     0       7.162  48.155  18.997  0.00  0.00    -0.358 OA
HETATM   21  H   UNK     0       7.694  47.849  18.242  0.00  0.00     0.217 HD
ENDBRANCH  15  20
ENDBRANCH   3  12
BRANCH   4  22
HETATM   22  O   UNK     0       3.571  42.965  19.455  0.00  0.00    -0.385 OA
HETATM   23  H   UNK     0       3.228  43.678  18.890  0.00  0.00     0.210 HD
ENDBRANCH   4  22
BRANCH   8  24
HETATM   24  O   UNK     0       1.477  40.250  23.272  0.00  0.00    -0.360 OA
HETATM   25  H   UNK     0       0.712  40.121  23.852  0.00  0.00     0.217 HD
ENDBRANCH   8  24
BRANCH  11  26
HETATM   26  O   UNK     0       3.523  42.167  27.101  0.00  0.00    -0.361 OA
HETATM   27  H   UNK     0       2.775  41.709  27.522  0.00  0.00     0.217 HD
ENDBRANCH  11  26
TORSDOF 6
ENDMDL
MODEL 2
REMARK VINA RESULT:      -7.5      1.601      7.004
REMARK  6 active torsions:
REMARK  status: ('A' for Active; 'I' for Inactive)
REMARK    1  A    between atoms: O_2  and  C_9 
REMARK    2  A    between atoms: O_4  and  C_14 
REMARK    3  A    between atoms: O_5  and  C_19 
REMARK    4  A    between atoms: O_6  and  C_20 
REMARK    5  A    between atoms: O_7  and  C_22 
REMARK    6  A    between atoms: C_8  and  C_10 
ROOT
HETATM    1  O   UNK     0       6.060  43.136  21.076  0.00  0.00    -0.337 OA
HETATM    2  O   UNK     0       5.311  47.110  20.374  0.00  0.00    -0.289 OA
HETATM    3  C   UNK     0       5.054  43.847  21.814  0.00  0.00     0.198 C 
HETATM    4  C   UNK     0       4.417  44.948  20.966  0.00  0.00     0.227 C 
HETATM    5  C   UNK     0       5.499  45.908  20.523  0.00  0.00     0.196 C 
HETATM    6  C   UNK     0       6.813  45.299  20.237  0.00  0.00     0.079 A 
HETATM    7  C   UNK     0       7.011  43.945  20.515  0.00  0.00     0.089 A 
HETATM    8  C   UNK     0       7.836  46.061  19.667  0.00  0.00     0.085 A 
HETATM    9  C   UNK     0       8.228  43.344  20.189  0.00  0.00     0.074 A 
HETATM   10  C   UNK     0       9.056  45.459  19.362  0.00  0.00     0.074 A 
HETATM   11  C   UNK     0       9.251  44.101  19.617  0.00  0.00     0.071 A 
ENDROOT
BRANCH   3  12
HETATM   12  C   UNK     0       4.030  42.827  22.275  0.00  0.00    -0.023 A 
HETATM   13  C   UNK     0       3.803  42.638  23.636  0.00  0.00     0.049 A 
HETATM   14  C   UNK     0       2.861  41.700  24.061  0.00  0.00     0.099 A 
HETATM   15  C   UNK     0       2.150  40.953  23.122  0.00  0.00     0.098 A 
HETATM   16  C   UNK     0       2.378  41.145  21.759  0.00  0.00     0.040 A 
HETATM   17  C   UNK     0       3.320  42.082  21.336  0.00  0.00     0.013 A 
BRANCH  14  18
HETATM   18  O   UNK     0       2.646  41.522  25.394  0.00  0.00    -0.358 OA
HETATM   19  H   UNK     0       3.491  41.649  25.860  0.00  0.00     0.217 HD
ENDBRANCH  14  18
BRANCH  15  20
HETATM   20  O   UNK     0       1.227  40.035  23.524  0.00  0.00    -0.358 OA
HETATM   21  H   UNK     0       0.452  40.087  22.938  0.00  0.00     0.217 HD
ENDBRANCH  15  20
ENDBRANCH   3  12
BRANCH   4  22
HETATM   22  O   UNK     0       3.471  45.672  21.734  0.00  0.00    -0.385 OA
HETATM   23  H   UNK     0       3.056  46.326  21.147  0.00  0.00     0.210 HD
ENDBRANCH   4  22
BRANCH   8  24
HETATM   24  O   UNK     0       7.696  47.386  19.379  0.00  0.00    -0.360 OA
HETATM   25  H   UNK     0       7.451  47.884  20.173  0.00  0.00     0.217 HD
ENDBRANCH   8  24
BRANCH  11  26
HETATM   26  O   UNK     0      10.441  43.515  19.310  0.00  0.00    -0.361 OA
HETATM   27  H   UNK     0      10.928  43.339  20.134  0.00  0.00     0.217 HD
ENDBRANCH  11  26
TORSDOF 6
ENDMDL
MODEL 3
REMARK VINA RESULT:      -7.2      2.577      6.924
REMARK  6 active torsions:
REMARK  status: ('A' for Active; 'I' for Inactive)
REMARK    1  A    between atoms: O_2  and  C_9 
REMARK    2  A    between atoms: O_4  and  C_14 
REMARK    3  A    between atoms: O_5  and  C_19 
REMARK    4  A    between atoms: O_6  and  C_20 
REMARK    5  A    between atoms: O_7  and  C_22 
REMARK    6  A    between atoms: C_8  and  C_10 
ROOT
HETATM    1  O   UNK     0       7.170  43.265  20.677  0.00  0.00    -0.337 OA
HETATM    2  O   UNK     0       7.791  45.572  17.340  0.00  0.00    -0.289 OA
HETATM    3  C   UNK     0       6.201  44.236  20.251  0.00  0.00     0.198 C 
HETATM    4  C   UNK     0       6.207  44.396  18.731  0.00  0.00     0.227 C 
HETATM    5  C   UNK     0       7.589  44.828  18.292  0.00  0.00     0.196 C 
HETATM    6  C   UNK     0       8.710  44.262  19.069  0.00  0.00     0.079 A 
HETATM    7  C   UNK     0       8.434  43.500  20.207  0.00  0.00     0.089 A 
HETATM    8  C   UNK     0      10.029  44.461  18.655  0.00  0.00     0.085 A 
HETATM    9  C   UNK     0       9.482  42.907  20.912  0.00  0.00     0.074 A 
HETATM   10  C   UNK     0      11.073  43.881  19.375  0.00  0.00     0.074 A 
HETATM   11  C   UNK     0      10.801  43.101  20.499  0.00  0.00     0.071 A 
ENDROOT
BRANCH   3  12
HETATM   12  C   UNK     0       4.850  43.777  20.764  0.00  0.00    -0.023 A 
HETATM   13  C   UNK     0       3.973  43.113  19.909  0.00  0.00     0.049 A 
HETATM   14  C   UNK     0       2.729  42.691  20.380  0.00  0.00     0.099 A 
HETATM   15  C   UNK     0       2.365  42.934  21.704  0.00  0.00     0.098 A 
HETATM   16  C   UNK     0       3.246  43.599  22.559  0.00  0.00     0.040 A 
HETATM   17  C   UNK     0       4.488  44.021  22.088  0.00  0.00     0.013 A 
BRANCH  14  18
HETATM   18  O   UNK     0       1.878  42.042  19.537  0.00  0.00    -0.358 OA
HETATM   19  H   UNK     0       1.922  42.473  18.666  0.00  0.00     0.217 HD
ENDBRANCH  14  18
BRANCH  15  20
HETATM   20  O   UNK     0       1.154  42.526  22.176  0.00  0.00    -0.358 OA
HETATM   21  H   UNK     0       0.834  41.788  21.629  0.00  0.00     0.217 HD
ENDBRANCH  15  20
ENDBRANCH   3  12
BRANCH   4  22
HETATM   22  O   UNK     0       5.286  45.401  18.340  0.00  0.00    -0.385 OA
HETATM   23  H   UNK     0       4.746  45.621  19.118  0.00  0.00     0.210 HD
ENDBRANCH   4  22
BRANCH   8  24
HETATM   24  O   UNK     0      10.353  45.197  17.555  0.00  0.00    -0.360 OA
HETATM   25  H   UNK     0      10.822  46.006  17.810  0.00  0.00     0.217 HD
ENDBRANCH   8  24
BRANCH  11  26
HETATM   26  O   UNK     0      11.822  42.530  21.194  0.00  0.00    -0.361 OA
HETATM   27  H   UNK     0      11.720  42.743  22.138  0.00  0.00     0.217 HD
ENDBRANCH  11  26
TORSDOF 6
ENDMDL
MODEL 4
REMARK VINA RESULT:      -7.1      1.367      6.634
REMARK  6 active torsions:
REMARK  status: ('A' for Active; 'I' for Inactive)
REMARK    1  A    between atoms: O_2  and  C_9 
REMARK    2  A    between atoms: O_4  and  C_14 
REMARK    3  A    between atoms: O_5  and  C_19 
REMARK    4  A    between atoms: O_6  and  C_20 
REMARK    5  A    between atoms: O_7  and  C_22 
REMARK    6  A    between atoms: C_8  and  C_10 
ROOT
HETATM    1  O   UNK     0       5.668  44.171  22.261  0.00  0.00    -0.337 OA
HETATM    2  O   UNK     0       4.102  43.118  18.616  0.00  0.00    -0.289 OA
HETATM    3  C   UNK     0       4.316  43.701  22.138  0.00  0.00     0.198 C 
HETATM    4  C   UNK     0       4.180  42.698  20.992  0.00  0.00     0.227 C 
HETATM    5  C   UNK     0       4.606  43.369  19.705  0.00  0.00     0.196 C 
HETATM    6  C   UNK     0       5.712  44.339  19.828  0.00  0.00     0.079 A 
HETATM    7  C   UNK     0       6.189  44.671  21.098  0.00  0.00     0.089 A 
HETATM    8  C   UNK     0       6.295  44.896  18.687  0.00  0.00     0.085 A 
HETATM    9  C   UNK     0       7.276  45.537  21.224  0.00  0.00     0.074 A 
HETATM   10  C   UNK     0       7.368  45.776  18.820  0.00  0.00     0.074 A 
HETATM   11  C   UNK     0       7.862  46.093  20.085  0.00  0.00     0.071 A 
ENDROOT
BRANCH   3  12
HETATM   12  C   UNK     0       3.930  43.089  23.471  0.00  0.00    -0.023 A 
HETATM   13  C   UNK     0       3.063  41.999  23.508  0.00  0.00     0.049 A 
HETATM   14  C   UNK     0       2.707  41.435  24.734  0.00  0.00     0.099 A 
HETATM   15  C   UNK     0       3.219  41.963  25.919  0.00  0.00     0.098 A 
HETATM   16  C   UNK     0       4.087  43.054  25.879  0.00  0.00     0.040 A 
HETATM   17  C   UNK     0       4.442  43.618  24.654  0.00  0.00     0.013 A 
BRANCH  14  18
HETATM   18  O   UNK     0       1.859  40.369  24.761  0.00  0.00    -0.358 OA
HETATM   19  H   UNK     0       2.138  39.739  24.074  0.00  0.00     0.217 HD
ENDBRANCH  14  18
BRANCH  15  20
HETATM   20  O   UNK     0       2.880  41.421  27.122  0.00  0.00    -0.358 OA
HETATM   21  H   UNK     0       3.319  41.923  27.831  0.00  0.00     0.217 HD
ENDBRANCH  15  20
ENDBRANCH   3  12
BRANCH   4  22
HETATM   22  O   UNK     0       2.828  42.295  20.853  0.00  0.00    -0.385 OA
HETATM   23  H   UNK     0       2.310  42.767  21.527  0.00  0.00     0.210 HD
ENDBRANCH   4  22
BRANCH   8  24
HETATM   24  O   UNK     0       5.866  44.609  17.426  0.00  0.00    -0.360 OA
HETATM   25  H   UNK     0       5.669  43.665  17.338  0.00  0.00     0.217 HD
ENDBRANCH   8  24
BRANCH  11  26
HETATM   26  O   UNK     0       8.915  46.945  20.211  0.00  0.00    -0.361 OA
HETATM   27  H   UNK     0       8.896  47.344  21.098  0.00  0.00     0.217 HD
ENDBRANCH  11  26
TORSDOF 6
ENDMDL
MODEL 5
REMARK VINA RESULT:      -7.1      1.713      2.256
REMARK  6 active torsions:
REMARK  status: ('A' for Active; 'I' for Inactive)
REMARK    1  A    between atoms: O_2  and  C_9 
REMARK    2  A    between atoms: O_4  and  C_14 
REMARK    3  A    between atoms: O_5  and  C_19 
REMARK    4  A    between atoms: O_6  and  C_20 
REMARK    5  A    between atoms: O_7  and  C_22 
REMARK    6  A    between atoms: C_8  and  C_10 
ROOT
HETATM    1  O   UNK     0       5.840  43.103  22.098  0.00  0.00    -0.337 OA
HETATM    2  O   UNK     0       2.275  42.235  20.259  0.00  0.00    -0.289 OA
HETATM    3  C   UNK     0       5.778  42.810  20.694  0.00  0.00     0.198 C 
HETATM    4  C   UNK     0       4.450  43.269  20.090  0.00  0.00     0.227 C 
HETATM    5  C   UNK     0       3.320  42.564  20.809  0.00  0.00     0.196 C 
HETATM    6  C   UNK     0       3.534  42.322  22.249  0.00  0.00     0.079 A 
HETATM    7  C   UNK     0       4.776  42.620  22.813  0.00  0.00     0.089 A 
HETATM    8  C   UNK     0       2.497  41.827  23.045  0.00  0.00     0.085 A 
HETATM    9  C   UNK     0       4.970  42.456  24.186  0.00  0.00     0.074 A 
HETATM   10  C   UNK     0       2.704  41.646  24.412  0.00  0.00     0.074 A 
HETATM   11  C   UNK     0       3.936  41.965  24.983  0.00  0.00     0.071 A 
ENDROOT
BRANCH   3  12
HETATM   12  C   UNK     0       6.961  43.498  20.039  0.00  0.00    -0.023 A 
HETATM   13  C   UNK     0       6.749  44.410  19.008  0.00  0.00     0.049 A 
HETATM   14  C   UNK     0       7.837  45.043  18.404  0.00  0.00     0.099 A 
HETATM   15  C   UNK     0       9.133  44.760  18.834  0.00  0.00     0.098 A 
HETATM   16  C   UNK     0       9.343  43.847  19.867  0.00  0.00     0.040 A 
HETATM   17  C   UNK     0       8.255  43.214  20.470  0.00  0.00     0.013 A 
BRANCH  14  18
HETATM   18  O   UNK     0       7.620  45.934  17.397  0.00  0.00    -0.358 OA
HETATM   19  H   UNK     0       7.318  45.442  16.614  0.00  0.00     0.217 HD
ENDBRANCH  14  18
BRANCH  15  20
HETATM   20  O   UNK     0      10.204  45.373  18.254  0.00  0.00    -0.358 OA
HETATM   21  H   UNK     0      11.008  44.866  18.461  0.00  0.00     0.217 HD
ENDBRANCH  15  20
ENDBRANCH   3  12
BRANCH   4  22
HETATM   22  O   UNK     0       4.388  42.916  18.719  0.00  0.00    -0.385 OA
HETATM   23  H   UNK     0       3.461  42.715  18.509  0.00  0.00     0.210 HD
ENDBRANCH   4  22
BRANCH   8  24
HETATM   24  O   UNK     0       1.269  41.516  22.545  0.00  0.00    -0.360 OA
HETATM   25  H   UNK     0       0.674  41.227  23.253  0.00  0.00     0.217 HD
ENDBRANCH   8  24
BRANCH  11  26
HETATM   26  O   UNK     0       4.130  41.795  26.320  0.00  0.00    -0.361 OA
HETATM   27  H   UNK     0       4.416  40.880  26.484  0.00  0.00     0.217 HD
ENDBRANCH  11  26
TORSDOF 6
ENDMDL
MODEL 6
REMARK VINA RESULT:      -7.0     28.230     30.342
REMARK  6 active torsions:
REMARK  status: ('A' for Active; 'I' for Inactive)
REMARK    1  A    between atoms: O_2  and  C_9 
REMARK    2  A    between atoms: O_4  and  C_14 
REMARK    3  A    between atoms: O_5  and  C_19 
REMARK    4  A    between atoms: O_6  and  C_20 
REMARK    5  A    between atoms: O_7  and  C_22 
REMARK    6  A    between atoms: C_8  and  C_10 
ROOT
HETATM    1  O   UNK     0      16.940  68.646   9.001  0.00  0.00    -0.337 OA
HETATM    2  O   UNK     0      17.524  64.954  10.695  0.00  0.00    -0.289 OA
HETATM    3  C   UNK     0      16.230  67.490   8.531  0.00  0.00     0.198 C 
HETATM    4  C   UNK     0      15.978  66.495   9.664  0.00  0.00     0.227 C 
HETATM    5  C   UNK     0      17.310  66.074  10.247  0.00  0.00     0.196 C 
HETATM    6  C   UNK     0      18.350  67.121  10.281  0.00  0.00     0.079 A 
HETATM    7  C   UNK     0      18.098  68.352   9.671  0.00  0.00     0.089 A 
HETATM    8  C   UNK     0      19.560  66.895  10.942  0.00  0.00     0.085 A 
HETATM    9  C   UNK     0      19.048  69.372   9.752  0.00  0.00     0.074 A 
HETATM   10  C   UNK     0      20.513  67.912  11.004  0.00  0.00     0.074 A 
HETATM   11  C   UNK     0      20.256  69.150  10.415  0.00  0.00     0.071 A 
ENDROOT
BRANCH   3  12
HETATM   12  C   UNK     0      14.934  67.979   7.913  0.00  0.00    -0.023 A 
HETATM   13  C   UNK     0      14.072  68.783   8.655  0.00  0.00     0.049 A 
HETATM   14  C   UNK     0      12.879  69.234   8.088  0.00  0.00     0.099 A 
HETATM   15  C   UNK     0      12.552  68.877   6.780  0.00  0.00     0.098 A 
HETATM   16  C   UNK     0      13.417  68.072   6.038  0.00  0.00     0.040 A 
HETATM   17  C   UNK     0      14.609  67.622   6.606  0.00  0.00     0.013 A 
BRANCH  14  18
HETATM   18  O   UNK     0      12.043  70.020   8.820  0.00  0.00    -0.358 OA
HETATM   19  H   UNK     0      12.442  70.904   8.895  0.00  0.00     0.217 HD
ENDBRANCH  14  18
BRANCH  15  20
HETATM   20  O   UNK     0      11.391  69.312   6.214  0.00  0.00    -0.358 OA
HETATM   21  H   UNK     0      10.800  69.637   6.914  0.00  0.00     0.217 HD
ENDBRANCH  15  20
ENDBRANCH   3  12
BRANCH   4  22
HETATM   22  O   UNK     0      15.330  65.338   9.164  0.00  0.00    -0.385 OA
HETATM   23  H   UNK     0      15.680  65.167   8.273  0.00  0.00     0.210 HD
ENDBRANCH   4  22
BRANCH   8  24
HETATM   24  O   UNK     0      19.857  65.713  11.551  0.00  0.00    -0.360 OA
HETATM   25  H   UNK     0      20.796  65.677  11.790  0.00  0.00     0.217 HD
ENDBRANCH   8  24
BRANCH  11  26
HETATM   26  O   UNK     0      21.185  70.142  10.484  0.00  0.00    -0.361 OA
HETATM   27  H   UNK     0      20.794  70.965  10.143  0.00  0.00     0.217 HD
ENDBRANCH  11  26
TORSDOF 6
ENDMDL
MODEL 7
REMARK VINA RESULT:      -7.0     22.613     24.244
REMARK  6 active torsions:
REMARK  status: ('A' for Active; 'I' for Inactive)
REMARK    1  A    between atoms: O_2  and  C_9 
REMARK    2  A    between atoms: O_4  and  C_14 
REMARK    3  A    between atoms: O_5  and  C_19 
REMARK    4  A    between atoms: O_6  and  C_20 
REMARK    5  A    between atoms: O_7  and  C_22 
REMARK    6  A    between atoms: C_8  and  C_10 
ROOT
HETATM    1  O   UNK     0      -8.211  47.810   1.979  0.00  0.00    -0.337 OA
HETATM    2  O   UNK     0     -10.635  47.807   5.291  0.00  0.00    -0.289 OA
HETATM    3  C   UNK     0      -9.393  48.625   2.039  0.00  0.00     0.198 C 
HETATM    4  C   UNK     0      -9.684  49.076   3.471  0.00  0.00     0.227 C 
HETATM    5  C   UNK     0      -9.865  47.849   4.339  0.00  0.00     0.196 C 
HETATM    6  C   UNK     0      -9.016  46.692   3.992  0.00  0.00     0.079 A 
HETATM    7  C   UNK     0      -8.227  46.747   2.841  0.00  0.00     0.089 A 
HETATM    8  C   UNK     0      -8.981  45.568   4.821  0.00  0.00     0.085 A 
HETATM    9  C   UNK     0      -7.373  45.685   2.538  0.00  0.00     0.074 A 
HETATM   10  C   UNK     0      -8.140  44.502   4.502  0.00  0.00     0.074 A 
HETATM   11  C   UNK     0      -7.333  44.562   3.366  0.00  0.00     0.071 A 
ENDROOT
BRANCH   3  12
HETATM   12  C   UNK     0      -9.172  49.805   1.112  0.00  0.00    -0.023 A 
HETATM   13  C   UNK     0      -7.948  49.960   0.465  0.00  0.00     0.049 A 
HETATM   14  C   UNK     0      -7.743  51.045  -0.388  0.00  0.00     0.099 A 
HETATM   15  C   UNK     0      -8.765  51.972  -0.591  0.00  0.00     0.098 A 
HETATM   16  C   UNK     0      -9.991  51.815   0.056  0.00  0.00     0.040 A 
HETATM   17  C   UNK     0     -10.194  50.730   0.909  0.00  0.00     0.013 A 
BRANCH  14  18
HETATM   18  O   UNK     0      -6.544  51.188  -1.015  0.00  0.00    -0.358 OA
HETATM   19  H   UNK     0      -6.705  51.255  -1.973  0.00  0.00     0.217 HD
ENDBRANCH  14  18
BRANCH  15  20
HETATM   20  O   UNK     0      -8.579  53.036  -1.423  0.00  0.00    -0.358 OA
HETATM   21  H   UNK     0      -9.306  53.669  -1.295  0.00  0.00     0.217 HD
ENDBRANCH  15  20
ENDBRANCH   3  12
BRANCH   4  22
HETATM   22  O   UNK     0     -10.885  49.827   3.513  0.00  0.00    -0.385 OA
HETATM   23  H   UNK     0     -11.361  49.665   2.681  0.00  0.00     0.210 HD
ENDBRANCH   4  22
BRANCH   8  24
HETATM   24  O   UNK     0      -9.733  45.462   5.952  0.00  0.00    -0.360 OA
HETATM   25  H   UNK     0      -9.266  45.845   6.711  0.00  0.00     0.217 HD
ENDBRANCH   8  24
BRANCH  11  26
HETATM   26  O   UNK     0      -6.507  43.524   3.062  0.00  0.00    -0.361 OA
HETATM   27  H   UNK     0      -6.549  43.356   2.105  0.00  0.00     0.217 HD
ENDBRANCH  11  26
TORSDOF 6
ENDMDL
MODEL 8
REMARK VINA RESULT:      -7.0      2.875      4.876
REMARK  6 active torsions:
REMARK  status: ('A' for Active; 'I' for Inactive)
REMARK    1  A    between atoms: O_2  and  C_9 
REMARK    2  A    between atoms: O_4  and  C_14 
REMARK    3  A    between atoms: O_5  and  C_19 
REMARK    4  A    between atoms: O_6  and  C_20 
REMARK    5  A    between atoms: O_7  and  C_22 
REMARK    6  A    between atoms: C_8  and  C_10 
ROOT
HETATM    1  O   UNK     0       7.142  43.176  20.383  0.00  0.00    -0.337 OA
HETATM    2  O   UNK     0       5.131  46.692  21.049  0.00  0.00    -0.289 OA
HETATM    3  C   UNK     0       7.505  44.384  19.696  0.00  0.00     0.198 C 
HETATM    4  C   UNK     0       7.237  45.616  20.562  0.00  0.00     0.227 C 
HETATM    5  C   UNK     0       5.765  45.652  20.913  0.00  0.00     0.196 C 
HETATM    6  C   UNK     0       5.129  44.337  21.126  0.00  0.00     0.079 A 
HETATM    7  C   UNK     0       5.859  43.176  20.863  0.00  0.00     0.089 A 
HETATM    8  C   UNK     0       3.821  44.254  21.611  0.00  0.00     0.085 A 
HETATM    9  C   UNK     0       5.290  41.928  21.122  0.00  0.00     0.074 A 
HETATM   10  C   UNK     0       3.251  43.004  21.849  0.00  0.00     0.074 A 
HETATM   11  C   UNK     0       3.986  41.842  21.610  0.00  0.00     0.071 A 
ENDROOT
BRANCH   3  12
HETATM   12  C   UNK     0       8.971  44.266  19.325  0.00  0.00    -0.023 A 
HETATM   13  C   UNK     0       9.861  43.648  20.201  0.00  0.00     0.049 A 
HETATM   14  C   UNK     0      11.210  43.538  19.860  0.00  0.00     0.099 A 
HETATM   15  C   UNK     0      11.665  44.049  18.645  0.00  0.00     0.098 A 
HETATM   16  C   UNK     0      10.772  44.668  17.769  0.00  0.00     0.040 A 
HETATM   17  C   UNK     0       9.424  44.777  18.110  0.00  0.00     0.013 A 
BRANCH  14  18
HETATM   18  O   UNK     0      12.072  42.932  20.722  0.00  0.00    -0.358 OA
HETATM   19  H   UNK     0      12.980  43.122  20.430  0.00  0.00     0.217 HD
ENDBRANCH  14  18
BRANCH  15  20
HETATM   20  O   UNK     0      12.979  43.948  18.300  0.00  0.00    -0.358 OA
HETATM   21  H   UNK     0      13.458  43.485  19.009  0.00  0.00     0.217 HD
ENDBRANCH  15  20
ENDBRANCH   3  12
BRANCH   4  22
HETATM   22  O   UNK     0       7.547  46.797  19.841  0.00  0.00    -0.385 OA
HETATM   23  H   UNK     0       6.760  47.042  19.326  0.00  0.00     0.210 HD
ENDBRANCH   4  22
BRANCH   8  24
HETATM   24  O   UNK     0       3.064  45.355  21.880  0.00  0.00    -0.360 OA
HETATM   25  H   UNK     0       3.601  46.046  22.297  0.00  0.00     0.217 HD
ENDBRANCH   8  24
BRANCH  11  26
HETATM   26  O   UNK     0       3.429  40.624  21.851  0.00  0.00    -0.361 OA
HETATM   27  H   UNK     0       3.773  40.280  22.693  0.00  0.00     0.217 HD
ENDBRANCH  11  26
TORSDOF 6
ENDMDL
MODEL 9
REMARK VINA RESULT:      -6.9     28.541     30.242
REMARK  6 active torsions:
REMARK  status: ('A' for Active; 'I' for Inactive)
REMARK    1  A    between atoms: O_2  and  C_9 
REMARK    2  A    between atoms: O_4  and  C_14 
REMARK    3  A    between atoms: O_5  and  C_19 
REMARK    4  A    between atoms: O_6  and  C_20 
REMARK    5  A    between atoms: O_7  and  C_22 
REMARK    6  A    between atoms: C_8  and  C_10 
ROOT
HETATM    1  O   UNK     0      15.967  67.465   7.701  0.00  0.00    -0.337 OA
HETATM    2  O   UNK     0      12.662  69.314   9.282  0.00  0.00    -0.289 OA
HETATM    3  C   UNK     0      16.037  68.182   8.944  0.00  0.00     0.198 C 
HETATM    4  C   UNK     0      14.711  68.109   9.701  0.00  0.00     0.227 C 
HETATM    5  C   UNK     0      13.621  68.698   8.832  0.00  0.00     0.196 C 
HETATM    6  C   UNK     0      13.761  68.454   7.383  0.00  0.00     0.079 A 
HETATM    7  C   UNK     0      14.918  67.837   6.904  0.00  0.00     0.089 A 
HETATM    8  C   UNK     0      12.734  68.810   6.504  0.00  0.00     0.085 A 
HETATM    9  C   UNK     0      15.033  67.543   5.544  0.00  0.00     0.074 A 
HETATM   10  C   UNK     0      12.863  68.531   5.144  0.00  0.00     0.074 A 
HETATM   11  C   UNK     0      14.008  67.894   4.665  0.00  0.00     0.071 A 
ENDROOT
BRANCH   3  12
HETATM   12  C   UNK     0      17.177  67.582   9.745  0.00  0.00    -0.023 A 
HETATM   13  C   UNK     0      17.483  66.230   9.611  0.00  0.00     0.049 A 
HETATM   14  C   UNK     0      18.531  65.677  10.348  0.00  0.00     0.099 A 
HETATM   15  C   UNK     0      19.269  66.479  11.218  0.00  0.00     0.098 A 
HETATM   16  C   UNK     0      18.961  67.834  11.351  0.00  0.00     0.040 A 
HETATM   17  C   UNK     0      17.913  68.385  10.614  0.00  0.00     0.013 A 
BRANCH  14  18
HETATM   18  O   UNK     0      18.824  64.355  10.209  0.00  0.00    -0.358 OA
HETATM   19  H   UNK     0      18.583  63.900  11.035  0.00  0.00     0.217 HD
ENDBRANCH  14  18
BRANCH  15  20
HETATM   20  O   UNK     0      20.296  65.952  11.942  0.00  0.00    -0.358 OA
HETATM   21  H   UNK     0      20.663  66.643  12.520  0.00  0.00     0.217 HD
ENDBRANCH  15  20
ENDBRANCH   3  12
BRANCH   4  22
HETATM   22  O   UNK     0      14.786  68.873  10.893  0.00  0.00    -0.385 OA
HETATM   23  H   UNK     0      15.606  68.622  11.351  0.00  0.00     0.210 HD
ENDBRANCH   4  22
BRANCH   8  24
HETATM   24  O   UNK     0      11.587  69.417   6.918  0.00  0.00    -0.360 OA
HETATM   25  H   UNK     0      10.833  68.811   6.846  0.00  0.00     0.217 HD
ENDBRANCH   8  24
BRANCH  11  26
HETATM   26  O   UNK     0      14.127  67.616   3.338  0.00  0.00    -0.361 OA
HETATM   27  H   UNK     0      15.069  67.623   3.096  0.00  0.00     0.217 HD
ENDBRANCH  11  26
TORSDOF 6
ENDMDL
