MODEL 1
REMARK VINA RESULT:      -8.6      0.000      0.000
REMARK  6 active torsions:
REMARK  status: ('A' for Active; 'I' for Inactive)
REMARK    1  A    between atoms: O_2  and  C_9 
REMARK    2  A    between atoms: O_4  and  C_14 
REMARK    3  A    between atoms: O_5  and  C_19 
REMARK    4  A    between atoms: O_6  and  C_20 
REMARK    5  A    between atoms: O_7  and  C_22 
REMARK    6  A    between atoms: C_8  and  C_10 
ROOT
HETATM    1  O   UNK     0       4.500  44.033  22.858  0.00  0.00    -0.337 OA
HETATM    2  O   UNK     0       2.073  41.311  20.976  0.00  0.00    -0.289 OA
HETATM    3  C   UNK     0       4.686  43.701  21.473  0.00  0.00     0.198 C 
HETATM    4  C   UNK     0       3.358  43.348  20.804  0.00  0.00     0.227 C 
HETATM    5  C   UNK     0       2.744  42.172  21.533  0.00  0.00     0.196 C 
HETATM    6  C   UNK     0       2.971  42.137  22.991  0.00  0.00     0.079 A 
HETATM    7  C   UNK     0       3.823  43.080  23.571  0.00  0.00     0.089 A 
HETATM    8  C   UNK     0       2.318  41.192  23.787  0.00  0.00     0.085 A 
HETATM    9  C   UNK     0       3.995  43.098  24.956  0.00  0.00     0.074 A 
HETATM   10  C   UNK     0       2.510  41.202  25.168  0.00  0.00     0.074 A 
HETATM   11  C   UNK     0       3.342  42.156  25.753  0.00  0.00     0.071 A 
ENDROOT
BRANCH   3  12
HETATM   12  C   UNK     0       5.350  44.893  20.811  0.00  0.00    -0.023 A 
HETATM   13  C   UNK     0       6.561  44.729  20.142  0.00  0.00     0.049 A 
HETATM   14  C   UNK     0       7.173  45.825  19.532  0.00  0.00     0.099 A 
HETATM   15  C   UNK     0       6.572  47.082  19.594  0.00  0.00     0.098 A 
HETATM   16  C   UNK     0       5.359  47.244  20.264  0.00  0.00     0.040 A 
HETATM   17  C   UNK     0       4.748  46.148  20.874  0.00  0.00     0.013 A 
BRANCH  14  18
HETATM   18  O   UNK     0       8.357  45.655  18.880  0.00  0.00    -0.358 OA
HETATM   19  H   UNK     0       8.226  45.885  17.944  0.00  0.00     0.217 HD
ENDBRANCH  14  18
BRANCH  15  20
HETATM   20  O   UNK     0       7.159  48.160  19.002  0.00  0.00    -0.358 OA
HETATM   21  H   UNK     0       8.125  48.043  19.018  0.00  0.00     0.217 HD
ENDBRANCH  15  20
ENDBRANCH   3  12
BRANCH   4  22
HETATM   22  O   UNK     0       3.575  42.966  19.456  0.00  0.00    -0.385 OA
HETATM   23  H   UNK     0       2.816  42.426  19.179  0.00  0.00     0.210 HD
ENDBRANCH   4  22
BRANCH   8  24
HETATM   24  O   UNK     0       1.480  40.249  23.272  0.00  0.00    -0.360 OA
HETATM   25  H   UNK     0       1.650  39.384  23.674  0.00  0.00     0.217 HD
ENDBRANCH   8  24
BRANCH  11  26
HETATM   26  O   UNK     0       3.519  42.168  27.102  0.00  0.00    -0.361 OA
HETATM   27  H   UNK     0       2.960  42.865  27.488  0.00  0.00     0.217 HD
ENDBRANCH  11  26
TORSDOF 6
ENDMDL
MODEL 2
REMARK VINA RESULT:      -7.7      1.372      3.260
REMARK  6 active torsions:
REMARK  status: ('A' for Active; 'I' for Inactive)
REMARK    1  A    between atoms: O_2  and  C_9 
REMARK    2  A    between atoms: O_4  and  C_14 
REMARK    3  A    between atoms: O_5  and  C_19 
REMARK    4  A    between atoms: O_6  and  C_20 
REMARK    5  A    between atoms: O_7  and  C_22 
REMARK    6  A    between atoms: C_8  and  C_10 
ROOT
HETATM    1  O   UNK     0       4.112  42.995  22.267  0.00  0.00    -0.337 OA
HETATM    2  O   UNK     0       4.755  43.406  26.300  0.00  0.00    -0.289 OA
HETATM    3  C   UNK     0       4.591  44.230  22.824  0.00  0.00     0.198 C 
HETATM    4  C   UNK     0       5.453  43.982  24.062  0.00  0.00     0.227 C 
HETATM    5  C   UNK     0       4.625  43.245  25.092  0.00  0.00     0.196 C 
HETATM    6  C   UNK     0       3.654  42.273  24.552  0.00  0.00     0.079 A 
HETATM    7  C   UNK     0       3.467  42.194  23.170  0.00  0.00     0.089 A 
HETATM    8  C   UNK     0       2.953  41.422  25.410  0.00  0.00     0.085 A 
HETATM    9  C   UNK     0       2.599  41.234  22.644  0.00  0.00     0.074 A 
HETATM   10  C   UNK     0       2.074  40.479  24.879  0.00  0.00     0.074 A 
HETATM   11  C   UNK     0       1.901  40.381  23.499  0.00  0.00     0.071 A 
ENDROOT
BRANCH   3  12
HETATM   12  C   UNK     0       5.365  44.944  21.733  0.00  0.00    -0.023 A 
HETATM   13  C   UNK     0       4.929  46.183  21.270  0.00  0.00     0.049 A 
HETATM   14  C   UNK     0       5.641  46.842  20.266  0.00  0.00     0.099 A 
HETATM   15  C   UNK     0       6.786  46.257  19.727  0.00  0.00     0.098 A 
HETATM   16  C   UNK     0       7.222  45.016  20.193  0.00  0.00     0.040 A 
HETATM   17  C   UNK     0       6.510  44.359  21.196  0.00  0.00     0.013 A 
BRANCH  14  18
HETATM   18  O   UNK     0       5.207  48.053  19.821  0.00  0.00    -0.358 OA
HETATM   19  H   UNK     0       4.602  47.905  19.073  0.00  0.00     0.217 HD
ENDBRANCH  14  18
BRANCH  15  20
HETATM   20  O   UNK     0       7.491  46.890  18.747  0.00  0.00    -0.358 OA
HETATM   21  H   UNK     0       7.454  46.355  17.936  0.00  0.00     0.217 HD
ENDBRANCH  15  20
ENDBRANCH   3  12
BRANCH   4  22
HETATM   22  O   UNK     0       5.864  45.216  24.627  0.00  0.00    -0.385 OA
HETATM   23  H   UNK     0       6.548  45.591  24.047  0.00  0.00     0.210 HD
ENDBRANCH   4  22
BRANCH   8  24
HETATM   24  O   UNK     0       3.097  41.460  26.764  0.00  0.00    -0.360 OA
HETATM   25  H   UNK     0       3.781  42.098  27.018  0.00  0.00     0.217 HD
ENDBRANCH   8  24
BRANCH  11  26
HETATM   26  O   UNK     0       1.048  39.453  22.984  0.00  0.00    -0.361 OA
HETATM   27  H   UNK     0       0.361  39.255  23.644  0.00  0.00     0.217 HD
ENDBRANCH  11  26
TORSDOF 6
ENDMDL
MODEL 3
REMARK VINA RESULT:      -7.5      1.605      7.002
REMARK  6 active torsions:
REMARK  status: ('A' for Active; 'I' for Inactive)
REMARK    1  A    between atoms: O_2  and  C_9 
REMARK    2  A    between atoms: O_4  and  C_14 
REMARK    3  A    between atoms: O_5  and  C_19 
REMARK    4  A    between atoms: O_6  and  C_20 
REMARK    5  A    between atoms: O_7  and  C_22 
REMARK    6  A    between atoms: C_8  and  C_10 
ROOT
HETATM    1  O   UNK     0       6.067  43.135  21.092  0.00  0.00    -0.337 OA
HETATM    2  O   UNK     0       5.318  47.105  20.366  0.00  0.00    -0.289 OA
HETATM    3  C   UNK     0       5.058  43.849  21.823  0.00  0.00     0.198 C 
HETATM    4  C   UNK     0       4.423  44.945  20.966  0.00  0.00     0.227 C 
HETATM    5  C   UNK     0       5.506  45.904  20.522  0.00  0.00     0.196 C 
HETATM    6  C   UNK     0       6.821  45.294  20.245  0.00  0.00     0.079 A 
HETATM    7  C   UNK     0       7.020  43.942  20.531  0.00  0.00     0.089 A 
HETATM    8  C   UNK     0       7.847  46.054  19.675  0.00  0.00     0.085 A 
HETATM    9  C   UNK     0       8.239  43.339  20.213  0.00  0.00     0.074 A 
HETATM   10  C   UNK     0       9.068  45.451  19.378  0.00  0.00     0.074 A 
HETATM   11  C   UNK     0       9.263  44.095  19.641  0.00  0.00     0.071 A 
ENDROOT
BRANCH   3  12
HETATM   12  C   UNK     0       4.033  42.831  22.285  0.00  0.00    -0.023 A 
HETATM   13  C   UNK     0       3.811  42.639  23.647  0.00  0.00     0.049 A 
HETATM   14  C   UNK     0       2.869  41.702  24.074  0.00  0.00     0.099 A 
HETATM   15  C   UNK     0       2.151  40.960  23.136  0.00  0.00     0.098 A 
HETATM   16  C   UNK     0       2.374  41.155  21.772  0.00  0.00     0.040 A 
HETATM   17  C   UNK     0       3.316  42.091  21.347  0.00  0.00     0.013 A 
BRANCH  14  18
HETATM   18  O   UNK     0       2.659  41.522  25.407  0.00  0.00    -0.358 OA
HETATM   19  H   UNK     0       1.705  41.397  25.552  0.00  0.00     0.217 HD
ENDBRANCH  14  18
BRANCH  15  20
HETATM   20  O   UNK     0       1.227  40.043  23.539  0.00  0.00    -0.358 OA
HETATM   21  H   UNK     0       0.383  40.227  23.091  0.00  0.00     0.217 HD
ENDBRANCH  15  20
ENDBRANCH   3  12
BRANCH   4  22
HETATM   22  O   UNK     0       3.474  45.673  21.727  0.00  0.00    -0.385 OA
HETATM   23  H   UNK     0       3.883  45.880  22.584  0.00  0.00     0.210 HD
ENDBRANCH   4  22
BRANCH   8  24
HETATM   24  O   UNK     0       7.707  47.377  19.379  0.00  0.00    -0.360 OA
HETATM   25  H   UNK     0       7.204  47.493  18.559  0.00  0.00     0.217 HD
ENDBRANCH   8  24
BRANCH  11  26
HETATM   26  O   UNK     0      10.454  43.508  19.342  0.00  0.00    -0.361 OA
HETATM   27  H   UNK     0      10.552  42.700  19.875  0.00  0.00     0.217 HD
ENDBRANCH  11  26
TORSDOF 6
ENDMDL
MODEL 4
REMARK VINA RESULT:      -7.3      1.638      3.315
REMARK  6 active torsions:
REMARK  status: ('A' for Active; 'I' for Inactive)
REMARK    1  A    between atoms: O_2  and  C_9 
REMARK    2  A    between atoms: O_4  and  C_14 
REMARK    3  A    between atoms: O_5  and  C_19 
REMARK    4  A    between atoms: O_6  and  C_20 
REMARK    5  A    between atoms: O_7  and  C_22 
REMARK    6  A    between atoms: C_8  and  C_10 
ROOT
HETATM    1  O   UNK     0       3.591  42.253  22.323  0.00  0.00    -0.337 OA
HETATM    2  O   UNK     0       3.292  42.276  26.416  0.00  0.00    -0.289 OA
HETATM    3  C   UNK     0       3.772  43.462  23.077  0.00  0.00     0.198 C 
HETATM    4  C   UNK     0       4.372  43.173  24.453  0.00  0.00     0.227 C 
HETATM    5  C   UNK     0       3.447  42.238  25.201  0.00  0.00     0.196 C 
HETATM    6  C   UNK     0       2.752  41.232  24.374  0.00  0.00     0.079 A 
HETATM    7  C   UNK     0       2.878  41.288  22.984  0.00  0.00     0.089 A 
HETATM    8  C   UNK     0       2.002  40.218  24.975  0.00  0.00     0.085 A 
HETATM    9  C   UNK     0       2.279  40.305  22.195  0.00  0.00     0.074 A 
HETATM   10  C   UNK     0       1.389  39.250  24.180  0.00  0.00     0.074 A 
HETATM   11  C   UNK     0       1.531  39.289  22.793  0.00  0.00     0.071 A 
ENDROOT
BRANCH   3  12
HETATM   12  C   UNK     0       4.661  44.375  22.255  0.00  0.00    -0.023 A 
HETATM   13  C   UNK     0       6.028  44.119  22.171  0.00  0.00     0.049 A 
HETATM   14  C   UNK     0       6.848  44.959  21.415  0.00  0.00     0.099 A 
HETATM   15  C   UNK     0       6.297  46.052  20.746  0.00  0.00     0.098 A 
HETATM   16  C   UNK     0       4.928  46.306  20.831  0.00  0.00     0.040 A 
HETATM   17  C   UNK     0       4.110  45.466  21.587  0.00  0.00     0.013 A 
BRANCH  14  18
HETATM   18  O   UNK     0       8.183  44.701  21.338  0.00  0.00    -0.358 OA
HETATM   19  H   UNK     0       8.664  45.472  21.687  0.00  0.00     0.217 HD
ENDBRANCH  14  18
BRANCH  15  20
HETATM   20  O   UNK     0       7.087  46.879  20.004  0.00  0.00    -0.358 OA
HETATM   21  H   UNK     0       6.577  47.201  19.241  0.00  0.00     0.217 HD
ENDBRANCH  15  20
ENDBRANCH   3  12
BRANCH   4  22
HETATM   22  O   UNK     0       4.485  44.373  25.199  0.00  0.00    -0.385 OA
HETATM   23  H   UNK     0       5.287  44.832  24.896  0.00  0.00     0.210 HD
ENDBRANCH   4  22
BRANCH   8  24
HETATM   24  O   UNK     0       1.844  40.120  26.325  0.00  0.00    -0.360 OA
HETATM   25  H   UNK     0       2.279  39.323  26.663  0.00  0.00     0.217 HD
ENDBRANCH   8  24
BRANCH  11  26
HETATM   26  O   UNK     0       0.939  38.337  22.021  0.00  0.00    -0.361 OA
HETATM   27  H   UNK     0       1.068  37.468  22.438  0.00  0.00     0.217 HD
ENDBRANCH  11  26
TORSDOF 6
ENDMDL
MODEL 5
REMARK VINA RESULT:      -7.3      2.895      5.042
REMARK  6 active torsions:
REMARK  status: ('A' for Active; 'I' for Inactive)
REMARK    1  A    between atoms: O_2  and  C_9 
REMARK    2  A    between atoms: O_4  and  C_14 
REMARK    3  A    between atoms: O_5  and  C_19 
REMARK    4  A    between atoms: O_6  and  C_20 
REMARK    5  A    between atoms: O_7  and  C_22 
REMARK    6  A    between atoms: C_8  and  C_10 
ROOT
HETATM    1  O   UNK     0       7.378  43.228  20.332  0.00  0.00    -0.337 OA
HETATM    2  O   UNK     0       5.405  46.776  20.937  0.00  0.00    -0.289 OA
HETATM    3  C   UNK     0       7.757  44.421  19.628  0.00  0.00     0.198 C 
HETATM    4  C   UNK     0       7.500  45.669  20.473  0.00  0.00     0.227 C 
HETATM    5  C   UNK     0       6.028  45.727  20.820  0.00  0.00     0.196 C 
HETATM    6  C   UNK     0       5.376  44.422  21.050  0.00  0.00     0.079 A 
HETATM    7  C   UNK     0       6.095  43.249  20.808  0.00  0.00     0.089 A 
HETATM    8  C   UNK     0       4.066  44.362  21.533  0.00  0.00     0.085 A 
HETATM    9  C   UNK     0       5.511  42.012  21.084  0.00  0.00     0.074 A 
HETATM   10  C   UNK     0       3.482  43.122  21.788  0.00  0.00     0.074 A 
HETATM   11  C   UNK     0       4.204  41.948  21.569  0.00  0.00     0.071 A 
ENDROOT
BRANCH   3  12
HETATM   12  C   UNK     0       9.223  44.281  19.263  0.00  0.00    -0.023 A 
HETATM   13  C   UNK     0       9.737  44.985  18.176  0.00  0.00     0.049 A 
HETATM   14  C   UNK     0      11.085  44.856  17.839  0.00  0.00     0.099 A 
HETATM   15  C   UNK     0      11.914  44.023  18.590  0.00  0.00     0.098 A 
HETATM   16  C   UNK     0      11.397  43.320  19.678  0.00  0.00     0.040 A 
HETATM   17  C   UNK     0      10.050  43.448  20.014  0.00  0.00     0.013 A 
BRANCH  14  18
HETATM   18  O   UNK     0      11.580  45.548  16.776  0.00  0.00    -0.358 OA
HETATM   19  H   UNK     0      11.596  44.955  16.006  0.00  0.00     0.217 HD
ENDBRANCH  14  18
BRANCH  15  20
HETATM   20  O   UNK     0      13.233  43.890  18.272  0.00  0.00    -0.358 OA
HETATM   21  H   UNK     0      13.353  44.094  17.329  0.00  0.00     0.217 HD
ENDBRANCH  15  20
ENDBRANCH   3  12
BRANCH   4  22
HETATM   22  O   UNK     0       7.826  46.835  19.736  0.00  0.00    -0.385 OA
HETATM   23  H   UNK     0       7.053  47.424  19.762  0.00  0.00     0.210 HD
ENDBRANCH   4  22
BRANCH   8  24
HETATM   24  O   UNK     0       3.321  45.475  21.782  0.00  0.00    -0.360 OA
HETATM   25  H   UNK     0       3.853  46.276  21.665  0.00  0.00     0.217 HD
ENDBRANCH   8  24
BRANCH  11  26
HETATM   26  O   UNK     0       3.633  40.740  21.827  0.00  0.00    -0.361 OA
HETATM   27  H   UNK     0       3.020  40.834  22.577  0.00  0.00     0.217 HD
ENDBRANCH  11  26
TORSDOF 6
ENDMDL
MODEL 6
REMARK VINA RESULT:      -7.2      1.570      6.723
REMARK  6 active torsions:
REMARK  status: ('A' for Active; 'I' for Inactive)
REMARK    1  A    between atoms: O_2  and  C_9 
REMARK    2  A    between atoms: O_4  and  C_14 
REMARK    3  A    between atoms: O_5  and  C_19 
REMARK    4  A    between atoms: O_6  and  C_20 
REMARK    5  A    between atoms: O_7  and  C_22 
REMARK    6  A    between atoms: C_8  and  C_10 
ROOT
HETATM    1  O   UNK     0       4.550  44.474  22.642  0.00  0.00    -0.337 OA
HETATM    2  O   UNK     0       5.715  41.989  19.591  0.00  0.00    -0.289 OA
HETATM    3  C   UNK     0       4.115  43.107  22.588  0.00  0.00     0.198 C 
HETATM    4  C   UNK     0       5.170  42.215  21.932  0.00  0.00     0.227 C 
HETATM    5  C   UNK     0       5.433  42.724  20.531  0.00  0.00     0.196 C 
HETATM    6  C   UNK     0       5.367  44.188  20.362  0.00  0.00     0.079 A 
HETATM    7  C   UNK     0       4.944  44.980  21.433  0.00  0.00     0.089 A 
HETATM    8  C   UNK     0       5.750  44.779  19.155  0.00  0.00     0.085 A 
HETATM    9  C   UNK     0       4.939  46.370  21.305  0.00  0.00     0.074 A 
HETATM   10  C   UNK     0       5.724  46.168  19.028  0.00  0.00     0.074 A 
HETATM   11  C   UNK     0       5.324  46.962  20.102  0.00  0.00     0.071 A 
ENDROOT
BRANCH   3  12
HETATM   12  C   UNK     0       3.817  42.673  24.010  0.00  0.00    -0.023 A 
HETATM   13  C   UNK     0       2.953  41.605  24.243  0.00  0.00     0.049 A 
HETATM   14  C   UNK     0       2.679  41.205  25.552  0.00  0.00     0.099 A 
HETATM   15  C   UNK     0       3.268  41.875  26.623  0.00  0.00     0.098 A 
HETATM   16  C   UNK     0       4.133  42.944  26.388  0.00  0.00     0.040 A 
HETATM   17  C   UNK     0       4.407  43.343  25.080  0.00  0.00     0.013 A 
BRANCH  14  18
HETATM   18  O   UNK     0       1.834  40.160  25.770  0.00  0.00    -0.358 OA
HETATM   19  H   UNK     0       1.056  40.490  26.252  0.00  0.00     0.217 HD
ENDBRANCH  14  18
BRANCH  15  20
HETATM   20  O   UNK     0       3.009  41.493  27.906  0.00  0.00    -0.358 OA
HETATM   21  H   UNK     0       3.267  42.212  28.508  0.00  0.00     0.217 HD
ENDBRANCH  15  20
ENDBRANCH   3  12
BRANCH   4  22
HETATM   22  O   UNK     0       4.694  40.883  21.836  0.00  0.00    -0.385 OA
HETATM   23  H   UNK     0       5.129  40.471  21.070  0.00  0.00     0.210 HD
ENDBRANCH   4  22
BRANCH   8  24
HETATM   24  O   UNK     0       6.166  44.054  18.079  0.00  0.00    -0.360 OA
HETATM   25  H   UNK     0       5.409  43.677  17.607  0.00  0.00     0.217 HD
ENDBRANCH   8  24
BRANCH  11  26
HETATM   26  O   UNK     0       5.308  48.318  19.977  0.00  0.00    -0.361 OA
HETATM   27  H   UNK     0       4.886  48.552  19.132  0.00  0.00     0.217 HD
ENDBRANCH  11  26
TORSDOF 6
ENDMDL
MODEL 7
REMARK VINA RESULT:      -7.1      1.949      6.897
REMARK  6 active torsions:
REMARK  status: ('A' for Active; 'I' for Inactive)
REMARK    1  A    between atoms: O_2  and  C_9 
REMARK    2  A    between atoms: O_4  and  C_14 
REMARK    3  A    between atoms: O_5  and  C_19 
REMARK    4  A    between atoms: O_6  and  C_20 
REMARK    5  A    between atoms: O_7  and  C_22 
REMARK    6  A    between atoms: C_8  and  C_10 
ROOT
HETATM    1  O   UNK     0       6.919  43.366  21.761  0.00  0.00    -0.337 OA
HETATM    2  O   UNK     0       5.393  46.105  19.113  0.00  0.00    -0.289 OA
HETATM    3  C   UNK     0       5.886  44.284  22.151  0.00  0.00     0.198 C 
HETATM    4  C   UNK     0       4.973  44.625  20.972  0.00  0.00     0.227 C 
HETATM    5  C   UNK     0       5.809  45.236  19.870  0.00  0.00     0.196 C 
HETATM    6  C   UNK     0       7.174  44.691  19.729  0.00  0.00     0.079 A 
HETATM    7  C   UNK     0       7.643  43.776  20.673  0.00  0.00     0.089 A 
HETATM    8  C   UNK     0       7.976  45.064  18.647  0.00  0.00     0.085 A 
HETATM    9  C   UNK     0       8.907  43.205  20.514  0.00  0.00     0.074 A 
HETATM   10  C   UNK     0       9.246  44.505  18.504  0.00  0.00     0.074 A 
HETATM   11  C   UNK     0       9.709  43.573  19.433  0.00  0.00     0.071 A 
ENDROOT
BRANCH   3  12
HETATM   12  C   UNK     0       5.119  43.639  23.289  0.00  0.00    -0.023 A 
HETATM   13  C   UNK     0       4.471  42.423  23.088  0.00  0.00     0.049 A 
HETATM   14  C   UNK     0       3.765  41.829  24.134  0.00  0.00     0.099 A 
HETATM   15  C   UNK     0       3.707  42.454  25.379  0.00  0.00     0.098 A 
HETATM   16  C   UNK     0       4.357  43.673  25.579  0.00  0.00     0.040 A 
HETATM   17  C   UNK     0       5.063  44.266  24.533  0.00  0.00     0.013 A 
BRANCH  14  18
HETATM   18  O   UNK     0       3.135  40.639  23.928  0.00  0.00    -0.358 OA
HETATM   19  H   UNK     0       2.406  40.563  24.568  0.00  0.00     0.217 HD
ENDBRANCH  14  18
BRANCH  15  20
HETATM   20  O   UNK     0       3.022  41.884  26.410  0.00  0.00    -0.358 OA
HETATM   21  H   UNK     0       3.642  41.372  26.957  0.00  0.00     0.217 HD
ENDBRANCH  15  20
ENDBRANCH   3  12
BRANCH   4  22
HETATM   22  O   UNK     0       3.999  45.576  21.367  0.00  0.00    -0.385 OA
HETATM   23  H   UNK     0       4.428  46.448  21.375  0.00  0.00     0.210 HD
ENDBRANCH   4  22
BRANCH   8  24
HETATM   24  O   UNK     0       7.568  45.955  17.700  0.00  0.00    -0.360 OA
HETATM   25  H   UNK     0       6.635  45.818  17.480  0.00  0.00     0.217 HD
ENDBRANCH   8  24
BRANCH  11  26
HETATM   26  O   UNK     0      10.946  43.024  19.286  0.00  0.00    -0.361 OA
HETATM   27  H   UNK     0      11.600  43.738  19.191  0.00  0.00     0.217 HD
ENDBRANCH  11  26
TORSDOF 6
ENDMDL
MODEL 8
REMARK VINA RESULT:      -7.0     22.614     24.244
REMARK  6 active torsions:
REMARK  status: ('A' for Active; 'I' for Inactive)
REMARK    1  A    between atoms: O_2  and  C_9 
REMARK    2  A    between atoms: O_4  and  C_14 
REMARK    3  A    between atoms: O_5  and  C_19 
REMARK    4  A    between atoms: O_6  and  C_20 
REMARK    5  A    between atoms: O_7  and  C_22 
REMARK    6  A    between atoms: C_8  and  C_10 
ROOT
HETATM    1  O   UNK     0      -8.207  47.810   1.980  0.00  0.00    -0.337 OA
HETATM    2  O   UNK     0     -10.634  47.807   5.289  0.00  0.00    -0.289 OA
HETATM    3  C   UNK     0      -9.388  48.625   2.038  0.00  0.00     0.198 C 
HETATM    4  C   UNK     0      -9.681  49.075   3.470  0.00  0.00     0.227 C 
HETATM    5  C   UNK     0      -9.863  47.849   4.338  0.00  0.00     0.196 C 
HETATM    6  C   UNK     0      -9.014  46.693   3.992  0.00  0.00     0.079 A 
HETATM    7  C   UNK     0      -8.223  46.747   2.842  0.00  0.00     0.089 A 
HETATM    8  C   UNK     0      -8.979  45.568   4.821  0.00  0.00     0.085 A 
HETATM    9  C   UNK     0      -7.368  45.685   2.539  0.00  0.00     0.074 A 
HETATM   10  C   UNK     0      -8.137  44.503   4.502  0.00  0.00     0.074 A 
HETATM   11  C   UNK     0      -7.329  44.563   3.367  0.00  0.00     0.071 A 
ENDROOT
BRANCH   3  12
HETATM   12  C   UNK     0      -9.167  49.805   1.111  0.00  0.00    -0.023 A 
HETATM   13  C   UNK     0      -7.943  49.959   0.465  0.00  0.00     0.049 A 
HETATM   14  C   UNK     0      -7.738  51.044  -0.388  0.00  0.00     0.099 A 
HETATM   15  C   UNK     0      -8.759  51.972  -0.592  0.00  0.00     0.098 A 
HETATM   16  C   UNK     0      -9.985  51.815   0.055  0.00  0.00     0.040 A 
HETATM   17  C   UNK     0     -10.188  50.731   0.908  0.00  0.00     0.013 A 
BRANCH  14  18
HETATM   18  O   UNK     0      -6.538  51.187  -1.016  0.00  0.00    -0.358 OA
HETATM   19  H   UNK     0      -5.920  51.617  -0.400  0.00  0.00     0.217 HD
ENDBRANCH  14  18
BRANCH  15  20
HETATM   20  O   UNK     0      -8.572  53.036  -1.424  0.00  0.00    -0.358 OA
HETATM   21  H   UNK     0      -8.957  53.829  -1.014  0.00  0.00     0.217 HD
ENDBRANCH  15  20
ENDBRANCH   3  12
BRANCH   4  22
HETATM   22  O   UNK     0     -10.882  49.827   3.510  0.00  0.00    -0.385 OA
HETATM   23  H   UNK     0     -10.697  50.651   3.991  0.00  0.00     0.210 HD
ENDBRANCH   4  22
BRANCH   8  24
HETATM   24  O   UNK     0      -9.732  45.462   5.951  0.00  0.00    -0.360 OA
HETATM   25  H   UNK     0      -9.627  46.249   6.507  0.00  0.00     0.217 HD
ENDBRANCH   8  24
BRANCH  11  26
HETATM   26  O   UNK     0      -6.503  43.524   3.065  0.00  0.00    -0.361 OA
HETATM   27  H   UNK     0      -5.694  43.874   2.653  0.00  0.00     0.217 HD
ENDBRANCH  11  26
TORSDOF 6
ENDMDL
MODEL 9
REMARK VINA RESULT:      -6.9     28.542     30.238
REMARK  6 active torsions:
REMARK  status: ('A' for Active; 'I' for Inactive)
REMARK    1  A    between atoms: O_2  and  C_9 
REMARK    2  A    between atoms: O_4  and  C_14 
REMARK    3  A    between atoms: O_5  and  C_19 
REMARK    4  A    between atoms: O_6  and  C_20 
REMARK    5  A    between atoms: O_7  and  C_22 
REMARK    6  A    between atoms: C_8  and  C_10 
ROOT
HETATM    1  O   UNK     0      15.968  67.464   7.704  0.00  0.00    -0.337 OA
HETATM    2  O   UNK     0      12.660  69.302   9.293  0.00  0.00    -0.289 OA
HETATM    3  C   UNK     0      16.037  68.178   8.948  0.00  0.00     0.198 C 
HETATM    4  C   UNK     0      14.712  68.100   9.707  0.00  0.00     0.227 C 
HETATM    5  C   UNK     0      13.621  68.690   8.840  0.00  0.00     0.196 C 
HETATM    6  C   UNK     0      13.759  68.451   7.390  0.00  0.00     0.079 A 
HETATM    7  C   UNK     0      14.917  67.837   6.908  0.00  0.00     0.089 A 
HETATM    8  C   UNK     0      12.731  68.807   6.513  0.00  0.00     0.085 A 
HETATM    9  C   UNK     0      15.032  67.548   5.547  0.00  0.00     0.074 A 
HETATM   10  C   UNK     0      12.860  68.533   5.152  0.00  0.00     0.074 A 
HETATM   11  C   UNK     0      14.005  67.900   4.670  0.00  0.00     0.071 A 
ENDROOT
BRANCH   3  12
HETATM   12  C   UNK     0      17.179  67.578   9.747  0.00  0.00    -0.023 A 
HETATM   13  C   UNK     0      17.487  66.226   9.608  0.00  0.00     0.049 A 
HETATM   14  C   UNK     0      18.537  65.673  10.343  0.00  0.00     0.099 A 
HETATM   15  C   UNK     0      19.275  66.474  11.214  0.00  0.00     0.098 A 
HETATM   16  C   UNK     0      18.965  67.827  11.350  0.00  0.00     0.040 A 
HETATM   17  C   UNK     0      17.916  68.379  10.617  0.00  0.00     0.013 A 
BRANCH  14  18
HETATM   18  O   UNK     0      18.831  64.351  10.201  0.00  0.00    -0.358 OA
HETATM   19  H   UNK     0      19.102  64.003  11.068  0.00  0.00     0.217 HD
ENDBRANCH  14  18
BRANCH  15  20
HETATM   20  O   UNK     0      20.303  65.946  11.936  0.00  0.00    -0.358 OA
HETATM   21  H   UNK     0      21.005  66.614  12.021  0.00  0.00     0.217 HD
ENDBRANCH  15  20
ENDBRANCH   3  12
BRANCH   4  22
HETATM   22  O   UNK     0      14.787  68.860  10.901  0.00  0.00    -0.385 OA
HETATM   23  H   UNK     0      15.093  69.751  10.663  0.00  0.00     0.210 HD
ENDBRANCH   4  22
BRANCH   8  24
HETATM   24  O   UNK     0      11.583  69.411   6.931  0.00  0.00    -0.360 OA
HETATM   25  H   UNK     0      11.230  68.968   7.717  0.00  0.00     0.217 HD
ENDBRANCH   8  24
BRANCH  11  26
HETATM   26  O   UNK     0      14.123  67.627   3.342  0.00  0.00    -0.361 OA
HETATM   27  H   UNK     0      14.482  68.409   2.889  0.00  0.00     0.217 HD
ENDBRANCH  11  26
TORSDOF 6
ENDMDL
