REMARK  Name = 65064
REMARK  12 active torsions:
REMARK  status: ('A' for Active; 'I' for Inactive)
REMARK    1  A    between atoms: O_2  and  C_12
REMARK    2  A    between atoms: O_2  and  C_24
REMARK    3  A    between atoms: O_3  and  C_18
REMARK    4  A    between atoms: O_4  and  C_23
REMARK    5  A    between atoms: O_5  and  C_25
REMARK    6  A    between atoms: O_6  and  C_26
REMARK    7  A    between atoms: O_8  and  C_27
REMARK    8  A    between atoms: O_9  and  C_31
REMARK    9  A    between atoms: O_10  and  C_32
REMARK   10  A    between atoms: O_11  and  C_33
REMARK   11  A    between atoms: C_13  and  C_16
REMARK   12  A    between atoms: C_24  and  C_28
REMARK                            x       y       z     vdW  Elec       q    Type
REMARK                         _______ _______ _______ _____ _____    ______ ____
ROOT
ATOM      1  O   UNL     1      -1.118  -1.763  -0.644  0.00  0.00    -0.480 OA
ATOM      2  C   UNL     1       0.009  -2.502  -0.394  0.00  0.00    +0.132 A 
ATOM      3  C   UNL     1       0.483  -3.279  -1.454  0.00  0.00    +0.091 A 
ATOM      4  C   UNL     1       1.627  -4.059  -1.291  0.00  0.00    +0.124 A 
ATOM      5  C   UNL     1       2.302  -4.059  -0.073  0.00  0.00    +0.091 A 
ATOM      6  C   UNL     1       1.838  -3.272   0.982  0.00  0.00    +0.127 A 
ATOM      7  C   UNL     1       0.695  -2.476   0.827  0.00  0.00    +0.039 A 
ATOM      8  C   UNL     1       0.216  -1.629   1.975  0.00  0.00    +0.091 C 
ATOM      9  C   UNL     1      -0.811  -0.600   1.507  0.00  0.00    +0.226 C 
ATOM     10  C   UNL     1      -1.787  -1.263   0.525  0.00  0.00    +0.245 C 
ENDROOT
BRANCH  10  11
ATOM     11  C   UNL     1      -2.898  -0.317   0.110  0.00  0.00    +0.003 A 
ATOM     12  C   UNL     1      -2.740   0.490  -1.016  0.00  0.00    +0.056 A 
ATOM     13  C   UNL     1      -3.762   1.359  -1.398  0.00  0.00    +0.162 A 
ATOM     14  C   UNL     1      -4.941   1.420  -0.654  0.00  0.00    +0.201 A 
ATOM     15  C   UNL     1      -5.097   0.611   0.472  0.00  0.00    +0.162 A 
ATOM     16  C   UNL     1      -4.075  -0.258   0.854  0.00  0.00    +0.056 A 
BRANCH  15  17
ATOM     17  O   UNL     1      -6.243   0.662   1.207  0.00  0.00    -0.503 OA
ATOM     18  H   UNL     1      -6.173   0.035   1.947  0.00  0.00    +0.292 HD
ENDBRANCH  15  17
BRANCH  14  19
ATOM     19  O   UNL     1      -5.939   2.270  -1.026  0.00  0.00    -0.501 OA
ATOM     20  H   UNL     1      -5.654   2.748  -1.825  0.00  0.00    +0.292 HD
ENDBRANCH  14  19
BRANCH  13  21
ATOM     21  O   UNL     1      -3.597   2.143  -2.500  0.00  0.00    -0.503 OA
ATOM     22  H   UNL     1      -2.722   1.966  -2.887  0.00  0.00    +0.292 HD
ENDBRANCH  13  21
ENDBRANCH  10  11
BRANCH   6  23
ATOM     23  O   UNL     1       2.521  -3.295   2.163  0.00  0.00    -0.506 OA
ATOM     24  H   UNL     1       3.279  -3.899   2.082  0.00  0.00    +0.292 HD
ENDBRANCH   6  23
BRANCH   4  25
ATOM     25  O   UNL     1       2.082  -4.822  -2.322  0.00  0.00    -0.507 OA
ATOM     26  H   UNL     1       1.494  -4.702  -3.088  0.00  0.00    +0.292 HD
ENDBRANCH   4  25
BRANCH   9  27
ATOM     27  O   UNL     1      -0.133   0.482   0.867  0.00  0.00    -0.453 OA
BRANCH  27  28
ATOM     28  C   UNL     1       0.780   1.139   1.629  0.00  0.00    +0.340 C 
ATOM     29  O   UNL     1       0.742   1.280   2.841  0.00  0.00    -0.245 OA
BRANCH  28  30
ATOM     30  C   UNL     1       1.868   1.686   0.779  0.00  0.00    +0.066 A 
ATOM     31  C   UNL     1       2.204   1.022  -0.384  0.00  0.00    +0.064 A 
ATOM     32  C   UNL     1       3.226   1.536  -1.182  0.00  0.00    +0.163 A 
ATOM     33  C   UNL     1       3.889   2.703  -0.801  0.00  0.00    +0.201 A 
ATOM     34  C   UNL     1       3.530   3.356   0.378  0.00  0.00    +0.163 A 
ATOM     35  C   UNL     1       2.509   2.841   1.177  0.00  0.00    +0.064 A 
BRANCH  34  36
ATOM     36  O   UNL     1       4.170   4.496   0.761  0.00  0.00    -0.503 OA
ATOM     37  H   UNL     1       3.790   4.806   1.601  0.00  0.00    +0.292 HD
ENDBRANCH  34  36
BRANCH  33  38
ATOM     38  O   UNL     1       4.887   3.206  -1.582  0.00  0.00    -0.501 OA
ATOM     39  H   UNL     1       5.228   4.015  -1.161  0.00  0.00    +0.292 HD
ENDBRANCH  33  38
BRANCH  32  40
ATOM     40  O   UNL     1       3.566   0.891  -2.333  0.00  0.00    -0.503 OA
ATOM     41  H   UNL     1       3.003   0.104  -2.434  0.00  0.00    +0.292 HD
ENDBRANCH  32  40
ENDBRANCH  28  30
ENDBRANCH  27  28
ENDBRANCH   9  27
TORSDOF 12
