MODEL 1
REMARK VINA RESULT:      -9.0      0.000      0.000
REMARK SMILES O=C(O[C@@H]1O[C@@H]2COC(=O)c3cc(O)c(O)c(O)c3-c3c(cc(O)c(O)c3O)C(=O)[OH+][C@H]2[C@@H](O)[C@H]1O)c1cc(O)c(O)c(O)c1
REMARK SMILES IDX 31 1 32 3 5 4 6 5 4 6 35 8 33 9 3 10 2 11 1 12 37 13 45 14
REMARK SMILES IDX 38 15 43 16 39 17 41 18 44 19 40 21 42 23 36 25 34 27 29 29
REMARK SMILES IDX 30 30 21 31 22 32 20 33 23 34 27 35 25 36 19 37 11 38 17 39
REMARK SMILES IDX 12 40 15 41 13 42 9 43 10 44 8 45 7 46 18 48 16 50 14 52
REMARK SMILES IDX 24 54 28 56 26 58
REMARK H PARENT 31 2 44 20 40 22 42 24 36 26 34 28 18 49 16 51 14 53 24 55
REMARK H PARENT 28 57 26 59
REMARK Flexibility Score: 70.00
ROOT
ATOM      1  O   UNL     1     182.085 179.340 172.845  1.00  0.00    -0.545 OA
ATOM      2  H   UNL     1     182.957 178.951 172.735  1.00  0.00     0.400 HD
ENDROOT
BRANCH   1   3
ATOM      3  C   UNL     1     182.215 180.740 172.598  1.00  0.00     0.294 C 
ATOM      4  O   UNL     1     183.430 182.380 171.371  1.00  0.00    -0.327 OA
ATOM      5  C   UNL     1     183.507 181.053 171.862  1.00  0.00     0.226 C
ATOM      6  C   UNL     1     183.487 183.295 172.459  1.00  0.00     0.343 C 
ATOM      7  G   UNL     1     183.713 180.076 170.722  1.00  0.00     0.000 C
ATOM      8  C   UNL     1     182.286 183.088 173.404  1.00  0.00     0.218 C 
ATOM      9  C   UNL     1     182.217 181.615 173.851  1.00  0.00     0.215 C 
BRANCH   6  10
ATOM     10  O   UNL     1     183.492 184.619 171.954  1.00  0.00    -0.429 OA
BRANCH  10  11
ATOM     11  C   UNL     1     184.626 185.363 172.058  1.00  0.00     0.340 C 
ATOM     12  O   UNL     1     184.912 186.161 171.193  1.00  0.00    -0.246 OA
BRANCH  11  13
ATOM     13  C   UNL     1     185.505 185.182 173.221  1.00  0.00     0.067 A 
ATOM     14  C   UNL     1     185.292 185.940 174.361  1.00  0.00     0.066 A 
ATOM     15  C   UNL     1     186.531 184.251 173.190  1.00  0.00     0.066 A 
ATOM     16  C   UNL     1     186.101 185.768 175.472  1.00  0.00     0.162 A 
ATOM     17  C   UNL     1     187.343 184.080 174.302  1.00  0.00     0.162 A 
ATOM     18  C   UNL     1     187.128 184.837 175.443  1.00  0.00     0.200 A 
BRANCH  16  19
ATOM     19  O   UNL     1     185.887 186.513 176.590  1.00  0.00    -0.504 OA
ATOM     20  H   UNL     1     186.629 186.905 177.055  1.00  0.00     0.293 HD
ENDBRANCH  16  19
BRANCH  17  21
ATOM     21  O   UNL     1     188.351 183.168 174.274  1.00  0.00    -0.504 OA
ATOM     22  H   UNL     1     189.179 183.384 173.841  1.00  0.00     0.293 HD
ENDBRANCH  17  21
BRANCH  18  23
ATOM     23  O   UNL     1     187.923 184.666 176.534  1.00  0.00    -0.502 OA
ATOM     24  H   UNL     1     187.658 185.022 177.385  1.00  0.00     0.293 HD
ENDBRANCH  18  23
ENDBRANCH  11  13
ENDBRANCH  10  11
ENDBRANCH   6  10
BRANCH   8  25
ATOM     25  O   UNL     1     182.423 183.938 174.533  1.00  0.00    -0.384 OA
ATOM     26  H   UNL     1     183.230 183.850 175.137  1.00  0.00     0.211 HD
ENDBRANCH   8  25
BRANCH   9  27
ATOM     27  O   UNL     1     183.340 181.304 174.660  1.00  0.00    -0.383 OA
ATOM     28  H   UNL     1     184.258 181.224 174.242  1.00  0.00     0.211 HD
ENDBRANCH   9  27
ENDBRANCH   1   3
BRANCH   1  29
ATOM     29  C   UNL     1     180.970 178.775 172.295  1.00  0.00     0.551 C 
ATOM     30  O   UNL     1     179.909 179.321 172.495  1.00  0.00     0.048 OA
BRANCH  29  31
ATOM     31  C   UNL     1     180.981 177.524 171.505  1.00  0.00     0.139 A 
ATOM     32  C   UNL     1     182.227 176.978 171.225  1.00  0.00     0.073 A 
ATOM     33  C   UNL     1     179.827 176.858 171.064  1.00  0.00     0.053 A 
ATOM     34  C   UNL     1     182.350 175.794 170.523  1.00  0.00     0.162 A 
ATOM     35  C   UNL     1     179.975 175.667 170.363  1.00  0.00     0.170 A 
ATOM     36  C   UNL     1     181.219 175.135 170.090  1.00  0.00     0.200 A 
BRANCH  33  37
ATOM     37  C   UNL     1     178.391 177.284 171.258  1.00  0.00     0.047 A 
ATOM     38  C   UNL     1     177.490 176.750 172.180  1.00  0.00     0.075 A 
ATOM     39  C   UNL     1     177.942 178.278 170.399  1.00  0.00     0.170 A 
ATOM     40  C   UNL     1     176.176 177.205 172.211  1.00  0.00     0.066 A 
ATOM     41  C   UNL     1     176.637 178.728 170.433  1.00  0.00     0.200 A 
ATOM     42  C   UNL     1     175.746 178.189 171.339  1.00  0.00     0.162 A 
BRANCH  38  43
ATOM     43  C   UNL     1     177.870 175.725 173.158  1.00  0.00     0.339 C 
ATOM     44  O   UNL     1     178.263 176.034 174.260  1.00  0.00    -0.246 OA
BRANCH  43  45
ATOM     45  O   UNL     1     177.760 174.414 172.792  1.00  0.00    -0.459 OA
BRANCH  45  46
ATOM     46  C   UNL     1     178.499 173.446 173.539  1.00  0.00     0.272 C
ATOM     47  G   UNL     1     179.826 173.083 172.902  1.00  0.00     0.000 C
ENDBRANCH  45  46
ENDBRANCH  43  45
ENDBRANCH  38  43
BRANCH  39  48
ATOM     48  O   UNL     1     178.805 178.805 169.493  1.00  0.00    -0.504 OA
ATOM     49  H   UNL     1     179.466 178.241 169.084  1.00  0.00     0.293 HD
ENDBRANCH  39  48
BRANCH  41  50
ATOM     50  O   UNL     1     176.235 179.696 169.565  1.00  0.00    -0.502 OA
ATOM     51  H   UNL     1     176.770 180.483 169.448  1.00  0.00     0.293 HD
ENDBRANCH  41  50
BRANCH  42  52
ATOM     52  O   UNL     1     174.457 178.622 171.377  1.00  0.00    -0.504 OA
ATOM     53  H   UNL     1     174.194 179.272 172.031  1.00  0.00     0.293 HD
ENDBRANCH  42  52
ENDBRANCH  33  37
BRANCH  34  54
ATOM     54  O   UNL     1     183.579 175.279 170.263  1.00  0.00    -0.504 OA
ATOM     55  H   UNL     1     184.357 175.761 170.545  1.00  0.00     0.293 HD
ENDBRANCH  34  54
BRANCH  35  56
ATOM     56  O   UNL     1     178.869 175.006 169.930  1.00  0.00    -0.504 OA
ATOM     57  H   UNL     1     178.623 175.025 169.002  1.00  0.00     0.293 HD
ENDBRANCH  35  56
BRANCH  36  58
ATOM     58  O   UNL     1     181.324 173.966 169.403  1.00  0.00    -0.502 OA
ATOM     59  H   UNL     1     182.143 173.469 169.430  1.00  0.00     0.293 HD
ENDBRANCH  36  58
ENDBRANCH  29  31
ENDBRANCH   1  29
TORSDOF 14
ENDMDL
MODEL 2
REMARK VINA RESULT:      -9.0      1.462      3.891
REMARK SMILES O=C(O[C@@H]1O[C@@H]2COC(=O)c3cc(O)c(O)c(O)c3-c3c(cc(O)c(O)c3O)C(=O)[OH+][C@H]2[C@@H](O)[C@H]1O)c1cc(O)c(O)c(O)c1
REMARK SMILES IDX 31 1 32 3 5 4 6 5 4 6 35 8 33 9 3 10 2 11 1 12 37 13 45 14
REMARK SMILES IDX 38 15 43 16 39 17 41 18 44 19 40 21 42 23 36 25 34 27 29 29
REMARK SMILES IDX 30 30 21 31 22 32 20 33 23 34 27 35 25 36 19 37 11 38 17 39
REMARK SMILES IDX 12 40 15 41 13 42 9 43 10 44 8 45 7 46 18 48 16 50 14 52
REMARK SMILES IDX 24 54 28 56 26 58
REMARK H PARENT 31 2 44 20 40 22 42 24 36 26 34 28 18 49 16 51 14 53 24 55
REMARK H PARENT 28 57 26 59
REMARK Flexibility Score: 70.00
ROOT
ATOM      1  O   UNL     1     181.049 179.819 170.794  1.00  0.00    -0.545 OA
ATOM      2  H   UNL     1     181.862 179.305 170.792  1.00  0.00     0.400 HD
ENDROOT
BRANCH   1   3
ATOM      3  C   UNL     1     181.395 181.148 171.182  1.00  0.00     0.294 C 
ATOM      4  O   UNL     1     182.961 182.456 172.410  1.00  0.00    -0.327 OA
ATOM      5  C   UNL     1     182.431 181.147 172.295  1.00  0.00     0.226 C
ATOM      6  C   UNL     1     181.968 183.328 172.938  1.00  0.00     0.343 C 
ATOM      7  G   UNL     1     183.532 180.153 171.987  1.00  0.00     0.000 C
ATOM      8  C   UNL     1     180.757 183.410 171.987  1.00  0.00     0.218 C 
ATOM      9  C   UNL     1     180.227 181.994 171.688  1.00  0.00     0.215 C 
BRANCH   6  10
ATOM     10  O   UNL     1     182.531 184.614 173.129  1.00  0.00    -0.429 OA
BRANCH  10  11
ATOM     11  C   UNL     1     183.792 184.859 172.681  1.00  0.00     0.340 C 
ATOM     12  O   UNL     1     183.982 185.138 171.518  1.00  0.00    -0.246 OA
BRANCH  11  13
ATOM     13  C   UNL     1     184.920 184.770 173.618  1.00  0.00     0.067 A 
ATOM     14  C   UNL     1     184.959 185.609 174.720  1.00  0.00     0.066 A 
ATOM     15  C   UNL     1     185.934 183.847 173.414  1.00  0.00     0.066 A 
ATOM     16  C   UNL     1     186.007 185.525 175.621  1.00  0.00     0.162 A 
ATOM     17  C   UNL     1     186.985 183.765 174.315  1.00  0.00     0.162 A 
ATOM     18  C   UNL     1     187.022 184.603 175.420  1.00  0.00     0.200 A 
BRANCH  16  19
ATOM     19  O   UNL     1     186.039 186.349 176.704  1.00  0.00    -0.504 OA
ATOM     20  H   UNL     1     185.397 186.240 177.409  1.00  0.00     0.293 HD
ENDBRANCH  16  19
BRANCH  17  21
ATOM     21  O   UNL     1     187.982 182.861 174.118  1.00  0.00    -0.504 OA
ATOM     22  H   UNL     1     188.496 182.886 173.310  1.00  0.00     0.293 HD
ENDBRANCH  17  21
BRANCH  18  23
ATOM     23  O   UNL     1     188.052 184.518 176.305  1.00  0.00    -0.502 OA
ATOM     24  H   UNL     1     188.958 184.609 176.001  1.00  0.00     0.293 HD
ENDBRANCH  18  23
ENDBRANCH  11  13
ENDBRANCH  10  11
ENDBRANCH   6  10
BRANCH   8  25
ATOM     25  O   UNL     1     179.741 184.199 172.585  1.00  0.00    -0.384 OA
ATOM     26  H   UNL     1     179.822 185.208 172.593  1.00  0.00     0.211 HD
ENDBRANCH   8  25
BRANCH   9  27
ATOM     27  O   UNL     1     179.690 181.422 172.870  1.00  0.00    -0.383 OA
ATOM     28  H   UNL     1     179.137 181.988 173.500  1.00  0.00     0.211 HD
ENDBRANCH   9  27
ENDBRANCH   1   3
BRANCH   1  29
ATOM     29  C   UNL     1     180.151 179.750 169.769  1.00  0.00     0.551 C 
ATOM     30  O   UNL     1     180.368 180.421 168.786  1.00  0.00     0.048 OA
BRANCH  29  31
ATOM     31  C   UNL     1     178.916 178.934 169.805  1.00  0.00     0.139 A 
ATOM     32  C   UNL     1     177.728 179.594 169.522  1.00  0.00     0.073 A 
ATOM     33  C   UNL     1     178.888 177.556 170.071  1.00  0.00     0.053 A 
ATOM     34  C   UNL     1     176.521 178.920 169.496  1.00  0.00     0.162 A 
ATOM     35  C   UNL     1     177.663 176.898 170.036  1.00  0.00     0.170 A 
ATOM     36  C   UNL     1     176.489 177.566 169.754  1.00  0.00     0.200 A 
BRANCH  33  37
ATOM     37  C   UNL     1     180.058 176.661 170.404  1.00  0.00     0.047 A 
ATOM     38  C   UNL     1     180.639 176.498 171.661  1.00  0.00     0.075 A 
ATOM     39  C   UNL     1     180.609 175.975 169.329  1.00  0.00     0.170 A 
ATOM     40  C   UNL     1     181.752 175.676 171.811  1.00  0.00     0.066 A 
ATOM     41  C   UNL     1     181.713 175.160 169.481  1.00  0.00     0.200 A 
ATOM     42  C   UNL     1     182.293 175.011 170.726  1.00  0.00     0.162 A 
BRANCH  38  43
ATOM     43  C   UNL     1     180.113 177.143 172.868  1.00  0.00     0.339 C 
ATOM     44  O   UNL     1     180.190 178.342 173.015  1.00  0.00    -0.246 OA
BRANCH  43  45
ATOM     45  O   UNL     1     179.528 176.354 173.817  1.00  0.00    -0.459 OA
BRANCH  45  46
ATOM     46  C   UNL     1     178.120 176.135 173.730  1.00  0.00     0.272 C
ATOM     47  G   UNL     1     177.744 174.668 173.674  1.00  0.00     0.000 C
ENDBRANCH  45  46
ENDBRANCH  43  45
ENDBRANCH  38  43
BRANCH  39  48
ATOM     48  O   UNL     1     180.058 176.128 168.098  1.00  0.00    -0.504 OA
ATOM     49  H   UNL     1     180.012 175.376 167.502  1.00  0.00     0.293 HD
ENDBRANCH  39  48
BRANCH  41  50
ATOM     50  O   UNL     1     182.230 174.516 168.400  1.00  0.00    -0.502 OA
ATOM     51  H   UNL     1     182.368 174.995 167.581  1.00  0.00     0.293 HD
ENDBRANCH  41  50
BRANCH  42  52
ATOM     52  O   UNL     1     183.383 174.214 170.885  1.00  0.00    -0.504 OA
ATOM     53  H   UNL     1     184.222 174.473 170.497  1.00  0.00     0.293 HD
ENDBRANCH  42  52
ENDBRANCH  33  37
BRANCH  34  54
ATOM     54  O   UNL     1     175.373 179.587 169.215  1.00  0.00    -0.504 OA
ATOM     55  H   UNL     1     175.391 180.303 168.579  1.00  0.00     0.293 HD
ENDBRANCH  34  54
BRANCH  35  56
ATOM     56  O   UNL     1     177.616 175.564 170.287  1.00  0.00    -0.504 OA
ATOM     57  H   UNL     1     176.837 175.172 170.690  1.00  0.00     0.293 HD
ENDBRANCH  35  56
BRANCH  36  58
ATOM     58  O   UNL     1     175.310 176.889 169.727  1.00  0.00    -0.502 OA
ATOM     59  H   UNL     1     175.309 175.938 169.598  1.00  0.00     0.293 HD
ENDBRANCH  36  58
ENDBRANCH  29  31
ENDBRANCH   1  29
TORSDOF 14
ENDMDL
MODEL 3
REMARK VINA RESULT:      -8.9      1.622      2.914
REMARK SMILES O=C(O[C@@H]1O[C@@H]2COC(=O)c3cc(O)c(O)c(O)c3-c3c(cc(O)c(O)c3O)C(=O)[OH+][C@H]2[C@@H](O)[C@H]1O)c1cc(O)c(O)c(O)c1
REMARK SMILES IDX 31 1 32 3 5 4 6 5 4 6 35 8 33 9 3 10 2 11 1 12 37 13 45 14
REMARK SMILES IDX 38 15 43 16 39 17 41 18 44 19 40 21 42 23 36 25 34 27 29 29
REMARK SMILES IDX 30 30 21 31 22 32 20 33 23 34 27 35 25 36 19 37 11 38 17 39
REMARK SMILES IDX 12 40 15 41 13 42 9 43 10 44 8 45 7 46 18 48 16 50 14 52
REMARK SMILES IDX 24 54 28 56 26 58
REMARK H PARENT 31 2 44 20 40 22 42 24 36 26 34 28 18 49 16 51 14 53 24 55
REMARK H PARENT 28 57 26 59
REMARK Flexibility Score: 70.00
ROOT
ATOM      1  O   UNL     1     180.815 179.864 171.384  1.00  0.00    -0.545 OA
ATOM      2  H   UNL     1     180.883 179.881 170.426  1.00  0.00     0.400 HD
ENDROOT
BRANCH   1   3
ATOM      3  C   UNL     1     181.143 181.172 171.852  1.00  0.00     0.294 C 
ATOM      4  O   UNL     1     182.151 183.243 171.245  1.00  0.00    -0.327 OA
ATOM      5  C   UNL     1     182.116 181.866 170.912  1.00  0.00     0.226 C
ATOM      6  C   UNL     1     182.792 183.412 172.504  1.00  0.00     0.343 C 
ATOM      7  G   UNL     1     181.680 181.679 169.472  1.00  0.00     0.000 C
ATOM      8  C   UNL     1     182.001 182.695 173.617  1.00  0.00     0.218 C 
ATOM      9  C   UNL     1     181.786 181.216 173.237  1.00  0.00     0.215 C 
BRANCH   6  10
ATOM     10  O   UNL     1     182.897 184.796 172.791  1.00  0.00    -0.429 OA
BRANCH  10  11
ATOM     11  C   UNL     1     184.110 185.404 172.690  1.00  0.00     0.340 C 
ATOM     12  O   UNL     1     184.328 186.182 171.787  1.00  0.00    -0.246 OA
BRANCH  11  13
ATOM     13  C   UNL     1     185.155 185.100 173.677  1.00  0.00     0.067 A 
ATOM     14  C   UNL     1     186.115 184.147 173.382  1.00  0.00     0.066 A 
ATOM     15  C   UNL     1     185.193 185.770 174.890  1.00  0.00     0.066 A 
ATOM     16  C   UNL     1     187.116 183.862 174.296  1.00  0.00     0.162 A 
ATOM     17  C   UNL     1     186.194 185.482 175.806  1.00  0.00     0.162 A 
ATOM     18  C   UNL     1     187.157 184.530 175.509  1.00  0.00     0.200 A 
BRANCH  16  19
ATOM     19  O   UNL     1     188.059 182.926 174.000  1.00  0.00    -0.504 OA
ATOM     20  H   UNL     1     188.980 183.089 174.215  1.00  0.00     0.293 HD
ENDBRANCH  16  19
BRANCH  17  21
ATOM     21  O   UNL     1     186.234 186.137 176.998  1.00  0.00    -0.504 OA
ATOM     22  H   UNL     1     186.942 185.955 177.618  1.00  0.00     0.293 HD
ENDBRANCH  17  21
BRANCH  18  23
ATOM     23  O   UNL     1     188.140 184.252 176.408  1.00  0.00    -0.502 OA
ATOM     24  H   UNL     1     189.025 184.041 176.103  1.00  0.00     0.293 HD
ENDBRANCH  18  23
ENDBRANCH  11  13
ENDBRANCH  10  11
ENDBRANCH   6  10
BRANCH   8  25
ATOM     25  O   UNL     1     182.717 182.789 174.839  1.00  0.00    -0.384 OA
ATOM     26  H   UNL     1     183.163 183.660 175.098  1.00  0.00     0.211 HD
ENDBRANCH   8  25
BRANCH   9  27
ATOM     27  O   UNL     1     183.031 180.538 173.217  1.00  0.00    -0.383 OA
ATOM     28  H   UNL     1     183.095 179.587 173.556  1.00  0.00     0.211 HD
ENDBRANCH   9  27
ENDBRANCH   1   3
BRANCH   1  29
ATOM     29  C   UNL     1     179.752 179.291 172.021  1.00  0.00     0.551 C 
ATOM     30  O   UNL     1     178.884 180.025 172.433  1.00  0.00     0.048 OA
BRANCH  29  31
ATOM     31  C   UNL     1     179.621 177.837 172.265  1.00  0.00     0.139 A 
ATOM     32  C   UNL     1     180.509 177.278 173.174  1.00  0.00     0.073 A 
ATOM     33  C   UNL     1     178.648 177.021 171.667  1.00  0.00     0.053 A 
ATOM     34  C   UNL     1     180.451 175.936 173.501  1.00  0.00     0.162 A 
ATOM     35  C   UNL     1     178.607 175.675 172.014  1.00  0.00     0.170 A 
ATOM     36  C   UNL     1     179.496 175.131 172.918  1.00  0.00     0.200 A 
BRANCH  33  37
ATOM     37  C   UNL     1     177.601 177.429 170.658  1.00  0.00     0.047 A 
ATOM     38  C   UNL     1     177.818 177.688 169.305  1.00  0.00     0.075 A 
ATOM     39  C   UNL     1     176.317 177.589 171.162  1.00  0.00     0.170 A 
ATOM     40  C   UNL     1     176.764 178.109 168.500  1.00  0.00     0.066 A 
ATOM     41  C   UNL     1     175.273 178.007 170.361  1.00  0.00     0.200 A 
ATOM     42  C   UNL     1     175.494 178.273 169.024  1.00  0.00     0.162 A 
BRANCH  38  43
ATOM     43  C   UNL     1     179.125 177.512 168.663  1.00  0.00     0.339 C 
ATOM     44  O   UNL     1     179.921 178.422 168.618  1.00  0.00    -0.246 OA
BRANCH  43  45
ATOM     45  O   UNL     1     179.419 176.292 168.125  1.00  0.00    -0.459 OA
BRANCH  45  46
ATOM     46  C   UNL     1     180.412 175.497 168.774  1.00  0.00     0.272 C
ATOM     47  G   UNL     1     180.020 174.038 168.905  1.00  0.00     0.000 C
ENDBRANCH  45  46
ENDBRANCH  43  45
ENDBRANCH  38  43
BRANCH  39  48
ATOM     48  O   UNL     1     176.091 177.347 172.478  1.00  0.00    -0.504 OA
ATOM     49  H   UNL     1     175.331 177.744 172.910  1.00  0.00     0.293 HD
ENDBRANCH  39  48
BRANCH  41  50
ATOM     50  O   UNL     1     174.032 178.163 170.897  1.00  0.00    -0.502 OA
ATOM     51  H   UNL     1     173.739 179.033 171.174  1.00  0.00     0.293 HD
ENDBRANCH  41  50
BRANCH  42  52
ATOM     52  O   UNL     1     174.474 178.689 168.228  1.00  0.00    -0.504 OA
ATOM     53  H   UNL     1     174.398 178.347 167.334  1.00  0.00     0.293 HD
ENDBRANCH  42  52
ENDBRANCH  33  37
BRANCH  34  54
ATOM     54  O   UNL     1     181.330 175.412 174.394  1.00  0.00    -0.504 OA
ATOM     55  H   UNL     1     182.004 174.805 174.087  1.00  0.00     0.293 HD
ENDBRANCH  34  54
BRANCH  35  56
ATOM     56  O   UNL     1     177.670 174.869 171.448  1.00  0.00    -0.504 OA
ATOM     57  H   UNL     1     177.934 174.141 170.879  1.00  0.00     0.293 HD
ENDBRANCH  35  56
BRANCH  36  58
ATOM     58  O   UNL     1     179.424 173.810 173.233  1.00  0.00    -0.502 OA
ATOM     59  H   UNL     1     178.685 173.285 172.921  1.00  0.00     0.293 HD
ENDBRANCH  36  58
ENDBRANCH  29  31
ENDBRANCH   1  29
TORSDOF 14
ENDMDL
MODEL 4
REMARK VINA RESULT:      -8.9      1.951      4.300
REMARK SMILES O=C(O[C@@H]1O[C@@H]2COC(=O)c3cc(O)c(O)c(O)c3-c3c(cc(O)c(O)c3O)C(=O)[OH+][C@H]2[C@@H](O)[C@H]1O)c1cc(O)c(O)c(O)c1
REMARK SMILES IDX 31 1 32 3 5 4 6 5 4 6 35 8 33 9 3 10 2 11 1 12 37 13 45 14
REMARK SMILES IDX 38 15 43 16 39 17 41 18 44 19 40 21 42 23 36 25 34 27 29 29
REMARK SMILES IDX 30 30 21 31 22 32 20 33 23 34 27 35 25 36 19 37 11 38 17 39
REMARK SMILES IDX 12 40 15 41 13 42 9 43 10 44 8 45 7 46 18 48 16 50 14 52
REMARK SMILES IDX 24 54 28 56 26 58
REMARK H PARENT 31 2 44 20 40 22 42 24 36 26 34 28 18 49 16 51 14 53 24 55
REMARK H PARENT 28 57 26 59
REMARK Flexibility Score: 70.00
ROOT
ATOM      1  O   UNL     1     179.343 178.988 170.802  1.00  0.00    -0.545 OA
ATOM      2  H   UNL     1     179.887 178.346 171.265  1.00  0.00     0.400 HD
ENDROOT
BRANCH   1   3
ATOM      3  C   UNL     1     180.107 180.190 170.700  1.00  0.00     0.294 C 
ATOM      4  O   UNL     1     182.299 181.105 170.875  1.00  0.00    -0.327 OA
ATOM      5  C   UNL     1     181.498 180.010 171.285  1.00  0.00     0.226 C
ATOM      6  C   UNL     1     181.859 182.289 171.530  1.00  0.00     0.343 C 
ATOM      7  G   UNL     1     182.103 178.703 170.812  1.00  0.00     0.000 C
ATOM      8  C   UNL     1     180.403 182.617 171.138  1.00  0.00     0.218 C 
ATOM      9  C   UNL     1     179.499 181.398 171.411  1.00  0.00     0.215 C 
BRANCH   6  10
ATOM     10  O   UNL     1     182.715 183.362 171.178  1.00  0.00    -0.429 OA
BRANCH  10  11
ATOM     11  C   UNL     1     183.162 184.200 172.151  1.00  0.00     0.340 C 
ATOM     12  O   UNL     1     182.481 185.137 172.507  1.00  0.00    -0.246 OA
BRANCH  11  13
ATOM     13  C   UNL     1     184.479 183.966 172.757  1.00  0.00     0.067 A 
ATOM     14  C   UNL     1     184.577 183.177 173.892  1.00  0.00     0.066 A 
ATOM     15  C   UNL     1     185.621 184.515 172.194  1.00  0.00     0.066 A 
ATOM     16  C   UNL     1     185.814 182.934 174.464  1.00  0.00     0.162 A 
ATOM     17  C   UNL     1     186.859 184.273 172.770  1.00  0.00     0.162 A 
ATOM     18  C   UNL     1     186.957 183.481 173.903  1.00  0.00     0.200 A 
BRANCH  16  19
ATOM     19  O   UNL     1     185.906 182.156 175.577  1.00  0.00    -0.504 OA
ATOM     20  H   UNL     1     186.196 182.539 176.408  1.00  0.00     0.293 HD
ENDBRANCH  16  19
BRANCH  17  21
ATOM     21  O   UNL     1     187.982 184.810 172.220  1.00  0.00    -0.504 OA
ATOM     22  H   UNL     1     188.295 184.496 171.370  1.00  0.00     0.293 HD
ENDBRANCH  17  21
BRANCH  18  23
ATOM     23  O   UNL     1     188.174 183.242 174.464  1.00  0.00    -0.502 OA
ATOM     24  H   UNL     1     188.392 182.364 174.785  1.00  0.00     0.293 HD
ENDBRANCH  18  23
ENDBRANCH  11  13
ENDBRANCH  10  11
ENDBRANCH   6  10
BRANCH   8  25
ATOM     25  O   UNL     1     179.956 183.738 171.884  1.00  0.00    -0.384 OA
ATOM     26  H   UNL     1     180.174 183.809 172.870  1.00  0.00     0.211 HD
ENDBRANCH   8  25
BRANCH   9  27
ATOM     27  O   UNL     1     179.427 181.156 172.807  1.00  0.00    -0.383 OA
ATOM     28  H   UNL     1     179.341 180.209 173.152  1.00  0.00     0.211 HD
ENDBRANCH   9  27
ENDBRANCH   1   3
BRANCH   1  29
ATOM     29  C   UNL     1     178.654 178.664 169.668  1.00  0.00     0.551 C 
ATOM     30  O   UNL     1     178.799 179.377 168.701  1.00  0.00     0.048 OA
BRANCH  29  31
ATOM     31  C   UNL     1     177.719 177.521 169.567  1.00  0.00     0.139 A 
ATOM     32  C   UNL     1     176.428 177.811 169.145  1.00  0.00     0.073 A 
ATOM     33  C   UNL     1     178.069 176.189 169.836  1.00  0.00     0.053 A 
ATOM     34  C   UNL     1     175.485 176.813 168.985  1.00  0.00     0.162 A 
ATOM     35  C   UNL     1     177.105 175.202 169.663  1.00  0.00     0.170 A 
ATOM     36  C   UNL     1     175.825 175.503 169.244  1.00  0.00     0.200 A 
BRANCH  33  37
ATOM     37  C   UNL     1     179.407 175.668 170.306  1.00  0.00     0.047 A 
ATOM     38  C   UNL     1     179.786 175.450 171.630  1.00  0.00     0.075 A 
ATOM     39  C   UNL     1     180.338 175.426 169.305  1.00  0.00     0.170 A 
ATOM     40  C   UNL     1     181.076 175.016 171.921  1.00  0.00     0.066 A 
ATOM     41  C   UNL     1     181.617 174.995 169.597  1.00  0.00     0.200 A 
ATOM     42  C   UNL     1     181.992 174.791 170.910  1.00  0.00     0.162 A 
BRANCH  38  43
ATOM     43  C   UNL     1     178.869 175.636 172.760  1.00  0.00     0.339 C 
ATOM     44  O   UNL     1     178.471 174.689 173.399  1.00  0.00    -0.246 OA
BRANCH  43  45
ATOM     45  O   UNL     1     178.484 176.908 173.073  1.00  0.00    -0.459 OA
BRANCH  45  46
ATOM     46  C   UNL     1     177.092 177.156 173.273  1.00  0.00     0.272 C
ATOM     47  G   UNL     1     176.689 178.586 172.970  1.00  0.00     0.000 C
ENDBRANCH  45  46
ENDBRANCH  43  45
ENDBRANCH  38  43
BRANCH  39  48
ATOM     48  O   UNL     1     179.986 175.639 168.012  1.00  0.00    -0.504 OA
ATOM     49  H   UNL     1     179.638 174.913 167.489  1.00  0.00     0.293 HD
ENDBRANCH  39  48
BRANCH  41  50
ATOM     50  O   UNL     1     182.503 174.782 168.587  1.00  0.00    -0.502 OA
ATOM     51  H   UNL     1     182.291 174.157 167.890  1.00  0.00     0.293 HD
ENDBRANCH  41  50
BRANCH  42  52
ATOM     52  O   UNL     1     183.251 174.371 171.208  1.00  0.00    -0.504 OA
ATOM     53  H   UNL     1     183.901 174.284 170.507  1.00  0.00     0.293 HD
ENDBRANCH  42  52
ENDBRANCH  33  37
BRANCH  34  54
ATOM     54  O   UNL     1     174.230 177.121 168.569  1.00  0.00    -0.504 OA
ATOM     55  H   UNL     1     173.881 177.996 168.741  1.00  0.00     0.293 HD
ENDBRANCH  34  54
BRANCH  35  56
ATOM     56  O   UNL     1     177.426 173.906 169.916  1.00  0.00    -0.504 OA
ATOM     57  H   UNL     1     177.981 173.679 170.667  1.00  0.00     0.293 HD
ENDBRANCH  35  56
BRANCH  36  58
ATOM     58  O   UNL     1     174.910 174.510 169.086  1.00  0.00    -0.502 OA
ATOM     59  H   UNL     1     174.949 173.731 169.644  1.00  0.00     0.293 HD
ENDBRANCH  36  58
ENDBRANCH  29  31
ENDBRANCH   1  29
TORSDOF 14
ENDMDL
MODEL 5
REMARK VINA RESULT:      -8.8      1.934      3.326
REMARK SMILES O=C(O[C@@H]1O[C@@H]2COC(=O)c3cc(O)c(O)c(O)c3-c3c(cc(O)c(O)c3O)C(=O)[OH+][C@H]2[C@@H](O)[C@H]1O)c1cc(O)c(O)c(O)c1
REMARK SMILES IDX 31 1 32 3 5 4 6 5 4 6 35 8 33 9 3 10 2 11 1 12 37 13 45 14
REMARK SMILES IDX 38 15 43 16 39 17 41 18 44 19 40 21 42 23 36 25 34 27 29 29
REMARK SMILES IDX 30 30 21 31 22 32 20 33 23 34 27 35 25 36 19 37 11 38 17 39
REMARK SMILES IDX 12 40 15 41 13 42 9 43 10 44 8 45 7 46 18 48 16 50 14 52
REMARK SMILES IDX 24 54 28 56 26 58
REMARK H PARENT 31 2 44 20 40 22 42 24 36 26 34 28 18 49 16 51 14 53 24 55
REMARK H PARENT 28 57 26 59
REMARK Flexibility Score: 70.00
ROOT
ATOM      1  O   UNL     1     179.376 180.467 171.221  1.00  0.00    -0.545 OA
ATOM      2  H   UNL     1     178.808 180.951 170.615  1.00  0.00     0.400 HD
ENDROOT
BRANCH   1   3
ATOM      3  C   UNL     1     180.091 181.434 171.989  1.00  0.00     0.294 C 
ATOM      4  O   UNL     1     180.888 183.678 172.010  1.00  0.00    -0.327 OA
ATOM      5  C   UNL     1     180.479 182.635 171.142  1.00  0.00     0.226 C
ATOM      6  C   UNL     1     182.130 183.335 172.614  1.00  0.00     0.343 C 
ATOM      7  G   UNL     1     179.305 183.081 170.293  1.00  0.00     0.000 C
ATOM      8  C   UNL     1     181.983 182.062 173.471  1.00  0.00     0.218 C 
ATOM      9  C   UNL     1     181.385 180.923 172.621  1.00  0.00     0.215 C 
BRANCH   6  10
ATOM     10  O   UNL     1     182.573 184.417 173.415  1.00  0.00    -0.429 OA
BRANCH  10  11
ATOM     11  C   UNL     1     183.731 185.053 173.089  1.00  0.00     0.340 C 
ATOM     12  O   UNL     1     183.779 185.766 172.111  1.00  0.00    -0.246 OA
BRANCH  11  13
ATOM     13  C   UNL     1     184.922 184.857 173.926  1.00  0.00     0.067 A 
ATOM     14  C   UNL     1     185.059 185.585 175.097  1.00  0.00     0.066 A 
ATOM     15  C   UNL     1     185.897 183.942 173.560  1.00  0.00     0.066 A 
ATOM     16  C   UNL     1     186.169 185.399 175.905  1.00  0.00     0.162 A 
ATOM     17  C   UNL     1     187.009 183.758 174.368  1.00  0.00     0.162 A 
ATOM     18  C   UNL     1     187.145 184.484 175.541  1.00  0.00     0.200 A 
BRANCH  16  19
ATOM     19  O   UNL     1     186.298 186.114 177.055  1.00  0.00    -0.504 OA
ATOM     20  H   UNL     1     186.897 186.863 177.090  1.00  0.00     0.293 HD
ENDBRANCH  16  19
BRANCH  17  21
ATOM     21  O   UNL     1     187.968 182.861 174.012  1.00  0.00    -0.504 OA
ATOM     22  H   UNL     1     188.814 183.172 173.686  1.00  0.00     0.293 HD
ENDBRANCH  17  21
BRANCH  18  23
ATOM     23  O   UNL     1     188.235 184.299 176.335  1.00  0.00    -0.502 OA
ATOM     24  H   UNL     1     189.029 183.896 175.977  1.00  0.00     0.293 HD
ENDBRANCH  18  23
ENDBRANCH  11  13
ENDBRANCH  10  11
ENDBRANCH   6  10
BRANCH   8  25
ATOM     25  O   UNL     1     183.255 181.683 173.975  1.00  0.00    -0.384 OA
ATOM     26  H   UNL     1     183.969 182.384 174.122  1.00  0.00     0.211 HD
ENDBRANCH   8  25
BRANCH   9  27
ATOM     27  O   UNL     1     182.303 180.544 171.609  1.00  0.00    -0.383 OA
ATOM     28  H   UNL     1     183.030 181.185 171.320  1.00  0.00     0.211 HD
ENDBRANCH   9  27
ENDBRANCH   1   3
BRANCH   1  29
ATOM     29  C   UNL     1     178.918 179.403 171.944  1.00  0.00     0.551 C 
ATOM     30  O   UNL     1     178.134 179.629 172.837  1.00  0.00     0.048 OA
BRANCH  29  31
ATOM     31  C   UNL     1     179.349 178.005 171.722  1.00  0.00     0.139 A 
ATOM     32  C   UNL     1     180.452 177.574 172.447  1.00  0.00     0.073 A 
ATOM     33  C   UNL     1     178.699 177.105 170.863  1.00  0.00     0.053 A 
ATOM     34  C   UNL     1     180.918 176.277 172.341  1.00  0.00     0.162 A 
ATOM     35  C   UNL     1     179.184 175.804 170.776  1.00  0.00     0.170 A 
ATOM     36  C   UNL     1     180.281 175.388 171.502  1.00  0.00     0.200 A 
BRANCH  33  37
ATOM     37  C   UNL     1     177.497 177.375 169.990  1.00  0.00     0.047 A 
ATOM     38  C   UNL     1     177.522 177.762 168.650  1.00  0.00     0.075 A 
ATOM     39  C   UNL     1     176.264 177.252 170.617  1.00  0.00     0.170 A 
ATOM     40  C   UNL     1     176.332 178.030 167.981  1.00  0.00     0.066 A 
ATOM     41  C   UNL     1     175.084 177.517 169.950  1.00  0.00     0.200 A 
ATOM     42  C   UNL     1     175.115 177.912 168.627  1.00  0.00     0.162 A 
BRANCH  38  43
ATOM     43  C   UNL     1     178.766 177.884 167.883  1.00  0.00     0.339 C 
ATOM     44  O   UNL     1     179.566 176.976 167.849  1.00  0.00    -0.246 OA
BRANCH  43  45
ATOM     45  O   UNL     1     178.992 179.046 167.202  1.00  0.00    -0.459 OA
BRANCH  45  46
ATOM     46  C   UNL     1     179.305 180.215 167.960  1.00  0.00     0.272 C
ATOM     47  G   UNL     1     180.795 180.462 168.092  1.00  0.00     0.000 C
ENDBRANCH  45  46
ENDBRANCH  43  45
ENDBRANCH  38  43
BRANCH  39  48
ATOM     48  O   UNL     1     176.222 176.881 171.922  1.00  0.00    -0.504 OA
ATOM     49  H   UNL     1     176.620 176.051 172.192  1.00  0.00     0.293 HD
ENDBRANCH  39  48
BRANCH  41  50
ATOM     50  O   UNL     1     173.898 177.397 170.605  1.00  0.00    -0.502 OA
ATOM     51  H   UNL     1     173.228 178.077 170.507  1.00  0.00     0.293 HD
ENDBRANCH  41  50
BRANCH  42  52
ATOM     52  O   UNL     1     173.959 178.180 167.963  1.00  0.00    -0.504 OA
ATOM     53  H   UNL     1     173.164 178.390 168.458  1.00  0.00     0.293 HD
ENDBRANCH  42  52
ENDBRANCH  33  37
BRANCH  34  54
ATOM     54  O   UNL     1     181.997 175.877 173.062  1.00  0.00    -0.504 OA
ATOM     55  H   UNL     1     182.677 176.516 173.278  1.00  0.00     0.293 HD
ENDBRANCH  34  54
BRANCH  35  56
ATOM     56  O   UNL     1     178.565 174.918 169.952  1.00  0.00    -0.504 OA
ATOM     57  H   UNL     1     178.278 174.063 170.285  1.00  0.00     0.293 HD
ENDBRANCH  35  56
BRANCH  36  58
ATOM     58  O   UNL     1     180.725 174.108 171.390  1.00  0.00    -0.502 OA
ATOM     59  H   UNL     1     180.814 173.564 172.175  1.00  0.00     0.293 HD
ENDBRANCH  36  58
ENDBRANCH  29  31
ENDBRANCH   1  29
TORSDOF 14
ENDMDL
MODEL 6
REMARK VINA RESULT:      -8.8      1.916      3.807
REMARK SMILES O=C(O[C@@H]1O[C@@H]2COC(=O)c3cc(O)c(O)c(O)c3-c3c(cc(O)c(O)c3O)C(=O)[OH+][C@H]2[C@@H](O)[C@H]1O)c1cc(O)c(O)c(O)c1
REMARK SMILES IDX 31 1 32 3 5 4 6 5 4 6 35 8 33 9 3 10 2 11 1 12 37 13 45 14
REMARK SMILES IDX 38 15 43 16 39 17 41 18 44 19 40 21 42 23 36 25 34 27 29 29
REMARK SMILES IDX 30 30 21 31 22 32 20 33 23 34 27 35 25 36 19 37 11 38 17 39
REMARK SMILES IDX 12 40 15 41 13 42 9 43 10 44 8 45 7 46 18 48 16 50 14 52
REMARK SMILES IDX 24 54 28 56 26 58
REMARK H PARENT 31 2 44 20 40 22 42 24 36 26 34 28 18 49 16 51 14 53 24 55
REMARK H PARENT 28 57 26 59
REMARK Flexibility Score: 70.00
ROOT
ATOM      1  O   UNL     1     180.642 180.580 172.436  1.00  0.00    -0.545 OA
ATOM      2  H   UNL     1     181.369 179.952 172.472  1.00  0.00     0.400 HD
ENDROOT
BRANCH   1   3
ATOM      3  C   UNL     1     181.208 181.862 172.165  1.00  0.00     0.294 C 
ATOM      4  O   UNL     1     183.222 183.131 172.208  1.00  0.00    -0.327 OA
ATOM      5  C   UNL     1     182.596 181.991 172.770  1.00  0.00     0.226 C
ATOM      6  C   UNL     1     182.585 184.310 172.688  1.00  0.00     0.343 C 
ATOM      7  G   UNL     1     183.411 180.745 172.488  1.00  0.00     0.000 C
ATOM      8  C   UNL     1     181.106 184.342 172.254  1.00  0.00     0.218 C 
ATOM      9  C   UNL     1     180.400 183.045 172.697  1.00  0.00     0.215 C 
BRANCH   6  10
ATOM     10  O   UNL     1     183.269 185.446 172.188  1.00  0.00    -0.429 OA
BRANCH  10  11
ATOM     11  C   UNL     1     184.618 185.389 172.022  1.00  0.00     0.340 C 
ATOM     12  O   UNL     1     185.100 185.489 170.916  1.00  0.00    -0.246 OA
BRANCH  11  13
ATOM     13  C   UNL     1     185.481 185.192 173.195  1.00  0.00     0.067 A 
ATOM     14  C   UNL     1     185.277 185.962 174.328  1.00  0.00     0.066 A 
ATOM     15  C   UNL     1     186.484 184.235 173.179  1.00  0.00     0.066 A 
ATOM     16  C   UNL     1     186.072 185.777 175.447  1.00  0.00     0.162 A 
ATOM     17  C   UNL     1     187.281 184.052 174.298  1.00  0.00     0.162 A 
ATOM     18  C   UNL     1     187.075 184.821 175.434  1.00  0.00     0.200 A 
BRANCH  16  19
ATOM     19  O   UNL     1     185.866 186.534 176.559  1.00  0.00    -0.504 OA
ATOM     20  H   UNL     1     184.990 186.877 176.750  1.00  0.00     0.293 HD
ENDBRANCH  16  19
BRANCH  17  21
ATOM     21  O   UNL     1     188.266 183.114 174.286  1.00  0.00    -0.504 OA
ATOM     22  H   UNL     1     188.300 182.467 173.579  1.00  0.00     0.293 HD
ENDBRANCH  17  21
BRANCH  18  23
ATOM     23  O   UNL     1     187.856 184.636 176.532  1.00  0.00    -0.502 OA
ATOM     24  H   UNL     1     188.003 185.359 177.146  1.00  0.00     0.293 HD
ENDBRANCH  18  23
ENDBRANCH  11  13
ENDBRANCH  10  11
ENDBRANCH   6  10
BRANCH   8  25
ATOM     25  O   UNL     1     180.469 185.471 172.833  1.00  0.00    -0.384 OA
ATOM     26  H   UNL     1     180.052 185.400 173.752  1.00  0.00     0.211 HD
ENDBRANCH   8  25
BRANCH   9  27
ATOM     27  O   UNL     1     180.335 182.992 174.113  1.00  0.00    -0.383 OA
ATOM     28  H   UNL     1     180.615 183.794 174.663  1.00  0.00     0.211 HD
ENDBRANCH   9  27
ENDBRANCH   1   3
BRANCH   1  29
ATOM     29  C   UNL     1     179.495 180.315 171.744  1.00  0.00     0.551 C 
ATOM     30  O   UNL     1     178.454 180.321 172.360  1.00  0.00     0.048 OA
BRANCH  29  31
ATOM     31  C   UNL     1     179.458 179.990 170.301  1.00  0.00     0.139 A 
ATOM     32  C   UNL     1     179.401 181.065 169.424  1.00  0.00     0.073 A 
ATOM     33  C   UNL     1     179.509 178.686 169.784  1.00  0.00     0.053 A 
ATOM     34  C   UNL     1     179.396 180.874 168.054  1.00  0.00     0.162 A 
ATOM     35  C   UNL     1     179.506 178.519 168.403  1.00  0.00     0.170 A 
ATOM     36  C   UNL     1     179.449 179.596 167.542  1.00  0.00     0.200 A 
BRANCH  33  37
ATOM     37  C   UNL     1     179.567 177.392 170.560  1.00  0.00     0.047 A 
ATOM     38  C   UNL     1     178.478 176.608 170.939  1.00  0.00     0.075 A 
ATOM     39  C   UNL     1     180.837 176.988 170.951  1.00  0.00     0.170 A 
ATOM     40  C   UNL     1     178.678 175.463 171.703  1.00  0.00     0.066 A 
ATOM     41  C   UNL     1     181.033 175.851 171.709  1.00  0.00     0.200 A 
ATOM     42  C   UNL     1     179.950 175.084 172.092  1.00  0.00     0.162 A 
BRANCH  38  43
ATOM     43  C   UNL     1     177.100 176.922 170.547  1.00  0.00     0.339 C 
ATOM     44  O   UNL     1     176.568 176.340 169.629  1.00  0.00    -0.246 OA
BRANCH  43  45
ATOM     45  O   UNL     1     176.433 177.883 171.251  1.00  0.00    -0.459 OA
BRANCH  45  46
ATOM     46  C   UNL     1     175.387 178.594 170.588  1.00  0.00     0.272 C
ATOM     47  G   UNL     1     175.892 179.722 169.709  1.00  0.00     0.000 C
ENDBRANCH  45  46
ENDBRANCH  43  45
ENDBRANCH  38  43
BRANCH  39  48
ATOM     48  O   UNL     1     181.908 177.743 170.595  1.00  0.00    -0.504 OA
ATOM     49  H   UNL     1     182.794 177.393 170.709  1.00  0.00     0.293 HD
ENDBRANCH  39  48
BRANCH  41  50
ATOM     50  O   UNL     1     182.293 175.497 172.082  1.00  0.00    -0.502 OA
ATOM     51  H   UNL     1     182.536 175.509 173.009  1.00  0.00     0.293 HD
ENDBRANCH  41  50
BRANCH  42  52
ATOM     52  O   UNL     1     180.132 173.964 172.842  1.00  0.00    -0.504 OA
ATOM     53  H   UNL     1     180.694 173.998 173.619  1.00  0.00     0.293 HD
ENDBRANCH  42  52
ENDBRANCH  33  37
BRANCH  34  54
ATOM     54  O   UNL     1     179.343 181.941 167.216  1.00  0.00    -0.504 OA
ATOM     55  H   UNL     1     179.769 181.886 166.360  1.00  0.00     0.293 HD
ENDBRANCH  34  54
BRANCH  35  56
ATOM     56  O   UNL     1     179.558 177.264 167.884  1.00  0.00    -0.504 OA
ATOM     57  H   UNL     1     179.947 177.111 167.018  1.00  0.00     0.293 HD
ENDBRANCH  35  56
BRANCH  36  58
ATOM     58  O   UNL     1     179.449 179.393 166.197  1.00  0.00    -0.502 OA
ATOM     59  H   UNL     1     178.649 179.099 165.759  1.00  0.00     0.293 HD
ENDBRANCH  36  58
ENDBRANCH  29  31
ENDBRANCH   1  29
TORSDOF 14
ENDMDL
MODEL 7
REMARK VINA RESULT:      -8.8      1.311      2.945
REMARK SMILES O=C(O[C@@H]1O[C@@H]2COC(=O)c3cc(O)c(O)c(O)c3-c3c(cc(O)c(O)c3O)C(=O)[OH+][C@H]2[C@@H](O)[C@H]1O)c1cc(O)c(O)c(O)c1
REMARK SMILES IDX 31 1 32 3 5 4 6 5 4 6 35 8 33 9 3 10 2 11 1 12 37 13 45 14
REMARK SMILES IDX 38 15 43 16 39 17 41 18 44 19 40 21 42 23 36 25 34 27 29 29
REMARK SMILES IDX 30 30 21 31 22 32 20 33 23 34 27 35 25 36 19 37 11 38 17 39
REMARK SMILES IDX 12 40 15 41 13 42 9 43 10 44 8 45 7 46 18 48 16 50 14 52
REMARK SMILES IDX 24 54 28 56 26 58
REMARK H PARENT 31 2 44 20 40 22 42 24 36 26 34 28 18 49 16 51 14 53 24 55
REMARK H PARENT 28 57 26 59
REMARK Flexibility Score: 70.00
ROOT
ATOM      1  O   UNL     1     182.068 179.309 172.751  1.00  0.00    -0.545 OA
ATOM      2  H   UNL     1     182.920 178.889 172.605  1.00  0.00     0.400 HD
ENDROOT
BRANCH   1   3
ATOM      3  C   UNL     1     182.239 180.704 172.498  1.00  0.00     0.294 C 
ATOM      4  O   UNL     1     183.514 182.303 171.279  1.00  0.00    -0.327 OA
ATOM      5  C   UNL     1     183.549 180.978 171.779  1.00  0.00     0.226 C
ATOM      6  C   UNL     1     183.580 183.223 172.363  1.00  0.00     0.343 C 
ATOM      7  G   UNL     1     183.745 179.988 170.647  1.00  0.00     0.000 C
ATOM      8  C   UNL     1     182.360 183.054 173.292  1.00  0.00     0.218 C 
ATOM      9  C   UNL     1     182.246 181.586 173.746  1.00  0.00     0.215 C 
BRANCH   6  10
ATOM     10  O   UNL     1     183.628 184.544 171.851  1.00  0.00    -0.429 OA
BRANCH  10  11
ATOM     11  C   UNL     1     184.778 185.260 171.970  1.00  0.00     0.340 C 
ATOM     12  O   UNL     1     185.114 186.024 171.092  1.00  0.00    -0.246 OA
BRANCH  11  13
ATOM     13  C   UNL     1     185.613 185.090 173.167  1.00  0.00     0.067 A 
ATOM     14  C   UNL     1     185.371 185.872 174.284  1.00  0.00     0.066 A 
ATOM     15  C   UNL     1     186.628 184.145 173.189  1.00  0.00     0.066 A 
ATOM     16  C   UNL     1     186.139 185.711 175.425  1.00  0.00     0.162 A 
ATOM     17  C   UNL     1     187.398 183.986 174.331  1.00  0.00     0.162 A 
ATOM     18  C   UNL     1     187.154 184.767 175.450  1.00  0.00     0.200 A 
BRANCH  16  19
ATOM     19  O   UNL     1     185.896 186.479 176.522  1.00  0.00    -0.504 OA
ATOM     20  H   UNL     1     185.003 186.781 176.707  1.00  0.00     0.293 HD
ENDBRANCH  16  19
BRANCH  17  21
ATOM     21  O   UNL     1     188.395 183.060 174.356  1.00  0.00    -0.504 OA
ATOM     22  H   UNL     1     188.884 182.908 175.166  1.00  0.00     0.293 HD
ENDBRANCH  17  21
BRANCH  18  23
ATOM     23  O   UNL     1     187.908 184.606 176.571  1.00  0.00    -0.502 OA
ATOM     24  H   UNL     1     188.866 184.623 176.513  1.00  0.00     0.293 HD
ENDBRANCH  18  23
ENDBRANCH  11  13
ENDBRANCH  10  11
ENDBRANCH   6  10
BRANCH   8  25
ATOM     25  O   UNL     1     182.504 183.907 174.417  1.00  0.00    -0.384 OA
ATOM     26  H   UNL     1     181.806 183.901 175.149  1.00  0.00     0.211 HD
ENDBRANCH   8  25
BRANCH   9  27
ATOM     27  O   UNL     1     183.349 181.250 174.573  1.00  0.00    -0.383 OA
ATOM     28  H   UNL     1     184.290 181.475 174.277  1.00  0.00     0.211 HD
ENDBRANCH   9  27
ENDBRANCH   1   3
BRANCH   1  29
ATOM     29  C   UNL     1     180.912 178.786 172.248  1.00  0.00     0.551 C 
ATOM     30  O   UNL     1     179.893 179.416 172.413  1.00  0.00     0.048 OA
BRANCH  29  31
ATOM     31  C   UNL     1     180.829 177.484 171.549  1.00  0.00     0.139 A 
ATOM     32  C   UNL     1     181.850 176.577 171.804  1.00  0.00     0.073 A 
ATOM     33  C   UNL     1     179.782 177.114 170.691  1.00  0.00     0.053 A 
ATOM     34  C   UNL     1     181.852 175.320 171.230  1.00  0.00     0.162 A 
ATOM     35  C   UNL     1     179.804 175.842 170.128  1.00  0.00     0.170 A 
ATOM     36  C   UNL     1     180.825 174.951 170.389  1.00  0.00     0.200 A 
BRANCH  33  37
ATOM     37  C   UNL     1     178.591 177.947 170.283  1.00  0.00     0.047 A 
ATOM     38  C   UNL     1     178.529 178.820 169.197  1.00  0.00     0.075 A 
ATOM     39  C   UNL     1     177.478 177.841 171.106  1.00  0.00     0.170 A 
ATOM     40  C   UNL     1     177.379 179.568 168.971  1.00  0.00     0.066 A 
ATOM     41  C   UNL     1     176.337 178.584 170.879  1.00  0.00     0.200 A 
ATOM     42  C   UNL     1     176.284 179.456 169.810  1.00  0.00     0.162 A 
BRANCH  38  43
ATOM     43  C   UNL     1     179.632 178.979 168.243  1.00  0.00     0.339 C 
ATOM     44  O   UNL     1     179.562 178.510 167.130  1.00  0.00    -0.246 OA
BRANCH  43  45
ATOM     45  O   UNL     1     180.735 179.677 168.644  1.00  0.00    -0.459 OA
BRANCH  45  46
ATOM     46  C   UNL     1     180.567 181.052 168.992  1.00  0.00     0.272 C
ATOM     47  G   UNL     1     180.137 181.917 167.823  1.00  0.00     0.000 C
ENDBRANCH  45  46
ENDBRANCH  43  45
ENDBRANCH  38  43
BRANCH  39  48
ATOM     48  O   UNL     1     177.524 177.000 172.171  1.00  0.00    -0.504 OA
ATOM     49  H   UNL     1     177.298 177.327 173.044  1.00  0.00     0.293 HD
ENDBRANCH  39  48
BRANCH  41  50
ATOM     50  O   UNL     1     175.273 178.459 171.718  1.00  0.00    -0.502 OA
ATOM     51  H   UNL     1     174.384 178.431 171.359  1.00  0.00     0.293 HD
ENDBRANCH  41  50
BRANCH  42  52
ATOM     52  O   UNL     1     175.167 180.196 169.580  1.00  0.00    -0.504 OA
ATOM     53  H   UNL     1     175.238 181.148 169.486  1.00  0.00     0.293 HD
ENDBRANCH  42  52
ENDBRANCH  33  37
BRANCH  34  54
ATOM     54  O   UNL     1     182.860 174.449 171.496  1.00  0.00    -0.504 OA
ATOM     55  H   UNL     1     183.309 174.498 172.341  1.00  0.00     0.293 HD
ENDBRANCH  34  54
BRANCH  35  56
ATOM     56  O   UNL     1     178.798 175.464 169.296  1.00  0.00    -0.504 OA
ATOM     57  H   UNL     1     178.428 174.579 169.350  1.00  0.00     0.293 HD
ENDBRANCH  35  56
BRANCH  36  58
ATOM     58  O   UNL     1     180.811 173.715 169.820  1.00  0.00    -0.502 OA
ATOM     59  H   UNL     1     181.191 172.970 170.289  1.00  0.00     0.293 HD
ENDBRANCH  36  58
ENDBRANCH  29  31
ENDBRANCH   1  29
TORSDOF 14
ENDMDL
MODEL 8
REMARK VINA RESULT:      -8.8      2.083      5.104
REMARK SMILES O=C(O[C@@H]1O[C@@H]2COC(=O)c3cc(O)c(O)c(O)c3-c3c(cc(O)c(O)c3O)C(=O)[OH+][C@H]2[C@@H](O)[C@H]1O)c1cc(O)c(O)c(O)c1
REMARK SMILES IDX 31 1 32 3 5 4 6 5 4 6 35 8 33 9 3 10 2 11 1 12 37 13 45 14
REMARK SMILES IDX 38 15 43 16 39 17 41 18 44 19 40 21 42 23 36 25 34 27 29 29
REMARK SMILES IDX 30 30 21 31 22 32 20 33 23 34 27 35 25 36 19 37 11 38 17 39
REMARK SMILES IDX 12 40 15 41 13 42 9 43 10 44 8 45 7 46 18 48 16 50 14 52
REMARK SMILES IDX 24 54 28 56 26 58
REMARK H PARENT 31 2 44 20 40 22 42 24 36 26 34 28 18 49 16 51 14 53 24 55
REMARK H PARENT 28 57 26 59
REMARK Flexibility Score: 70.00
ROOT
ATOM      1  O   UNL     1     178.661 179.305 168.185  1.00  0.00    -0.545 OA
ATOM      2  H   UNL     1     177.798 179.695 168.023  1.00  0.00     0.400 HD
ENDROOT
BRANCH   1   3
ATOM      3  C   UNL     1     179.327 180.139 169.133  1.00  0.00     0.294 C 
ATOM      4  O   UNL     1     179.044 181.973 170.626  1.00  0.00    -0.327 OA
ATOM      5  C   UNL     1     178.495 181.366 169.470  1.00  0.00     0.226 C
ATOM      6  C   UNL     1     180.303 182.554 170.307  1.00  0.00     0.343 C 
ATOM      7  G   UNL     1     177.052 180.972 169.711  1.00  0.00     0.000 C
ATOM      8  C   UNL     1     181.299 181.471 169.844  1.00  0.00     0.218 C 
ATOM      9  C   UNL     1     180.691 180.660 168.683  1.00  0.00     0.215 C 
BRANCH   6  10
ATOM     10  O   UNL     1     180.807 183.229 171.446  1.00  0.00    -0.429 OA
BRANCH  10  11
ATOM     11  C   UNL     1     181.111 182.513 172.562  1.00  0.00     0.340 C 
ATOM     12  O   UNL     1     180.529 181.477 172.797  1.00  0.00    -0.246 OA
BRANCH  11  13
ATOM     13  C   UNL     1     182.141 183.012 173.482  1.00  0.00     0.067 A 
ATOM     14  C   UNL     1     182.742 184.235 173.234  1.00  0.00     0.066 A 
ATOM     15  C   UNL     1     182.504 182.276 174.600  1.00  0.00     0.066 A 
ATOM     16  C   UNL     1     183.703 184.726 174.102  1.00  0.00     0.162 A 
ATOM     17  C   UNL     1     183.468 182.767 175.467  1.00  0.00     0.162 A 
ATOM     18  C   UNL     1     184.067 183.993 175.220  1.00  0.00     0.200 A 
BRANCH  16  19
ATOM     19  O   UNL     1     184.289 185.930 173.856  1.00  0.00    -0.504 OA
ATOM     20  H   UNL     1     185.245 185.997 173.808  1.00  0.00     0.293 HD
ENDBRANCH  16  19
BRANCH  17  21
ATOM     21  O   UNL     1     183.826 182.048 176.565  1.00  0.00    -0.504 OA
ATOM     22  H   UNL     1     184.423 182.428 177.211  1.00  0.00     0.293 HD
ENDBRANCH  17  21
BRANCH  18  23
ATOM     23  O   UNL     1     185.009 184.474 176.075  1.00  0.00    -0.502 OA
ATOM     24  H   UNL     1     184.915 184.344 177.021  1.00  0.00     0.293 HD
ENDBRANCH  18  23
ENDBRANCH  11  13
ENDBRANCH  10  11
ENDBRANCH   6  10
BRANCH   8  25
ATOM     25  O   UNL     1     182.509 182.088 169.432  1.00  0.00    -0.384 OA
ATOM     26  H   UNL     1     183.377 181.863 169.900  1.00  0.00     0.211 HD
ENDBRANCH   8  25
BRANCH   9  27
ATOM     27  O   UNL     1     180.542 181.490 167.542  1.00  0.00    -0.383 OA
ATOM     28  H   UNL     1     181.284 182.125 167.278  1.00  0.00     0.211 HD
ENDBRANCH   9  27
ENDBRANCH   1   3
BRANCH   1  29
ATOM     29  C   UNL     1     178.817 177.967 168.408  1.00  0.00     0.551 C 
ATOM     30  O   UNL     1     179.399 177.323 167.566  1.00  0.00     0.048 OA
BRANCH  29  31
ATOM     31  C   UNL     1     178.288 177.259 169.595  1.00  0.00     0.139 A 
ATOM     32  C   UNL     1     176.920 177.021 169.615  1.00  0.00     0.073 A 
ATOM     33  C   UNL     1     179.080 176.799 170.658  1.00  0.00     0.053 A 
ATOM     34  C   UNL     1     176.327 176.338 170.661  1.00  0.00     0.162 A 
ATOM     35  C   UNL     1     178.461 176.112 171.697  1.00  0.00     0.170 A 
ATOM     36  C   UNL     1     177.101 175.881 171.706  1.00  0.00     0.200 A 
BRANCH  33  37
ATOM     37  C   UNL     1     180.572 176.960 170.828  1.00  0.00     0.047 A 
ATOM     38  C   UNL     1     181.556 176.127 170.296  1.00  0.00     0.075 A 
ATOM     39  C   UNL     1     180.970 178.026 171.624  1.00  0.00     0.170 A 
ATOM     40  C   UNL     1     182.897 176.366 170.581  1.00  0.00     0.066 A 
ATOM     41  C   UNL     1     182.301 178.261 171.905  1.00  0.00     0.200 A 
ATOM     42  C   UNL     1     183.272 177.427 171.385  1.00  0.00     0.162 A 
BRANCH  38  43
ATOM     43  C   UNL     1     181.248 174.999 169.412  1.00  0.00     0.339 C 
ATOM     44  O   UNL     1     181.518 175.042 168.233  1.00  0.00    -0.246 OA
BRANCH  43  45
ATOM     45  O   UNL     1     180.655 173.896 169.958  1.00  0.00    -0.459 OA
BRANCH  45  46
ATOM     46  C   UNL     1     181.395 173.147 170.923  1.00  0.00     0.272 C
ATOM     47  G   UNL     1     180.547 172.656 172.080  1.00  0.00     0.000 C
ENDBRANCH  45  46
ENDBRANCH  43  45
ENDBRANCH  38  43
BRANCH  39  48
ATOM     48  O   UNL     1     180.024 178.842 172.154  1.00  0.00    -0.504 OA
ATOM     49  H   UNL     1     180.250 179.747 172.381  1.00  0.00     0.293 HD
ENDBRANCH  39  48
BRANCH  41  50
ATOM     50  O   UNL     1     182.648 179.309 172.700  1.00  0.00    -0.502 OA
ATOM     51  H   UNL     1     182.035 180.036 172.825  1.00  0.00     0.293 HD
ENDBRANCH  41  50
BRANCH  42  52
ATOM     52  O   UNL     1     184.586 177.648 171.659  1.00  0.00    -0.504 OA
ATOM     53  H   UNL     1     184.987 177.233 172.426  1.00  0.00     0.293 HD
ENDBRANCH  42  52
ENDBRANCH  33  37
BRANCH  34  54
ATOM     54  O   UNL     1     174.987 176.114 170.658  1.00  0.00    -0.504 OA
ATOM     55  H   UNL     1     174.508 176.132 171.487  1.00  0.00     0.293 HD
ENDBRANCH  34  54
BRANCH  35  56
ATOM     56  O   UNL     1     179.212 175.656 172.734  1.00  0.00    -0.504 OA
ATOM     57  H   UNL     1     179.911 176.201 173.105  1.00  0.00     0.293 HD
ENDBRANCH  35  56
BRANCH  36  58
ATOM     58  O   UNL     1     176.532 175.204 172.739  1.00  0.00    -0.502 OA
ATOM     59  H   UNL     1     176.317 175.666 173.551  1.00  0.00     0.293 HD
ENDBRANCH  36  58
ENDBRANCH  29  31
ENDBRANCH   1  29
TORSDOF 14
ENDMDL
MODEL 9
REMARK VINA RESULT:      -8.8      1.661      4.385
REMARK SMILES O=C(O[C@@H]1O[C@@H]2COC(=O)c3cc(O)c(O)c(O)c3-c3c(cc(O)c(O)c3O)C(=O)[OH+][C@H]2[C@@H](O)[C@H]1O)c1cc(O)c(O)c(O)c1
REMARK SMILES IDX 31 1 32 3 5 4 6 5 4 6 35 8 33 9 3 10 2 11 1 12 37 13 45 14
REMARK SMILES IDX 38 15 43 16 39 17 41 18 44 19 40 21 42 23 36 25 34 27 29 29
REMARK SMILES IDX 30 30 21 31 22 32 20 33 23 34 27 35 25 36 19 37 11 38 17 39
REMARK SMILES IDX 12 40 15 41 13 42 9 43 10 44 8 45 7 46 18 48 16 50 14 52
REMARK SMILES IDX 24 54 28 56 26 58
REMARK H PARENT 31 2 44 20 40 22 42 24 36 26 34 28 18 49 16 51 14 53 24 55
REMARK H PARENT 28 57 26 59
REMARK Flexibility Score: 70.00
ROOT
ATOM      1  O   UNL     1     180.973 180.407 170.361  1.00  0.00    -0.545 OA
ATOM      2  H   UNL     1     181.518 180.316 169.575  1.00  0.00     0.400 HD
ENDROOT
BRANCH   1   3
ATOM      3  C   UNL     1     181.188 181.724 170.869  1.00  0.00     0.294 C 
ATOM      4  O   UNL     1     182.849 183.362 171.347  1.00  0.00    -0.327 OA
ATOM      5  C   UNL     1     182.659 181.971 171.159  1.00  0.00     0.226 C
ATOM      6  C   UNL     1     182.240 183.765 172.569  1.00  0.00     0.343 C 
ATOM      7  G   UNL     1     183.513 181.469 170.012  1.00  0.00     0.000 C
ATOM      8  C   UNL     1     180.719 183.515 172.525  1.00  0.00     0.218 C 
ATOM      9  C   UNL     1     180.440 182.043 172.163  1.00  0.00     0.215 C 
BRANCH   6  10
ATOM     10  O   UNL     1     182.505 185.140 172.790  1.00  0.00    -0.429 OA
BRANCH  10  11
ATOM     11  C   UNL     1     183.762 185.616 172.577  1.00  0.00     0.340 C 
ATOM     12  O   UNL     1     184.004 186.275 171.591  1.00  0.00    -0.246 OA
BRANCH  11  13
ATOM     13  C   UNL     1     184.823 185.312 173.547  1.00  0.00     0.067 A 
ATOM     14  C   UNL     1     185.724 184.296 173.276  1.00  0.00     0.066 A 
ATOM     15  C   UNL     1     184.935 186.043 174.719  1.00  0.00     0.066 A 
ATOM     16  C   UNL     1     186.739 184.009 174.173  1.00  0.00     0.162 A 
ATOM     17  C   UNL     1     185.950 185.754 175.619  1.00  0.00     0.162 A 
ATOM     18  C   UNL     1     186.854 184.739 175.346  1.00  0.00     0.200 A 
BRANCH  16  19
ATOM     19  O   UNL     1     187.624 183.012 173.900  1.00  0.00    -0.504 OA
ATOM     20  H   UNL     1     187.311 182.112 173.781  1.00  0.00     0.293 HD
ENDBRANCH  16  19
BRANCH  17  21
ATOM     21  O   UNL     1     186.064 186.469 176.770  1.00  0.00    -0.504 OA
ATOM     22  H   UNL     1     186.317 186.028 177.583  1.00  0.00     0.293 HD
ENDBRANCH  17  21
BRANCH  18  23
ATOM     23  O   UNL     1     187.852 184.460 176.227  1.00  0.00    -0.502 OA
ATOM     24  H   UNL     1     187.656 184.354 177.161  1.00  0.00     0.293 HD
ENDBRANCH  18  23
ENDBRANCH  11  13
ENDBRANCH  10  11
ENDBRANCH   6  10
BRANCH   8  25
ATOM     25  O   UNL     1     180.155 183.825 173.790  1.00  0.00    -0.384 OA
ATOM     26  H   UNL     1     179.365 183.296 174.135  1.00  0.00     0.211 HD
ENDBRANCH   8  25
BRANCH   9  27
ATOM     27  O   UNL     1     180.892 181.196 173.207  1.00  0.00    -0.383 OA
ATOM     28  H   UNL     1     181.877 180.983 173.296  1.00  0.00     0.211 HD
ENDBRANCH   9  27
ENDBRANCH   1   3
BRANCH   1  29
ATOM     29  C   UNL     1     179.670 180.002 170.386  1.00  0.00     0.551 C 
ATOM     30  O   UNL     1     178.901 180.539 169.621  1.00  0.00     0.048 OA
BRANCH  29  31
ATOM     31  C   UNL     1     179.140 178.977 171.313  1.00  0.00     0.139 A 
ATOM     32  C   UNL     1     177.898 179.235 171.878  1.00  0.00     0.073 A 
ATOM     33  C   UNL     1     179.795 177.774 171.617  1.00  0.00     0.053 A 
ATOM     34  C   UNL     1     177.297 178.328 172.732  1.00  0.00     0.162 A 
ATOM     35  C   UNL     1     179.169 176.876 172.475  1.00  0.00     0.170 A 
ATOM     36  C   UNL     1     177.935 177.144 173.031  1.00  0.00     0.200 A 
BRANCH  33  37
ATOM     37  C   UNL     1     181.142 177.310 171.117  1.00  0.00     0.047 A 
ATOM     38  C   UNL     1     181.369 176.361 170.120  1.00  0.00     0.075 A 
ATOM     39  C   UNL     1     182.241 177.873 171.753  1.00  0.00     0.170 A 
ATOM     40  C   UNL     1     182.670 175.989 169.797  1.00  0.00     0.066 A 
ATOM     41  C   UNL     1     183.531 177.502 171.429  1.00  0.00     0.200 A 
ATOM     42  C   UNL     1     183.751 176.554 170.450  1.00  0.00     0.162 A 
BRANCH  38  43
ATOM     43  C   UNL     1     180.283 175.734 169.359  1.00  0.00     0.339 C 
ATOM     44  O   UNL     1     180.025 176.096 168.234  1.00  0.00    -0.246 OA
BRANCH  43  45
ATOM     45  O   UNL     1     179.577 174.728 169.955  1.00  0.00    -0.459 OA
BRANCH  45  46
ATOM     46  C   UNL     1     178.305 174.385 169.403  1.00  0.00     0.272 C
ATOM     47  G   UNL     1     177.190 175.310 169.849  1.00  0.00     0.000 C
ENDBRANCH  45  46
ENDBRANCH  43  45
ENDBRANCH  38  43
BRANCH  39  48
ATOM     48  O   UNL     1     182.038 178.794 172.729  1.00  0.00    -0.504 OA
ATOM     49  H   UNL     1     181.936 179.719 172.494  1.00  0.00     0.293 HD
ENDBRANCH  39  48
BRANCH  41  50
ATOM     50  O   UNL     1     184.580 178.069 172.085  1.00  0.00    -0.502 OA
ATOM     51  H   UNL     1     185.266 177.512 172.459  1.00  0.00     0.293 HD
ENDBRANCH  41  50
BRANCH  42  52
ATOM     52  O   UNL     1     185.018 176.179 170.127  1.00  0.00    -0.504 OA
ATOM     53  H   UNL     1     185.731 176.819 170.181  1.00  0.00     0.293 HD
ENDBRANCH  42  52
ENDBRANCH  33  37
BRANCH  34  54
ATOM     54  O   UNL     1     176.081 178.601 173.270  1.00  0.00    -0.504 OA
ATOM     55  H   UNL     1     175.446 179.105 172.760  1.00  0.00     0.293 HD
ENDBRANCH  34  54
BRANCH  35  56
ATOM     56  O   UNL     1     179.787 175.704 172.779  1.00  0.00    -0.504 OA
ATOM     57  H   UNL     1     180.458 175.342 172.194  1.00  0.00     0.293 HD
ENDBRANCH  35  56
BRANCH  36  58
ATOM     58  O   UNL     1     177.353 176.241 173.865  1.00  0.00    -0.502 OA
ATOM     59  H   UNL     1     177.898 175.610 174.339  1.00  0.00     0.293 HD
ENDBRANCH  36  58
ENDBRANCH  29  31
ENDBRANCH   1  29
TORSDOF 14
ENDMDL
MODEL 10
REMARK VINA RESULT:      -8.8      1.762      4.658
REMARK SMILES O=C(O[C@@H]1O[C@@H]2COC(=O)c3cc(O)c(O)c(O)c3-c3c(cc(O)c(O)c3O)C(=O)[OH+][C@H]2[C@@H](O)[C@H]1O)c1cc(O)c(O)c(O)c1
REMARK SMILES IDX 31 1 32 3 5 4 6 5 4 6 35 8 33 9 3 10 2 11 1 12 37 13 45 14
REMARK SMILES IDX 38 15 43 16 39 17 41 18 44 19 40 21 42 23 36 25 34 27 29 29
REMARK SMILES IDX 30 30 21 31 22 32 20 33 23 34 27 35 25 36 19 37 11 38 17 39
REMARK SMILES IDX 12 40 15 41 13 42 9 43 10 44 8 45 7 46 18 48 16 50 14 52
REMARK SMILES IDX 24 54 28 56 26 58
REMARK H PARENT 31 2 44 20 40 22 42 24 36 26 34 28 18 49 16 51 14 53 24 55
REMARK H PARENT 28 57 26 59
REMARK Flexibility Score: 70.00
ROOT
ATOM      1  O   UNL     1     179.746 180.106 169.466  1.00  0.00    -0.545 OA
ATOM      2  H   UNL     1     179.085 180.736 169.766  1.00  0.00     0.400 HD
ENDROOT
BRANCH   1   3
ATOM      3  C   UNL     1     180.973 180.445 170.113  1.00  0.00     0.294 C 
ATOM      4  O   UNL     1     181.926 181.639 171.941  1.00  0.00    -0.327 OA
ATOM      5  C   UNL     1     180.774 181.568 171.118  1.00  0.00     0.226 C
ATOM      6  C   UNL     1     183.027 182.121 171.179  1.00  0.00     0.343 C 
ATOM      7  G   UNL     1     179.538 181.312 171.956  1.00  0.00     0.000 C
ATOM      8  C   UNL     1     183.352 181.154 170.022  1.00  0.00     0.218 C 
ATOM      9  C   UNL     1     182.088 180.906 169.176  1.00  0.00     0.215 C 
BRANCH   6  10
ATOM     10  O   UNL     1     184.152 182.267 172.028  1.00  0.00    -0.429 OA
BRANCH  10  11
ATOM     11  C   UNL     1     184.825 183.449 172.039  1.00  0.00     0.340 C 
ATOM     12  O   UNL     1     185.102 184.002 170.998  1.00  0.00    -0.246 OA
BRANCH  11  13
ATOM     13  C   UNL     1     185.223 184.040 173.324  1.00  0.00     0.067 A 
ATOM     14  C   UNL     1     184.395 184.969 173.932  1.00  0.00     0.066 A 
ATOM     15  C   UNL     1     186.410 183.665 173.935  1.00  0.00     0.066 A 
ATOM     16  C   UNL     1     184.749 185.523 175.151  1.00  0.00     0.162 A 
ATOM     17  C   UNL     1     186.765 184.221 175.154  1.00  0.00     0.162 A 
ATOM     18  C   UNL     1     185.934 185.149 175.764  1.00  0.00     0.200 A 
BRANCH  16  19
ATOM     19  O   UNL     1     183.930 186.433 175.747  1.00  0.00    -0.504 OA
ATOM     20  H   UNL     1     183.226 186.136 176.328  1.00  0.00     0.293 HD
ENDBRANCH  16  19
BRANCH  17  21
ATOM     21  O   UNL     1     187.928 183.856 175.756  1.00  0.00    -0.504 OA
ATOM     22  H   UNL     1     188.656 183.524 175.227  1.00  0.00     0.293 HD
ENDBRANCH  17  21
BRANCH  18  23
ATOM     23  O   UNL     1     186.283 185.690 176.963  1.00  0.00    -0.502 OA
ATOM     24  H   UNL     1     186.902 186.423 176.999  1.00  0.00     0.293 HD
ENDBRANCH  18  23
ENDBRANCH  11  13
ENDBRANCH  10  11
ENDBRANCH   6  10
BRANCH   8  25
ATOM     25  O   UNL     1     184.381 181.710 169.219  1.00  0.00    -0.384 OA
ATOM     26  H   UNL     1     184.213 181.894 168.238  1.00  0.00     0.211 HD
ENDBRANCH   8  25
BRANCH   9  27
ATOM     27  O   UNL     1     181.706 182.103 168.517  1.00  0.00    -0.383 OA
ATOM     28  H   UNL     1     180.920 182.102 167.881  1.00  0.00     0.211 HD
ENDBRANCH   9  27
ENDBRANCH   1   3
BRANCH   1  29
ATOM     29  C   UNL     1     179.493 178.766 169.411  1.00  0.00     0.551 C 
ATOM     30  O   UNL     1     179.543 178.229 168.329  1.00  0.00     0.048 OA
BRANCH  29  31
ATOM     31  C   UNL     1     179.127 177.946 170.588  1.00  0.00     0.139 A 
ATOM     32  C   UNL     1     177.817 178.051 171.035  1.00  0.00     0.073 A 
ATOM     33  C   UNL     1     180.004 177.064 171.238  1.00  0.00     0.053 A 
ATOM     34  C   UNL     1     177.362 177.304 172.105  1.00  0.00     0.162 A 
ATOM     35  C   UNL     1     179.523 176.320 172.310  1.00  0.00     0.170 A 
ATOM     36  C   UNL     1     178.218 176.434 172.745  1.00  0.00     0.200 A 
BRANCH  33  37
ATOM     37  C   UNL     1     181.457 176.808 170.915  1.00  0.00     0.047 A 
ATOM     38  C   UNL     1     181.950 175.832 170.050  1.00  0.00     0.075 A 
ATOM     39  C   UNL     1     182.368 177.615 171.585  1.00  0.00     0.170 A 
ATOM     40  C   UNL     1     183.322 175.675 169.888  1.00  0.00     0.066 A 
ATOM     41  C   UNL     1     183.730 177.457 171.422  1.00  0.00     0.200 A 
ATOM     42  C   UNL     1     184.213 176.481 170.573  1.00  0.00     0.162 A 
BRANCH  38  43
ATOM     43  C   UNL     1     181.076 174.954 169.264  1.00  0.00     0.339 C 
ATOM     44  O   UNL     1     180.843 175.191 168.100  1.00  0.00    -0.246 OA
BRANCH  43  45
ATOM     45  O   UNL     1     180.539 173.861 169.881  1.00  0.00    -0.459 OA
BRANCH  45  46
ATOM     46  C   UNL     1     179.342 173.305 169.335  1.00  0.00     0.272 C
ATOM     47  G   UNL     1     178.089 174.042 169.765  1.00  0.00     0.000 C
ENDBRANCH  45  46
ENDBRANCH  43  45
ENDBRANCH  38  43
BRANCH  39  48
ATOM     48  O   UNL     1     181.905 178.567 172.435  1.00  0.00    -0.504 OA
ATOM     49  H   UNL     1     182.389 178.759 173.241  1.00  0.00     0.293 HD
ENDBRANCH  39  48
BRANCH  41  50
ATOM     50  O   UNL     1     184.589 178.260 172.107  1.00  0.00    -0.502 OA
ATOM     51  H   UNL     1     185.258 178.756 171.633  1.00  0.00     0.293 HD
ENDBRANCH  41  50
BRANCH  42  52
ATOM     52  O   UNL     1     185.553 176.315 170.409  1.00  0.00    -0.504 OA
ATOM     53  H   UNL     1     185.902 176.098 169.542  1.00  0.00     0.293 HD
ENDBRANCH  42  52
ENDBRANCH  33  37
BRANCH  34  54
ATOM     54  O   UNL     1     176.075 177.422 172.522  1.00  0.00    -0.504 OA
ATOM     55  H   UNL     1     175.387 176.944 172.058  1.00  0.00     0.293 HD
ENDBRANCH  34  54
BRANCH  35  56
ATOM     56  O   UNL     1     180.356 175.458 172.951  1.00  0.00    -0.504 OA
ATOM     57  H   UNL     1     181.168 175.163 172.530  1.00  0.00     0.293 HD
ENDBRANCH  35  56
BRANCH  36  58
ATOM     58  O   UNL     1     177.783 175.689 173.796  1.00  0.00    -0.502 OA
ATOM     59  H   UNL     1     178.299 174.937 174.094  1.00  0.00     0.293 HD
ENDBRANCH  36  58
ENDBRANCH  29  31
ENDBRANCH   1  29
TORSDOF 14
ENDMDL
