REMARK VINA RESULT:      -9.0      0.000      0.000
REMARK SMILES O=C(O[C@@H]1O[C@@H]2COC(=O)c3cc(O)c(O)c(O)c3-c3c(cc(O)c(O)c3O)C(=O)[OH+][C@H]2[C@@H](O)[C@H]1O)c1cc(O)c(O)c(O)c1
REMARK SMILES IDX 31 1 32 3 5 4 6 5 4 6 35 8 33 9 3 10 2 11 1 12 37 13 45 14
REMARK SMILES IDX 38 15 43 16 39 17 41 18 44 19 40 21 42 23 36 25 34 27 29 29
REMARK SMILES IDX 30 30 21 31 22 32 20 33 23 34 27 35 25 36 19 37 11 38 17 39
REMARK SMILES IDX 12 40 15 41 13 42 9 43 10 44 8 45 7 46 18 48 16 50 14 52
REMARK SMILES IDX 24 54 28 56 26 58
REMARK H PARENT 31 2 44 20 40 22 42 24 36 26 34 28 18 49 16 51 14 53 24 55
REMARK H PARENT 28 57 26 59
REMARK Flexibility Score: 70.00
ROOT
ATOM      1  O   UNL     1     182.085 179.340 172.845  1.00  0.00    -0.545 OA
ATOM      2  H   UNL     1     182.957 178.951 172.735  1.00  0.00     0.400 HD
ENDROOT
BRANCH   1   3
ATOM      3  C   UNL     1     182.215 180.740 172.598  1.00  0.00     0.294 C 
ATOM      4  O   UNL     1     183.430 182.380 171.371  1.00  0.00    -0.327 OA
ATOM      5  C   UNL     1     183.507 181.053 171.862  1.00  0.00     0.226 C
ATOM      6  C   UNL     1     183.487 183.295 172.459  1.00  0.00     0.343 C 
ATOM      7  G   UNL     1     183.713 180.076 170.722  1.00  0.00     0.000 C
ATOM      8  C   UNL     1     182.286 183.088 173.404  1.00  0.00     0.218 C 
ATOM      9  C   UNL     1     182.217 181.615 173.851  1.00  0.00     0.215 C 
BRANCH   6  10
ATOM     10  O   UNL     1     183.492 184.619 171.954  1.00  0.00    -0.429 OA
BRANCH  10  11
ATOM     11  C   UNL     1     184.626 185.363 172.058  1.00  0.00     0.340 C 
ATOM     12  O   UNL     1     184.912 186.161 171.193  1.00  0.00    -0.246 OA
BRANCH  11  13
ATOM     13  C   UNL     1     185.505 185.182 173.221  1.00  0.00     0.067 A 
ATOM     14  C   UNL     1     185.292 185.940 174.361  1.00  0.00     0.066 A 
ATOM     15  C   UNL     1     186.531 184.251 173.190  1.00  0.00     0.066 A 
ATOM     16  C   UNL     1     186.101 185.768 175.472  1.00  0.00     0.162 A 
ATOM     17  C   UNL     1     187.343 184.080 174.302  1.00  0.00     0.162 A 
ATOM     18  C   UNL     1     187.128 184.837 175.443  1.00  0.00     0.200 A 
BRANCH  16  19
ATOM     19  O   UNL     1     185.887 186.513 176.590  1.00  0.00    -0.504 OA
ATOM     20  H   UNL     1     186.629 186.905 177.055  1.00  0.00     0.293 HD
ENDBRANCH  16  19
BRANCH  17  21
ATOM     21  O   UNL     1     188.351 183.168 174.274  1.00  0.00    -0.504 OA
ATOM     22  H   UNL     1     189.179 183.384 173.841  1.00  0.00     0.293 HD
ENDBRANCH  17  21
BRANCH  18  23
ATOM     23  O   UNL     1     187.923 184.666 176.534  1.00  0.00    -0.502 OA
ATOM     24  H   UNL     1     187.658 185.022 177.385  1.00  0.00     0.293 HD
ENDBRANCH  18  23
ENDBRANCH  11  13
ENDBRANCH  10  11
ENDBRANCH   6  10
BRANCH   8  25
ATOM     25  O   UNL     1     182.423 183.938 174.533  1.00  0.00    -0.384 OA
ATOM     26  H   UNL     1     183.230 183.850 175.137  1.00  0.00     0.211 HD
ENDBRANCH   8  25
BRANCH   9  27
ATOM     27  O   UNL     1     183.340 181.304 174.660  1.00  0.00    -0.383 OA
ATOM     28  H   UNL     1     184.258 181.224 174.242  1.00  0.00     0.211 HD
ENDBRANCH   9  27
ENDBRANCH   1   3
BRANCH   1  29
ATOM     29  C   UNL     1     180.970 178.775 172.295  1.00  0.00     0.551 C 
ATOM     30  O   UNL     1     179.909 179.321 172.495  1.00  0.00     0.048 OA
BRANCH  29  31
ATOM     31  C   UNL     1     180.981 177.524 171.505  1.00  0.00     0.139 A 
ATOM     32  C   UNL     1     182.227 176.978 171.225  1.00  0.00     0.073 A 
ATOM     33  C   UNL     1     179.827 176.858 171.064  1.00  0.00     0.053 A 
ATOM     34  C   UNL     1     182.350 175.794 170.523  1.00  0.00     0.162 A 
ATOM     35  C   UNL     1     179.975 175.667 170.363  1.00  0.00     0.170 A 
ATOM     36  C   UNL     1     181.219 175.135 170.090  1.00  0.00     0.200 A 
BRANCH  33  37
ATOM     37  C   UNL     1     178.391 177.284 171.258  1.00  0.00     0.047 A 
ATOM     38  C   UNL     1     177.490 176.750 172.180  1.00  0.00     0.075 A 
ATOM     39  C   UNL     1     177.942 178.278 170.399  1.00  0.00     0.170 A 
ATOM     40  C   UNL     1     176.176 177.205 172.211  1.00  0.00     0.066 A 
ATOM     41  C   UNL     1     176.637 178.728 170.433  1.00  0.00     0.200 A 
ATOM     42  C   UNL     1     175.746 178.189 171.339  1.00  0.00     0.162 A 
BRANCH  38  43
ATOM     43  C   UNL     1     177.870 175.725 173.158  1.00  0.00     0.339 C 
ATOM     44  O   UNL     1     178.263 176.034 174.260  1.00  0.00    -0.246 OA
BRANCH  43  45
ATOM     45  O   UNL     1     177.760 174.414 172.792  1.00  0.00    -0.459 OA
BRANCH  45  46
ATOM     46  C   UNL     1     178.499 173.446 173.539  1.00  0.00     0.272 C
ATOM     47  G   UNL     1     179.826 173.083 172.902  1.00  0.00     0.000 C
ENDBRANCH  45  46
ENDBRANCH  43  45
ENDBRANCH  38  43
BRANCH  39  48
ATOM     48  O   UNL     1     178.805 178.805 169.493  1.00  0.00    -0.504 OA
ATOM     49  H   UNL     1     179.466 178.241 169.084  1.00  0.00     0.293 HD
ENDBRANCH  39  48
BRANCH  41  50
ATOM     50  O   UNL     1     176.235 179.696 169.565  1.00  0.00    -0.502 OA
ATOM     51  H   UNL     1     176.770 180.483 169.448  1.00  0.00     0.293 HD
ENDBRANCH  41  50
BRANCH  42  52
ATOM     52  O   UNL     1     174.457 178.622 171.377  1.00  0.00    -0.504 OA
ATOM     53  H   UNL     1     174.194 179.272 172.031  1.00  0.00     0.293 HD
ENDBRANCH  42  52
ENDBRANCH  33  37
BRANCH  34  54
ATOM     54  O   UNL     1     183.579 175.279 170.263  1.00  0.00    -0.504 OA
ATOM     55  H   UNL     1     184.357 175.761 170.545  1.00  0.00     0.293 HD
ENDBRANCH  34  54
BRANCH  35  56
ATOM     56  O   UNL     1     178.869 175.006 169.930  1.00  0.00    -0.504 OA
ATOM     57  H   UNL     1     178.623 175.025 169.002  1.00  0.00     0.293 HD
ENDBRANCH  35  56
BRANCH  36  58
ATOM     58  O   UNL     1     181.324 173.966 169.403  1.00  0.00    -0.502 OA
ATOM     59  H   UNL     1     182.143 173.469 169.430  1.00  0.00     0.293 HD
ENDBRANCH  36  58
ENDBRANCH  29  31
ENDBRANCH   1  29
TORSDOF 14
