REMARK VINA RESULT:      -8.8      1.934      3.326
REMARK SMILES O=C(O[C@@H]1O[C@@H]2COC(=O)c3cc(O)c(O)c(O)c3-c3c(cc(O)c(O)c3O)C(=O)[OH+][C@H]2[C@@H](O)[C@H]1O)c1cc(O)c(O)c(O)c1
REMARK SMILES IDX 31 1 32 3 5 4 6 5 4 6 35 8 33 9 3 10 2 11 1 12 37 13 45 14
REMARK SMILES IDX 38 15 43 16 39 17 41 18 44 19 40 21 42 23 36 25 34 27 29 29
REMARK SMILES IDX 30 30 21 31 22 32 20 33 23 34 27 35 25 36 19 37 11 38 17 39
REMARK SMILES IDX 12 40 15 41 13 42 9 43 10 44 8 45 7 46 18 48 16 50 14 52
REMARK SMILES IDX 24 54 28 56 26 58
REMARK H PARENT 31 2 44 20 40 22 42 24 36 26 34 28 18 49 16 51 14 53 24 55
REMARK H PARENT 28 57 26 59
REMARK Flexibility Score: 70.00
ROOT
ATOM      1  O   UNL     1     179.376 180.467 171.221  1.00  0.00    -0.545 OA
ATOM      2  H   UNL     1     178.808 180.951 170.615  1.00  0.00     0.400 HD
ENDROOT
BRANCH   1   3
ATOM      3  C   UNL     1     180.091 181.434 171.989  1.00  0.00     0.294 C 
ATOM      4  O   UNL     1     180.888 183.678 172.010  1.00  0.00    -0.327 OA
ATOM      5  C   UNL     1     180.479 182.635 171.142  1.00  0.00     0.226 C
ATOM      6  C   UNL     1     182.130 183.335 172.614  1.00  0.00     0.343 C 
ATOM      7  G   UNL     1     179.305 183.081 170.293  1.00  0.00     0.000 C
ATOM      8  C   UNL     1     181.983 182.062 173.471  1.00  0.00     0.218 C 
ATOM      9  C   UNL     1     181.385 180.923 172.621  1.00  0.00     0.215 C 
BRANCH   6  10
ATOM     10  O   UNL     1     182.573 184.417 173.415  1.00  0.00    -0.429 OA
BRANCH  10  11
ATOM     11  C   UNL     1     183.731 185.053 173.089  1.00  0.00     0.340 C 
ATOM     12  O   UNL     1     183.779 185.766 172.111  1.00  0.00    -0.246 OA
BRANCH  11  13
ATOM     13  C   UNL     1     184.922 184.857 173.926  1.00  0.00     0.067 A 
ATOM     14  C   UNL     1     185.059 185.585 175.097  1.00  0.00     0.066 A 
ATOM     15  C   UNL     1     185.897 183.942 173.560  1.00  0.00     0.066 A 
ATOM     16  C   UNL     1     186.169 185.399 175.905  1.00  0.00     0.162 A 
ATOM     17  C   UNL     1     187.009 183.758 174.368  1.00  0.00     0.162 A 
ATOM     18  C   UNL     1     187.145 184.484 175.541  1.00  0.00     0.200 A 
BRANCH  16  19
ATOM     19  O   UNL     1     186.298 186.114 177.055  1.00  0.00    -0.504 OA
ATOM     20  H   UNL     1     186.897 186.863 177.090  1.00  0.00     0.293 HD
ENDBRANCH  16  19
BRANCH  17  21
ATOM     21  O   UNL     1     187.968 182.861 174.012  1.00  0.00    -0.504 OA
ATOM     22  H   UNL     1     188.814 183.172 173.686  1.00  0.00     0.293 HD
ENDBRANCH  17  21
BRANCH  18  23
ATOM     23  O   UNL     1     188.235 184.299 176.335  1.00  0.00    -0.502 OA
ATOM     24  H   UNL     1     189.029 183.896 175.977  1.00  0.00     0.293 HD
ENDBRANCH  18  23
ENDBRANCH  11  13
ENDBRANCH  10  11
ENDBRANCH   6  10
BRANCH   8  25
ATOM     25  O   UNL     1     183.255 181.683 173.975  1.00  0.00    -0.384 OA
ATOM     26  H   UNL     1     183.969 182.384 174.122  1.00  0.00     0.211 HD
ENDBRANCH   8  25
BRANCH   9  27
ATOM     27  O   UNL     1     182.303 180.544 171.609  1.00  0.00    -0.383 OA
ATOM     28  H   UNL     1     183.030 181.185 171.320  1.00  0.00     0.211 HD
ENDBRANCH   9  27
ENDBRANCH   1   3
BRANCH   1  29
ATOM     29  C   UNL     1     178.918 179.403 171.944  1.00  0.00     0.551 C 
ATOM     30  O   UNL     1     178.134 179.629 172.837  1.00  0.00     0.048 OA
BRANCH  29  31
ATOM     31  C   UNL     1     179.349 178.005 171.722  1.00  0.00     0.139 A 
ATOM     32  C   UNL     1     180.452 177.574 172.447  1.00  0.00     0.073 A 
ATOM     33  C   UNL     1     178.699 177.105 170.863  1.00  0.00     0.053 A 
ATOM     34  C   UNL     1     180.918 176.277 172.341  1.00  0.00     0.162 A 
ATOM     35  C   UNL     1     179.184 175.804 170.776  1.00  0.00     0.170 A 
ATOM     36  C   UNL     1     180.281 175.388 171.502  1.00  0.00     0.200 A 
BRANCH  33  37
ATOM     37  C   UNL     1     177.497 177.375 169.990  1.00  0.00     0.047 A 
ATOM     38  C   UNL     1     177.522 177.762 168.650  1.00  0.00     0.075 A 
ATOM     39  C   UNL     1     176.264 177.252 170.617  1.00  0.00     0.170 A 
ATOM     40  C   UNL     1     176.332 178.030 167.981  1.00  0.00     0.066 A 
ATOM     41  C   UNL     1     175.084 177.517 169.950  1.00  0.00     0.200 A 
ATOM     42  C   UNL     1     175.115 177.912 168.627  1.00  0.00     0.162 A 
BRANCH  38  43
ATOM     43  C   UNL     1     178.766 177.884 167.883  1.00  0.00     0.339 C 
ATOM     44  O   UNL     1     179.566 176.976 167.849  1.00  0.00    -0.246 OA
BRANCH  43  45
ATOM     45  O   UNL     1     178.992 179.046 167.202  1.00  0.00    -0.459 OA
BRANCH  45  46
ATOM     46  C   UNL     1     179.305 180.215 167.960  1.00  0.00     0.272 C
ATOM     47  G   UNL     1     180.795 180.462 168.092  1.00  0.00     0.000 C
ENDBRANCH  45  46
ENDBRANCH  43  45
ENDBRANCH  38  43
BRANCH  39  48
ATOM     48  O   UNL     1     176.222 176.881 171.922  1.00  0.00    -0.504 OA
ATOM     49  H   UNL     1     176.620 176.051 172.192  1.00  0.00     0.293 HD
ENDBRANCH  39  48
BRANCH  41  50
ATOM     50  O   UNL     1     173.898 177.397 170.605  1.00  0.00    -0.502 OA
ATOM     51  H   UNL     1     173.228 178.077 170.507  1.00  0.00     0.293 HD
ENDBRANCH  41  50
BRANCH  42  52
ATOM     52  O   UNL     1     173.959 178.180 167.963  1.00  0.00    -0.504 OA
ATOM     53  H   UNL     1     173.164 178.390 168.458  1.00  0.00     0.293 HD
ENDBRANCH  42  52
ENDBRANCH  33  37
BRANCH  34  54
ATOM     54  O   UNL     1     181.997 175.877 173.062  1.00  0.00    -0.504 OA
ATOM     55  H   UNL     1     182.677 176.516 173.278  1.00  0.00     0.293 HD
ENDBRANCH  34  54
BRANCH  35  56
ATOM     56  O   UNL     1     178.565 174.918 169.952  1.00  0.00    -0.504 OA
ATOM     57  H   UNL     1     178.278 174.063 170.285  1.00  0.00     0.293 HD
ENDBRANCH  35  56
BRANCH  36  58
ATOM     58  O   UNL     1     180.725 174.108 171.390  1.00  0.00    -0.502 OA
ATOM     59  H   UNL     1     180.814 173.564 172.175  1.00  0.00     0.293 HD
ENDBRANCH  36  58
ENDBRANCH  29  31
ENDBRANCH   1  29
TORSDOF 14
