REMARK VINA RESULT:      -9.0      1.462      3.891
REMARK SMILES O=C(O[C@@H]1O[C@@H]2COC(=O)c3cc(O)c(O)c(O)c3-c3c(cc(O)c(O)c3O)C(=O)[OH+][C@H]2[C@@H](O)[C@H]1O)c1cc(O)c(O)c(O)c1
REMARK SMILES IDX 31 1 32 3 5 4 6 5 4 6 35 8 33 9 3 10 2 11 1 12 37 13 45 14
REMARK SMILES IDX 38 15 43 16 39 17 41 18 44 19 40 21 42 23 36 25 34 27 29 29
REMARK SMILES IDX 30 30 21 31 22 32 20 33 23 34 27 35 25 36 19 37 11 38 17 39
REMARK SMILES IDX 12 40 15 41 13 42 9 43 10 44 8 45 7 46 18 48 16 50 14 52
REMARK SMILES IDX 24 54 28 56 26 58
REMARK H PARENT 31 2 44 20 40 22 42 24 36 26 34 28 18 49 16 51 14 53 24 55
REMARK H PARENT 28 57 26 59
REMARK Flexibility Score: 70.00
ROOT
ATOM      1  O   UNL     1     181.049 179.819 170.794  1.00  0.00    -0.545 OA
ATOM      2  H   UNL     1     181.862 179.305 170.792  1.00  0.00     0.400 HD
ENDROOT
BRANCH   1   3
ATOM      3  C   UNL     1     181.395 181.148 171.182  1.00  0.00     0.294 C 
ATOM      4  O   UNL     1     182.961 182.456 172.410  1.00  0.00    -0.327 OA
ATOM      5  C   UNL     1     182.431 181.147 172.295  1.00  0.00     0.226 C
ATOM      6  C   UNL     1     181.968 183.328 172.938  1.00  0.00     0.343 C 
ATOM      7  G   UNL     1     183.532 180.153 171.987  1.00  0.00     0.000 C
ATOM      8  C   UNL     1     180.757 183.410 171.987  1.00  0.00     0.218 C 
ATOM      9  C   UNL     1     180.227 181.994 171.688  1.00  0.00     0.215 C 
BRANCH   6  10
ATOM     10  O   UNL     1     182.531 184.614 173.129  1.00  0.00    -0.429 OA
BRANCH  10  11
ATOM     11  C   UNL     1     183.792 184.859 172.681  1.00  0.00     0.340 C 
ATOM     12  O   UNL     1     183.982 185.138 171.518  1.00  0.00    -0.246 OA
BRANCH  11  13
ATOM     13  C   UNL     1     184.920 184.770 173.618  1.00  0.00     0.067 A 
ATOM     14  C   UNL     1     184.959 185.609 174.720  1.00  0.00     0.066 A 
ATOM     15  C   UNL     1     185.934 183.847 173.414  1.00  0.00     0.066 A 
ATOM     16  C   UNL     1     186.007 185.525 175.621  1.00  0.00     0.162 A 
ATOM     17  C   UNL     1     186.985 183.765 174.315  1.00  0.00     0.162 A 
ATOM     18  C   UNL     1     187.022 184.603 175.420  1.00  0.00     0.200 A 
BRANCH  16  19
ATOM     19  O   UNL     1     186.039 186.349 176.704  1.00  0.00    -0.504 OA
ATOM     20  H   UNL     1     185.397 186.240 177.409  1.00  0.00     0.293 HD
ENDBRANCH  16  19
BRANCH  17  21
ATOM     21  O   UNL     1     187.982 182.861 174.118  1.00  0.00    -0.504 OA
ATOM     22  H   UNL     1     188.496 182.886 173.310  1.00  0.00     0.293 HD
ENDBRANCH  17  21
BRANCH  18  23
ATOM     23  O   UNL     1     188.052 184.518 176.305  1.00  0.00    -0.502 OA
ATOM     24  H   UNL     1     188.958 184.609 176.001  1.00  0.00     0.293 HD
ENDBRANCH  18  23
ENDBRANCH  11  13
ENDBRANCH  10  11
ENDBRANCH   6  10
BRANCH   8  25
ATOM     25  O   UNL     1     179.741 184.199 172.585  1.00  0.00    -0.384 OA
ATOM     26  H   UNL     1     179.822 185.208 172.593  1.00  0.00     0.211 HD
ENDBRANCH   8  25
BRANCH   9  27
ATOM     27  O   UNL     1     179.690 181.422 172.870  1.00  0.00    -0.383 OA
ATOM     28  H   UNL     1     179.137 181.988 173.500  1.00  0.00     0.211 HD
ENDBRANCH   9  27
ENDBRANCH   1   3
BRANCH   1  29
ATOM     29  C   UNL     1     180.151 179.750 169.769  1.00  0.00     0.551 C 
ATOM     30  O   UNL     1     180.368 180.421 168.786  1.00  0.00     0.048 OA
BRANCH  29  31
ATOM     31  C   UNL     1     178.916 178.934 169.805  1.00  0.00     0.139 A 
ATOM     32  C   UNL     1     177.728 179.594 169.522  1.00  0.00     0.073 A 
ATOM     33  C   UNL     1     178.888 177.556 170.071  1.00  0.00     0.053 A 
ATOM     34  C   UNL     1     176.521 178.920 169.496  1.00  0.00     0.162 A 
ATOM     35  C   UNL     1     177.663 176.898 170.036  1.00  0.00     0.170 A 
ATOM     36  C   UNL     1     176.489 177.566 169.754  1.00  0.00     0.200 A 
BRANCH  33  37
ATOM     37  C   UNL     1     180.058 176.661 170.404  1.00  0.00     0.047 A 
ATOM     38  C   UNL     1     180.639 176.498 171.661  1.00  0.00     0.075 A 
ATOM     39  C   UNL     1     180.609 175.975 169.329  1.00  0.00     0.170 A 
ATOM     40  C   UNL     1     181.752 175.676 171.811  1.00  0.00     0.066 A 
ATOM     41  C   UNL     1     181.713 175.160 169.481  1.00  0.00     0.200 A 
ATOM     42  C   UNL     1     182.293 175.011 170.726  1.00  0.00     0.162 A 
BRANCH  38  43
ATOM     43  C   UNL     1     180.113 177.143 172.868  1.00  0.00     0.339 C 
ATOM     44  O   UNL     1     180.190 178.342 173.015  1.00  0.00    -0.246 OA
BRANCH  43  45
ATOM     45  O   UNL     1     179.528 176.354 173.817  1.00  0.00    -0.459 OA
BRANCH  45  46
ATOM     46  C   UNL     1     178.120 176.135 173.730  1.00  0.00     0.272 C
ATOM     47  G   UNL     1     177.744 174.668 173.674  1.00  0.00     0.000 C
ENDBRANCH  45  46
ENDBRANCH  43  45
ENDBRANCH  38  43
BRANCH  39  48
ATOM     48  O   UNL     1     180.058 176.128 168.098  1.00  0.00    -0.504 OA
ATOM     49  H   UNL     1     180.012 175.376 167.502  1.00  0.00     0.293 HD
ENDBRANCH  39  48
BRANCH  41  50
ATOM     50  O   UNL     1     182.230 174.516 168.400  1.00  0.00    -0.502 OA
ATOM     51  H   UNL     1     182.368 174.995 167.581  1.00  0.00     0.293 HD
ENDBRANCH  41  50
BRANCH  42  52
ATOM     52  O   UNL     1     183.383 174.214 170.885  1.00  0.00    -0.504 OA
ATOM     53  H   UNL     1     184.222 174.473 170.497  1.00  0.00     0.293 HD
ENDBRANCH  42  52
ENDBRANCH  33  37
BRANCH  34  54
ATOM     54  O   UNL     1     175.373 179.587 169.215  1.00  0.00    -0.504 OA
ATOM     55  H   UNL     1     175.391 180.303 168.579  1.00  0.00     0.293 HD
ENDBRANCH  34  54
BRANCH  35  56
ATOM     56  O   UNL     1     177.616 175.564 170.287  1.00  0.00    -0.504 OA
ATOM     57  H   UNL     1     176.837 175.172 170.690  1.00  0.00     0.293 HD
ENDBRANCH  35  56
BRANCH  36  58
ATOM     58  O   UNL     1     175.310 176.889 169.727  1.00  0.00    -0.502 OA
ATOM     59  H   UNL     1     175.309 175.938 169.598  1.00  0.00     0.293 HD
ENDBRANCH  36  58
ENDBRANCH  29  31
ENDBRANCH   1  29
TORSDOF 14
