REMARK VINA RESULT:      -8.9      1.951      4.300
REMARK SMILES O=C(O[C@@H]1O[C@@H]2COC(=O)c3cc(O)c(O)c(O)c3-c3c(cc(O)c(O)c3O)C(=O)[OH+][C@H]2[C@@H](O)[C@H]1O)c1cc(O)c(O)c(O)c1
REMARK SMILES IDX 31 1 32 3 5 4 6 5 4 6 35 8 33 9 3 10 2 11 1 12 37 13 45 14
REMARK SMILES IDX 38 15 43 16 39 17 41 18 44 19 40 21 42 23 36 25 34 27 29 29
REMARK SMILES IDX 30 30 21 31 22 32 20 33 23 34 27 35 25 36 19 37 11 38 17 39
REMARK SMILES IDX 12 40 15 41 13 42 9 43 10 44 8 45 7 46 18 48 16 50 14 52
REMARK SMILES IDX 24 54 28 56 26 58
REMARK H PARENT 31 2 44 20 40 22 42 24 36 26 34 28 18 49 16 51 14 53 24 55
REMARK H PARENT 28 57 26 59
REMARK Flexibility Score: 70.00
ROOT
ATOM      1  O   UNL     1     179.343 178.988 170.802  1.00  0.00    -0.545 OA
ATOM      2  H   UNL     1     179.887 178.346 171.265  1.00  0.00     0.400 HD
ENDROOT
BRANCH   1   3
ATOM      3  C   UNL     1     180.107 180.190 170.700  1.00  0.00     0.294 C 
ATOM      4  O   UNL     1     182.299 181.105 170.875  1.00  0.00    -0.327 OA
ATOM      5  C   UNL     1     181.498 180.010 171.285  1.00  0.00     0.226 C
ATOM      6  C   UNL     1     181.859 182.289 171.530  1.00  0.00     0.343 C 
ATOM      7  G   UNL     1     182.103 178.703 170.812  1.00  0.00     0.000 C
ATOM      8  C   UNL     1     180.403 182.617 171.138  1.00  0.00     0.218 C 
ATOM      9  C   UNL     1     179.499 181.398 171.411  1.00  0.00     0.215 C 
BRANCH   6  10
ATOM     10  O   UNL     1     182.715 183.362 171.178  1.00  0.00    -0.429 OA
BRANCH  10  11
ATOM     11  C   UNL     1     183.162 184.200 172.151  1.00  0.00     0.340 C 
ATOM     12  O   UNL     1     182.481 185.137 172.507  1.00  0.00    -0.246 OA
BRANCH  11  13
ATOM     13  C   UNL     1     184.479 183.966 172.757  1.00  0.00     0.067 A 
ATOM     14  C   UNL     1     184.577 183.177 173.892  1.00  0.00     0.066 A 
ATOM     15  C   UNL     1     185.621 184.515 172.194  1.00  0.00     0.066 A 
ATOM     16  C   UNL     1     185.814 182.934 174.464  1.00  0.00     0.162 A 
ATOM     17  C   UNL     1     186.859 184.273 172.770  1.00  0.00     0.162 A 
ATOM     18  C   UNL     1     186.957 183.481 173.903  1.00  0.00     0.200 A 
BRANCH  16  19
ATOM     19  O   UNL     1     185.906 182.156 175.577  1.00  0.00    -0.504 OA
ATOM     20  H   UNL     1     186.196 182.539 176.408  1.00  0.00     0.293 HD
ENDBRANCH  16  19
BRANCH  17  21
ATOM     21  O   UNL     1     187.982 184.810 172.220  1.00  0.00    -0.504 OA
ATOM     22  H   UNL     1     188.295 184.496 171.370  1.00  0.00     0.293 HD
ENDBRANCH  17  21
BRANCH  18  23
ATOM     23  O   UNL     1     188.174 183.242 174.464  1.00  0.00    -0.502 OA
ATOM     24  H   UNL     1     188.392 182.364 174.785  1.00  0.00     0.293 HD
ENDBRANCH  18  23
ENDBRANCH  11  13
ENDBRANCH  10  11
ENDBRANCH   6  10
BRANCH   8  25
ATOM     25  O   UNL     1     179.956 183.738 171.884  1.00  0.00    -0.384 OA
ATOM     26  H   UNL     1     180.174 183.809 172.870  1.00  0.00     0.211 HD
ENDBRANCH   8  25
BRANCH   9  27
ATOM     27  O   UNL     1     179.427 181.156 172.807  1.00  0.00    -0.383 OA
ATOM     28  H   UNL     1     179.341 180.209 173.152  1.00  0.00     0.211 HD
ENDBRANCH   9  27
ENDBRANCH   1   3
BRANCH   1  29
ATOM     29  C   UNL     1     178.654 178.664 169.668  1.00  0.00     0.551 C 
ATOM     30  O   UNL     1     178.799 179.377 168.701  1.00  0.00     0.048 OA
BRANCH  29  31
ATOM     31  C   UNL     1     177.719 177.521 169.567  1.00  0.00     0.139 A 
ATOM     32  C   UNL     1     176.428 177.811 169.145  1.00  0.00     0.073 A 
ATOM     33  C   UNL     1     178.069 176.189 169.836  1.00  0.00     0.053 A 
ATOM     34  C   UNL     1     175.485 176.813 168.985  1.00  0.00     0.162 A 
ATOM     35  C   UNL     1     177.105 175.202 169.663  1.00  0.00     0.170 A 
ATOM     36  C   UNL     1     175.825 175.503 169.244  1.00  0.00     0.200 A 
BRANCH  33  37
ATOM     37  C   UNL     1     179.407 175.668 170.306  1.00  0.00     0.047 A 
ATOM     38  C   UNL     1     179.786 175.450 171.630  1.00  0.00     0.075 A 
ATOM     39  C   UNL     1     180.338 175.426 169.305  1.00  0.00     0.170 A 
ATOM     40  C   UNL     1     181.076 175.016 171.921  1.00  0.00     0.066 A 
ATOM     41  C   UNL     1     181.617 174.995 169.597  1.00  0.00     0.200 A 
ATOM     42  C   UNL     1     181.992 174.791 170.910  1.00  0.00     0.162 A 
BRANCH  38  43
ATOM     43  C   UNL     1     178.869 175.636 172.760  1.00  0.00     0.339 C 
ATOM     44  O   UNL     1     178.471 174.689 173.399  1.00  0.00    -0.246 OA
BRANCH  43  45
ATOM     45  O   UNL     1     178.484 176.908 173.073  1.00  0.00    -0.459 OA
BRANCH  45  46
ATOM     46  C   UNL     1     177.092 177.156 173.273  1.00  0.00     0.272 C
ATOM     47  G   UNL     1     176.689 178.586 172.970  1.00  0.00     0.000 C
ENDBRANCH  45  46
ENDBRANCH  43  45
ENDBRANCH  38  43
BRANCH  39  48
ATOM     48  O   UNL     1     179.986 175.639 168.012  1.00  0.00    -0.504 OA
ATOM     49  H   UNL     1     179.638 174.913 167.489  1.00  0.00     0.293 HD
ENDBRANCH  39  48
BRANCH  41  50
ATOM     50  O   UNL     1     182.503 174.782 168.587  1.00  0.00    -0.502 OA
ATOM     51  H   UNL     1     182.291 174.157 167.890  1.00  0.00     0.293 HD
ENDBRANCH  41  50
BRANCH  42  52
ATOM     52  O   UNL     1     183.251 174.371 171.208  1.00  0.00    -0.504 OA
ATOM     53  H   UNL     1     183.901 174.284 170.507  1.00  0.00     0.293 HD
ENDBRANCH  42  52
ENDBRANCH  33  37
BRANCH  34  54
ATOM     54  O   UNL     1     174.230 177.121 168.569  1.00  0.00    -0.504 OA
ATOM     55  H   UNL     1     173.881 177.996 168.741  1.00  0.00     0.293 HD
ENDBRANCH  34  54
BRANCH  35  56
ATOM     56  O   UNL     1     177.426 173.906 169.916  1.00  0.00    -0.504 OA
ATOM     57  H   UNL     1     177.981 173.679 170.667  1.00  0.00     0.293 HD
ENDBRANCH  35  56
BRANCH  36  58
ATOM     58  O   UNL     1     174.910 174.510 169.086  1.00  0.00    -0.502 OA
ATOM     59  H   UNL     1     174.949 173.731 169.644  1.00  0.00     0.293 HD
ENDBRANCH  36  58
ENDBRANCH  29  31
ENDBRANCH   1  29
TORSDOF 14
