REMARK VINA RESULT:      -8.9      1.622      2.914
REMARK SMILES O=C(O[C@@H]1O[C@@H]2COC(=O)c3cc(O)c(O)c(O)c3-c3c(cc(O)c(O)c3O)C(=O)[OH+][C@H]2[C@@H](O)[C@H]1O)c1cc(O)c(O)c(O)c1
REMARK SMILES IDX 31 1 32 3 5 4 6 5 4 6 35 8 33 9 3 10 2 11 1 12 37 13 45 14
REMARK SMILES IDX 38 15 43 16 39 17 41 18 44 19 40 21 42 23 36 25 34 27 29 29
REMARK SMILES IDX 30 30 21 31 22 32 20 33 23 34 27 35 25 36 19 37 11 38 17 39
REMARK SMILES IDX 12 40 15 41 13 42 9 43 10 44 8 45 7 46 18 48 16 50 14 52
REMARK SMILES IDX 24 54 28 56 26 58
REMARK H PARENT 31 2 44 20 40 22 42 24 36 26 34 28 18 49 16 51 14 53 24 55
REMARK H PARENT 28 57 26 59
REMARK Flexibility Score: 70.00
ROOT
ATOM      1  O   UNL     1     180.815 179.864 171.384  1.00  0.00    -0.545 OA
ATOM      2  H   UNL     1     180.883 179.881 170.426  1.00  0.00     0.400 HD
ENDROOT
BRANCH   1   3
ATOM      3  C   UNL     1     181.143 181.172 171.852  1.00  0.00     0.294 C 
ATOM      4  O   UNL     1     182.151 183.243 171.245  1.00  0.00    -0.327 OA
ATOM      5  C   UNL     1     182.116 181.866 170.912  1.00  0.00     0.226 C
ATOM      6  C   UNL     1     182.792 183.412 172.504  1.00  0.00     0.343 C 
ATOM      7  G   UNL     1     181.680 181.679 169.472  1.00  0.00     0.000 C
ATOM      8  C   UNL     1     182.001 182.695 173.617  1.00  0.00     0.218 C 
ATOM      9  C   UNL     1     181.786 181.216 173.237  1.00  0.00     0.215 C 
BRANCH   6  10
ATOM     10  O   UNL     1     182.897 184.796 172.791  1.00  0.00    -0.429 OA
BRANCH  10  11
ATOM     11  C   UNL     1     184.110 185.404 172.690  1.00  0.00     0.340 C 
ATOM     12  O   UNL     1     184.328 186.182 171.787  1.00  0.00    -0.246 OA
BRANCH  11  13
ATOM     13  C   UNL     1     185.155 185.100 173.677  1.00  0.00     0.067 A 
ATOM     14  C   UNL     1     186.115 184.147 173.382  1.00  0.00     0.066 A 
ATOM     15  C   UNL     1     185.193 185.770 174.890  1.00  0.00     0.066 A 
ATOM     16  C   UNL     1     187.116 183.862 174.296  1.00  0.00     0.162 A 
ATOM     17  C   UNL     1     186.194 185.482 175.806  1.00  0.00     0.162 A 
ATOM     18  C   UNL     1     187.157 184.530 175.509  1.00  0.00     0.200 A 
BRANCH  16  19
ATOM     19  O   UNL     1     188.059 182.926 174.000  1.00  0.00    -0.504 OA
ATOM     20  H   UNL     1     188.980 183.089 174.215  1.00  0.00     0.293 HD
ENDBRANCH  16  19
BRANCH  17  21
ATOM     21  O   UNL     1     186.234 186.137 176.998  1.00  0.00    -0.504 OA
ATOM     22  H   UNL     1     186.942 185.955 177.618  1.00  0.00     0.293 HD
ENDBRANCH  17  21
BRANCH  18  23
ATOM     23  O   UNL     1     188.140 184.252 176.408  1.00  0.00    -0.502 OA
ATOM     24  H   UNL     1     189.025 184.041 176.103  1.00  0.00     0.293 HD
ENDBRANCH  18  23
ENDBRANCH  11  13
ENDBRANCH  10  11
ENDBRANCH   6  10
BRANCH   8  25
ATOM     25  O   UNL     1     182.717 182.789 174.839  1.00  0.00    -0.384 OA
ATOM     26  H   UNL     1     183.163 183.660 175.098  1.00  0.00     0.211 HD
ENDBRANCH   8  25
BRANCH   9  27
ATOM     27  O   UNL     1     183.031 180.538 173.217  1.00  0.00    -0.383 OA
ATOM     28  H   UNL     1     183.095 179.587 173.556  1.00  0.00     0.211 HD
ENDBRANCH   9  27
ENDBRANCH   1   3
BRANCH   1  29
ATOM     29  C   UNL     1     179.752 179.291 172.021  1.00  0.00     0.551 C 
ATOM     30  O   UNL     1     178.884 180.025 172.433  1.00  0.00     0.048 OA
BRANCH  29  31
ATOM     31  C   UNL     1     179.621 177.837 172.265  1.00  0.00     0.139 A 
ATOM     32  C   UNL     1     180.509 177.278 173.174  1.00  0.00     0.073 A 
ATOM     33  C   UNL     1     178.648 177.021 171.667  1.00  0.00     0.053 A 
ATOM     34  C   UNL     1     180.451 175.936 173.501  1.00  0.00     0.162 A 
ATOM     35  C   UNL     1     178.607 175.675 172.014  1.00  0.00     0.170 A 
ATOM     36  C   UNL     1     179.496 175.131 172.918  1.00  0.00     0.200 A 
BRANCH  33  37
ATOM     37  C   UNL     1     177.601 177.429 170.658  1.00  0.00     0.047 A 
ATOM     38  C   UNL     1     177.818 177.688 169.305  1.00  0.00     0.075 A 
ATOM     39  C   UNL     1     176.317 177.589 171.162  1.00  0.00     0.170 A 
ATOM     40  C   UNL     1     176.764 178.109 168.500  1.00  0.00     0.066 A 
ATOM     41  C   UNL     1     175.273 178.007 170.361  1.00  0.00     0.200 A 
ATOM     42  C   UNL     1     175.494 178.273 169.024  1.00  0.00     0.162 A 
BRANCH  38  43
ATOM     43  C   UNL     1     179.125 177.512 168.663  1.00  0.00     0.339 C 
ATOM     44  O   UNL     1     179.921 178.422 168.618  1.00  0.00    -0.246 OA
BRANCH  43  45
ATOM     45  O   UNL     1     179.419 176.292 168.125  1.00  0.00    -0.459 OA
BRANCH  45  46
ATOM     46  C   UNL     1     180.412 175.497 168.774  1.00  0.00     0.272 C
ATOM     47  G   UNL     1     180.020 174.038 168.905  1.00  0.00     0.000 C
ENDBRANCH  45  46
ENDBRANCH  43  45
ENDBRANCH  38  43
BRANCH  39  48
ATOM     48  O   UNL     1     176.091 177.347 172.478  1.00  0.00    -0.504 OA
ATOM     49  H   UNL     1     175.331 177.744 172.910  1.00  0.00     0.293 HD
ENDBRANCH  39  48
BRANCH  41  50
ATOM     50  O   UNL     1     174.032 178.163 170.897  1.00  0.00    -0.502 OA
ATOM     51  H   UNL     1     173.739 179.033 171.174  1.00  0.00     0.293 HD
ENDBRANCH  41  50
BRANCH  42  52
ATOM     52  O   UNL     1     174.474 178.689 168.228  1.00  0.00    -0.504 OA
ATOM     53  H   UNL     1     174.398 178.347 167.334  1.00  0.00     0.293 HD
ENDBRANCH  42  52
ENDBRANCH  33  37
BRANCH  34  54
ATOM     54  O   UNL     1     181.330 175.412 174.394  1.00  0.00    -0.504 OA
ATOM     55  H   UNL     1     182.004 174.805 174.087  1.00  0.00     0.293 HD
ENDBRANCH  34  54
BRANCH  35  56
ATOM     56  O   UNL     1     177.670 174.869 171.448  1.00  0.00    -0.504 OA
ATOM     57  H   UNL     1     177.934 174.141 170.879  1.00  0.00     0.293 HD
ENDBRANCH  35  56
BRANCH  36  58
ATOM     58  O   UNL     1     179.424 173.810 173.233  1.00  0.00    -0.502 OA
ATOM     59  H   UNL     1     178.685 173.285 172.921  1.00  0.00     0.293 HD
ENDBRANCH  36  58
ENDBRANCH  29  31
ENDBRANCH   1  29
TORSDOF 14
