REMARK VINA RESULT:      -8.8      2.083      5.104
REMARK SMILES O=C(O[C@@H]1O[C@@H]2COC(=O)c3cc(O)c(O)c(O)c3-c3c(cc(O)c(O)c3O)C(=O)[OH+][C@H]2[C@@H](O)[C@H]1O)c1cc(O)c(O)c(O)c1
REMARK SMILES IDX 31 1 32 3 5 4 6 5 4 6 35 8 33 9 3 10 2 11 1 12 37 13 45 14
REMARK SMILES IDX 38 15 43 16 39 17 41 18 44 19 40 21 42 23 36 25 34 27 29 29
REMARK SMILES IDX 30 30 21 31 22 32 20 33 23 34 27 35 25 36 19 37 11 38 17 39
REMARK SMILES IDX 12 40 15 41 13 42 9 43 10 44 8 45 7 46 18 48 16 50 14 52
REMARK SMILES IDX 24 54 28 56 26 58
REMARK H PARENT 31 2 44 20 40 22 42 24 36 26 34 28 18 49 16 51 14 53 24 55
REMARK H PARENT 28 57 26 59
REMARK Flexibility Score: 70.00
ROOT
ATOM      1  O   UNL     1     178.661 179.305 168.185  1.00  0.00    -0.545 OA
ATOM      2  H   UNL     1     177.798 179.695 168.023  1.00  0.00     0.400 HD
ENDROOT
BRANCH   1   3
ATOM      3  C   UNL     1     179.327 180.139 169.133  1.00  0.00     0.294 C 
ATOM      4  O   UNL     1     179.044 181.973 170.626  1.00  0.00    -0.327 OA
ATOM      5  C   UNL     1     178.495 181.366 169.470  1.00  0.00     0.226 C
ATOM      6  C   UNL     1     180.303 182.554 170.307  1.00  0.00     0.343 C 
ATOM      7  G   UNL     1     177.052 180.972 169.711  1.00  0.00     0.000 C
ATOM      8  C   UNL     1     181.299 181.471 169.844  1.00  0.00     0.218 C 
ATOM      9  C   UNL     1     180.691 180.660 168.683  1.00  0.00     0.215 C 
BRANCH   6  10
ATOM     10  O   UNL     1     180.807 183.229 171.446  1.00  0.00    -0.429 OA
BRANCH  10  11
ATOM     11  C   UNL     1     181.111 182.513 172.562  1.00  0.00     0.340 C 
ATOM     12  O   UNL     1     180.529 181.477 172.797  1.00  0.00    -0.246 OA
BRANCH  11  13
ATOM     13  C   UNL     1     182.141 183.012 173.482  1.00  0.00     0.067 A 
ATOM     14  C   UNL     1     182.742 184.235 173.234  1.00  0.00     0.066 A 
ATOM     15  C   UNL     1     182.504 182.276 174.600  1.00  0.00     0.066 A 
ATOM     16  C   UNL     1     183.703 184.726 174.102  1.00  0.00     0.162 A 
ATOM     17  C   UNL     1     183.468 182.767 175.467  1.00  0.00     0.162 A 
ATOM     18  C   UNL     1     184.067 183.993 175.220  1.00  0.00     0.200 A 
BRANCH  16  19
ATOM     19  O   UNL     1     184.289 185.930 173.856  1.00  0.00    -0.504 OA
ATOM     20  H   UNL     1     185.245 185.997 173.808  1.00  0.00     0.293 HD
ENDBRANCH  16  19
BRANCH  17  21
ATOM     21  O   UNL     1     183.826 182.048 176.565  1.00  0.00    -0.504 OA
ATOM     22  H   UNL     1     184.423 182.428 177.211  1.00  0.00     0.293 HD
ENDBRANCH  17  21
BRANCH  18  23
ATOM     23  O   UNL     1     185.009 184.474 176.075  1.00  0.00    -0.502 OA
ATOM     24  H   UNL     1     184.915 184.344 177.021  1.00  0.00     0.293 HD
ENDBRANCH  18  23
ENDBRANCH  11  13
ENDBRANCH  10  11
ENDBRANCH   6  10
BRANCH   8  25
ATOM     25  O   UNL     1     182.509 182.088 169.432  1.00  0.00    -0.384 OA
ATOM     26  H   UNL     1     183.377 181.863 169.900  1.00  0.00     0.211 HD
ENDBRANCH   8  25
BRANCH   9  27
ATOM     27  O   UNL     1     180.542 181.490 167.542  1.00  0.00    -0.383 OA
ATOM     28  H   UNL     1     181.284 182.125 167.278  1.00  0.00     0.211 HD
ENDBRANCH   9  27
ENDBRANCH   1   3
BRANCH   1  29
ATOM     29  C   UNL     1     178.817 177.967 168.408  1.00  0.00     0.551 C 
ATOM     30  O   UNL     1     179.399 177.323 167.566  1.00  0.00     0.048 OA
BRANCH  29  31
ATOM     31  C   UNL     1     178.288 177.259 169.595  1.00  0.00     0.139 A 
ATOM     32  C   UNL     1     176.920 177.021 169.615  1.00  0.00     0.073 A 
ATOM     33  C   UNL     1     179.080 176.799 170.658  1.00  0.00     0.053 A 
ATOM     34  C   UNL     1     176.327 176.338 170.661  1.00  0.00     0.162 A 
ATOM     35  C   UNL     1     178.461 176.112 171.697  1.00  0.00     0.170 A 
ATOM     36  C   UNL     1     177.101 175.881 171.706  1.00  0.00     0.200 A 
BRANCH  33  37
ATOM     37  C   UNL     1     180.572 176.960 170.828  1.00  0.00     0.047 A 
ATOM     38  C   UNL     1     181.556 176.127 170.296  1.00  0.00     0.075 A 
ATOM     39  C   UNL     1     180.970 178.026 171.624  1.00  0.00     0.170 A 
ATOM     40  C   UNL     1     182.897 176.366 170.581  1.00  0.00     0.066 A 
ATOM     41  C   UNL     1     182.301 178.261 171.905  1.00  0.00     0.200 A 
ATOM     42  C   UNL     1     183.272 177.427 171.385  1.00  0.00     0.162 A 
BRANCH  38  43
ATOM     43  C   UNL     1     181.248 174.999 169.412  1.00  0.00     0.339 C 
ATOM     44  O   UNL     1     181.518 175.042 168.233  1.00  0.00    -0.246 OA
BRANCH  43  45
ATOM     45  O   UNL     1     180.655 173.896 169.958  1.00  0.00    -0.459 OA
BRANCH  45  46
ATOM     46  C   UNL     1     181.395 173.147 170.923  1.00  0.00     0.272 C
ATOM     47  G   UNL     1     180.547 172.656 172.080  1.00  0.00     0.000 C
ENDBRANCH  45  46
ENDBRANCH  43  45
ENDBRANCH  38  43
BRANCH  39  48
ATOM     48  O   UNL     1     180.024 178.842 172.154  1.00  0.00    -0.504 OA
ATOM     49  H   UNL     1     180.250 179.747 172.381  1.00  0.00     0.293 HD
ENDBRANCH  39  48
BRANCH  41  50
ATOM     50  O   UNL     1     182.648 179.309 172.700  1.00  0.00    -0.502 OA
ATOM     51  H   UNL     1     182.035 180.036 172.825  1.00  0.00     0.293 HD
ENDBRANCH  41  50
BRANCH  42  52
ATOM     52  O   UNL     1     184.586 177.648 171.659  1.00  0.00    -0.504 OA
ATOM     53  H   UNL     1     184.987 177.233 172.426  1.00  0.00     0.293 HD
ENDBRANCH  42  52
ENDBRANCH  33  37
BRANCH  34  54
ATOM     54  O   UNL     1     174.987 176.114 170.658  1.00  0.00    -0.504 OA
ATOM     55  H   UNL     1     174.508 176.132 171.487  1.00  0.00     0.293 HD
ENDBRANCH  34  54
BRANCH  35  56
ATOM     56  O   UNL     1     179.212 175.656 172.734  1.00  0.00    -0.504 OA
ATOM     57  H   UNL     1     179.911 176.201 173.105  1.00  0.00     0.293 HD
ENDBRANCH  35  56
BRANCH  36  58
ATOM     58  O   UNL     1     176.532 175.204 172.739  1.00  0.00    -0.502 OA
ATOM     59  H   UNL     1     176.317 175.666 173.551  1.00  0.00     0.293 HD
ENDBRANCH  36  58
ENDBRANCH  29  31
ENDBRANCH   1  29
TORSDOF 14
