MODEL 1
REMARK VINA RESULT:      -7.8      0.000      0.000
REMARK  Name = 9823887
REMARK                            x       y       z     vdW  Elec       q    Type
REMARK                         _______ _______ _______ _____ _____    ______ ____
ROOT
ATOM      1  O   LIG    1      164.598 172.575 169.220  0.00  0.00    -0.341 OA
ATOM      2  C   LIG    1      164.978 173.620 168.328  0.00  0.00    +0.282 C 
ATOM      3  C   LIG    1      163.911 173.819 167.251  0.00  0.00    +0.201 C 
ATOM      4  C   LIG    1      162.531 174.041 167.868  0.00  0.00    +0.179 C 
ATOM      5  C   LIG    1      162.227 172.990 168.935  0.00  0.00    +0.177 C 
ATOM     22  C   LIG    1      163.389 172.866 169.923  0.00  0.00    +0.178 C 
ENDROOT
BRANCH   5   6
ATOM      6  O   LIG    1      161.046 173.362 169.641  0.00  0.00    -0.386 OA
ATOM      7  H   LIG    1      160.798 172.622 170.222  0.00  0.00    +0.210 HD
ENDBRANCH   5   6
BRANCH   4   8
ATOM      8  O   LIG    1      161.533 173.939 166.851  0.00  0.00    -0.386 OA
ATOM      9  H   LIG    1      161.202 174.837 166.678  0.00  0.00    +0.210 HD
ENDBRANCH   4   8
BRANCH   3  10
ATOM     10  O   LIG    1      164.271 174.960 166.472  0.00  0.00    -0.384 OA
ATOM     11  H   LIG    1      163.579 175.632 166.585  0.00  0.00    +0.210 HD
ENDBRANCH   3  10
BRANCH   2  12
ATOM     12  O   LIG    1      166.202 173.279 167.680  0.00  0.00    -0.345 OA
BRANCH  12  13
ATOM     13  C   LIG    1      167.309 173.916 168.296  0.00  0.00    +0.190 C 
BRANCH  13  14
ATOM     14  C   LIG    1      168.525 173.071 168.095  0.00  0.00    +0.001 C 
ATOM     15  C   LIG    1      169.757 173.578 167.936  0.00  0.00    +0.006 C 
BRANCH  15  16
ATOM     16  C   LIG    1      170.985 172.785 167.749  0.00  0.00    -0.025 A 
ATOM     17  C   LIG    1      171.030 171.830 166.746  0.00  0.00    +0.008 A 
ATOM     18  C   LIG    1      172.192 171.080 166.570  0.00  0.00    +0.001 A 
ATOM     19  C   LIG    1      173.293 171.293 167.399  0.00  0.00    +0.000 A 
ATOM     20  C   LIG    1      173.233 172.257 168.405  0.00  0.00    +0.001 A 
ATOM     21  C   LIG    1      172.070 173.008 168.581  0.00  0.00    +0.008 A 
ENDBRANCH  15  16
ENDBRANCH  13  14
ENDBRANCH  12  13
ENDBRANCH   2  12
BRANCH  22  23
ATOM     23  C   LIG    1      163.159 171.742 170.929  0.00  0.00    +0.197 C 
BRANCH  23  24
ATOM     24  O   LIG    1      163.771 170.564 170.436  0.00  0.00    -0.346 OA
BRANCH  24  25
ATOM     25  C   LIG    1      162.829 169.510 170.270  0.00  0.00    +0.281 C 
ATOM     26  C   LIG    1      162.088 169.676 168.934  0.00  0.00    +0.201 C 
ATOM     27  C   LIG    1      162.969 169.306 167.736  0.00  0.00    +0.178 C 
ATOM     28  C   LIG    1      163.634 167.949 167.971  0.00  0.00    +0.171 C 
ATOM     29  C   LIG    1      164.351 167.928 169.315  0.00  0.00    +0.197 C 
ATOM     36  O   LIG    1      163.443 168.220 170.374  0.00  0.00    -0.346 OA
BRANCH  28  30
ATOM     30  O   LIG    1      164.546 167.670 166.918  0.00  0.00    -0.387 OA
ATOM     31  H   LIG    1      164.442 166.732 166.680  0.00  0.00    +0.210 HD
ENDBRANCH  28  30
BRANCH  27  32
ATOM     32  O   LIG    1      163.976 170.300 167.559  0.00  0.00    -0.386 OA
ATOM     33  H   LIG    1      164.704 170.092 168.169  0.00  0.00    +0.210 HD
ENDBRANCH  27  32
BRANCH  26  34
ATOM     34  O   LIG    1      160.942 168.829 168.957  0.00  0.00    -0.384 OA
ATOM     35  H   LIG    1      160.684 168.685 169.883  0.00  0.00    +0.210 HD
ENDBRANCH  26  34
ENDBRANCH  24  25
ENDBRANCH  23  24
ENDBRANCH  22  23
TORSDOF 13
ENDMDL
MODEL 2
REMARK VINA RESULT:      -7.8      4.012      8.858
REMARK  Name = 9823887
REMARK                            x       y       z     vdW  Elec       q    Type
REMARK                         _______ _______ _______ _____ _____    ______ ____
ROOT
ATOM      1  O   LIG    1      170.059 173.721 168.830  0.00  0.00    -0.341 OA
ATOM      2  C   LIG    1      168.696 173.906 169.206  0.00  0.00    +0.282 C 
ATOM      3  C   LIG    1      168.453 173.374 170.619  0.00  0.00    +0.201 C 
ATOM      4  C   LIG    1      169.432 173.986 171.620  0.00  0.00    +0.179 C 
ATOM      5  C   LIG    1      170.869 173.911 171.107  0.00  0.00    +0.177 C 
ATOM     22  C   LIG    1      170.962 174.438 169.673  0.00  0.00    +0.178 C 
ENDROOT
BRANCH   5   6
ATOM      6  O   LIG    1      171.714 174.689 171.951  0.00  0.00    -0.386 OA
ATOM      7  H   LIG    1      171.621 174.353 172.859  0.00  0.00    +0.210 HD
ENDBRANCH   5   6
BRANCH   4   8
ATOM      8  O   LIG    1      169.365 173.266 172.852  0.00  0.00    -0.386 OA
ATOM      9  H   LIG    1      168.808 173.781 173.461  0.00  0.00    +0.210 HD
ENDBRANCH   4   8
BRANCH   3  10
ATOM     10  O   LIG    1      167.118 173.705 170.998  0.00  0.00    -0.384 OA
ATOM     11  H   LIG    1      166.600 172.882 171.027  0.00  0.00    +0.210 HD
ENDBRANCH   3  10
BRANCH   2  12
ATOM     12  O   LIG    1      167.847 173.188 168.313  0.00  0.00    -0.345 OA
BRANCH  12  13
ATOM     13  C   LIG    1      167.198 174.060 167.402  0.00  0.00    +0.190 C 
BRANCH  13  14
ATOM     14  C   LIG    1      165.725 173.815 167.467  0.00  0.00    +0.001 C 
ATOM     15  C   LIG    1      164.923 174.380 168.382  0.00  0.00    +0.006 C 
BRANCH  15  16
ATOM     16  C   LIG    1      163.466 174.179 168.475  0.00  0.00    -0.025 A 
ATOM     17  C   LIG    1      162.757 173.821 167.340  0.00  0.00    +0.008 A 
ATOM     18  C   LIG    1      161.378 173.631 167.428  0.00  0.00    +0.001 A 
ATOM     19  C   LIG    1      160.726 173.803 168.649  0.00  0.00    +0.000 A 
ATOM     20  C   LIG    1      161.454 174.163 169.783  0.00  0.00    +0.001 A 
ATOM     21  C   LIG    1      162.833 174.353 169.695  0.00  0.00    +0.008 A 
ENDBRANCH  15  16
ENDBRANCH  13  14
ENDBRANCH  12  13
ENDBRANCH   2  12
BRANCH  22  23
ATOM     23  C   LIG    1      172.365 174.265 169.097  0.00  0.00    +0.197 C 
BRANCH  23  24
ATOM     24  O   LIG    1      172.250 173.893 167.735  0.00  0.00    -0.346 OA
BRANCH  24  25
ATOM     25  C   LIG    1      173.247 172.949 167.360  0.00  0.00    +0.281 C 
ATOM     26  C   LIG    1      172.785 171.528 167.720  0.00  0.00    +0.201 C 
ATOM     27  C   LIG    1      171.701 171.016 166.765  0.00  0.00    +0.178 C 
ATOM     28  C   LIG    1      172.131 171.236 165.314  0.00  0.00    +0.171 C 
ATOM     29  C   LIG    1      172.539 172.687 165.089  0.00  0.00    +0.197 C 
ATOM     36  O   LIG    1      173.594 173.055 165.975  0.00  0.00    -0.346 OA
BRANCH  28  30
ATOM     30  O   LIG    1      171.072 170.878 164.437  0.00  0.00    -0.387 OA
ATOM     31  H   LIG    1      171.351 171.102 163.533  0.00  0.00    +0.210 HD
ENDBRANCH  28  30
BRANCH  27  32
ATOM     32  O   LIG    1      170.482 171.716 167.007  0.00  0.00    -0.386 OA
ATOM     33  H   LIG    1      170.066 171.318 167.791  0.00  0.00    +0.210 HD
ENDBRANCH  27  32
BRANCH  26  34
ATOM     34  O   LIG    1      173.918 170.666 167.655  0.00  0.00    -0.384 OA
ATOM     35  H   LIG    1      174.194 170.590 166.726  0.00  0.00    +0.210 HD
ENDBRANCH  26  34
ENDBRANCH  24  25
ENDBRANCH  23  24
ENDBRANCH  22  23
TORSDOF 13
ENDMDL
MODEL 3
REMARK VINA RESULT:      -7.7      4.000      9.178
REMARK  Name = 9823887
REMARK                            x       y       z     vdW  Elec       q    Type
REMARK                         _______ _______ _______ _____ _____    ______ ____
ROOT
ATOM      1  O   LIG    1      169.263 173.848 168.869  0.00  0.00    -0.341 OA
ATOM      2  C   LIG    1      168.502 174.196 170.024  0.00  0.00    +0.282 C 
ATOM      3  C   LIG    1      169.379 174.154 171.276  0.00  0.00    +0.201 C 
ATOM      4  C   LIG    1      170.629 175.018 171.108  0.00  0.00    +0.179 C 
ATOM      5  C   LIG    1      171.329 174.727 169.782  0.00  0.00    +0.177 C 
ATOM     22  C   LIG    1      170.332 174.763 168.621  0.00  0.00    +0.178 C 
ENDROOT
BRANCH   5   6
ATOM      6  O   LIG    1      172.345 175.702 169.561  0.00  0.00    -0.386 OA
ATOM      7  H   LIG    1      172.197 176.435 170.183  0.00  0.00    +0.210 HD
ENDBRANCH   5   6
BRANCH   4   8
ATOM      8  O   LIG    1      171.548 174.734 172.165  0.00  0.00    -0.386 OA
ATOM      9  H   LIG    1      171.043 174.325 172.888  0.00  0.00    +0.210 HD
ENDBRANCH   4   8
BRANCH   3  10
ATOM     10  O   LIG    1      168.611 174.640 172.376  0.00  0.00    -0.384 OA
ATOM     11  H   LIG    1      168.041 175.357 172.053  0.00  0.00    +0.210 HD
ENDBRANCH   3  10
BRANCH   2  12
ATOM     12  O   LIG    1      167.439 173.261 170.200  0.00  0.00    -0.345 OA
BRANCH  12  13
ATOM     13  C   LIG    1      166.690 173.100 169.006  0.00  0.00    +0.190 C 
BRANCH  13  14
ATOM     14  C   LIG    1      165.270 173.486 169.272  0.00  0.00    +0.001 C 
ATOM     15  C   LIG    1      164.295 173.388 168.355  0.00  0.00    +0.006 C 
BRANCH  15  16
ATOM     16  C   LIG    1      162.883 173.741 168.576  0.00  0.00    -0.025 A 
ATOM     17  C   LIG    1      162.046 173.911 167.484  0.00  0.00    +0.008 A 
ATOM     18  C   LIG    1      160.709 174.246 167.694  0.00  0.00    +0.001 A 
ATOM     19  C   LIG    1      160.225 174.408 168.992  0.00  0.00    +0.000 A 
ATOM     20  C   LIG    1      161.078 174.234 170.081  0.00  0.00    +0.001 A 
ATOM     21  C   LIG    1      162.416 173.899 169.871  0.00  0.00    +0.008 A 
ENDBRANCH  15  16
ENDBRANCH  13  14
ENDBRANCH  12  13
ENDBRANCH   2  12
BRANCH  22  23
ATOM     23  C   LIG    1      170.985 174.361 167.302  0.00  0.00    +0.197 C 
BRANCH  23  24
ATOM     24  O   LIG    1      172.095 173.529 167.584  0.00  0.00    -0.346 OA
BRANCH  24  25
ATOM     25  C   LIG    1      171.807 172.159 167.325  0.00  0.00    +0.281 C 
ATOM     26  C   LIG    1      171.224 172.005 165.911  0.00  0.00    +0.201 C 
ATOM     27  C   LIG    1      172.295 172.160 164.826  0.00  0.00    +0.178 C 
ATOM     28  C   LIG    1      173.506 171.285 165.153  0.00  0.00    +0.171 C 
ATOM     29  C   LIG    1      173.996 171.554 166.570  0.00  0.00    +0.197 C 
ATOM     36  O   LIG    1      172.954 171.323 167.515  0.00  0.00    -0.346 OA
BRANCH  28  30
ATOM     30  O   LIG    1      174.545 171.528 164.215  0.00  0.00    -0.387 OA
ATOM     31  H   LIG    1      175.290 170.947 164.444  0.00  0.00    +0.210 HD
ENDBRANCH  28  30
BRANCH  27  32
ATOM     32  O   LIG    1      172.706 173.524 164.752  0.00  0.00    -0.386 OA
ATOM     33  H   LIG    1      172.635 173.801 163.822  0.00  0.00    +0.210 HD
ENDBRANCH  27  32
BRANCH  26  34
ATOM     34  O   LIG    1      170.638 170.710 165.815  0.00  0.00    -0.384 OA
ATOM     35  H   LIG    1      171.115 170.110 166.412  0.00  0.00    +0.210 HD
ENDBRANCH  26  34
ENDBRANCH  24  25
ENDBRANCH  23  24
ENDBRANCH  22  23
TORSDOF 13
ENDMDL
MODEL 4
REMARK VINA RESULT:      -7.7      4.783      9.327
REMARK  Name = 9823887
REMARK                            x       y       z     vdW  Elec       q    Type
REMARK                         _______ _______ _______ _____ _____    ______ ____
ROOT
ATOM      1  O   LIG    1      162.849 169.897 170.231  0.00  0.00    -0.341 OA
ATOM      2  C   LIG    1      163.686 169.434 171.289  0.00  0.00    +0.282 C 
ATOM      3  C   LIG    1      163.958 167.937 171.141  0.00  0.00    +0.201 C 
ATOM      4  C   LIG    1      164.516 167.607 169.758  0.00  0.00    +0.179 C 
ATOM      5  C   LIG    1      163.681 168.254 168.654  0.00  0.00    +0.177 C 
ATOM     22  C   LIG    1      163.453 169.739 168.946  0.00  0.00    +0.178 C 
ENDROOT
BRANCH   5   6
ATOM      6  O   LIG    1      164.358 168.117 167.407  0.00  0.00    -0.386 OA
ATOM      7  H   LIG    1      163.799 168.516 166.718  0.00  0.00    +0.210 HD
ENDBRANCH   5   6
BRANCH   4   8
ATOM      8  O   LIG    1      164.489 166.192 169.559  0.00  0.00    -0.386 OA
ATOM      9  H   LIG    1      165.387 165.858 169.725  0.00  0.00    +0.210 HD
ENDBRANCH   4   8
BRANCH   3  10
ATOM     10  O   LIG    1      164.904 167.554 172.139  0.00  0.00    -0.384 OA
ATOM     11  H   LIG    1      164.646 166.682 172.480  0.00  0.00    +0.210 HD
ENDBRANCH   3  10
BRANCH   2  12
ATOM     12  O   LIG    1      163.038 169.643 172.542  0.00  0.00    -0.345 OA
BRANCH  12  13
ATOM     13  C   LIG    1      162.615 170.989 172.688  0.00  0.00    +0.190 C 
BRANCH  13  14
ATOM     14  C   LIG    1      161.567 171.053 173.752  0.00  0.00    +0.001 C 
ATOM     15  C   LIG    1      161.053 169.965 174.346  0.00  0.00    +0.006 C 
BRANCH  15  16
ATOM     16  C   LIG    1      160.031 169.979 175.407  0.00  0.00    -0.025 A 
ATOM     17  C   LIG    1      159.227 171.097 175.561  0.00  0.00    +0.008 A 
ATOM     18  C   LIG    1      158.260 171.110 176.565  0.00  0.00    +0.001 A 
ATOM     19  C   LIG    1      158.110 170.006 177.404  0.00  0.00    +0.000 A 
ATOM     20  C   LIG    1      158.927 168.888 177.238  0.00  0.00    +0.001 A 
ATOM     21  C   LIG    1      159.894 168.875 176.233  0.00  0.00    +0.008 A 
ENDBRANCH  15  16
ENDBRANCH  13  14
ENDBRANCH  12  13
ENDBRANCH   2  12
BRANCH  22  23
ATOM     23  C   LIG    1      162.524 170.381 167.919  0.00  0.00    +0.197 C 
BRANCH  23  24
ATOM     24  O   LIG    1      161.819 171.436 168.547  0.00  0.00    -0.346 OA
BRANCH  24  25
ATOM     25  C   LIG    1      162.395 172.705 168.253  0.00  0.00    +0.281 C 
ATOM     26  C   LIG    1      161.473 173.492 167.309  0.00  0.00    +0.201 C 
ATOM     27  C   LIG    1      160.235 174.033 168.031  0.00  0.00    +0.178 C 
ATOM     28  C   LIG    1      160.647 174.747 169.320  0.00  0.00    +0.171 C 
ATOM     29  C   LIG    1      161.535 173.849 170.171  0.00  0.00    +0.197 C 
ATOM     36  O   LIG    1      162.691 173.448 169.441  0.00  0.00    -0.346 OA
BRANCH  28  30
ATOM     30  O   LIG    1      159.490 175.135 170.048  0.00  0.00    -0.387 OA
ATOM     31  H   LIG    1      159.766 175.793 170.709  0.00  0.00    +0.210 HD
ENDBRANCH  28  30
BRANCH  27  32
ATOM     32  O   LIG    1      159.358 172.954 168.351  0.00  0.00    -0.386 OA
ATOM     33  H   LIG    1      159.272 172.401 167.555  0.00  0.00    +0.210 HD
ENDBRANCH  27  32
BRANCH  26  34
ATOM     34  O   LIG    1      162.219 174.581 166.771  0.00  0.00    -0.384 OA
ATOM     35  H   LIG    1      162.930 174.805 167.394  0.00  0.00    +0.210 HD
ENDBRANCH  26  34
ENDBRANCH  24  25
ENDBRANCH  23  24
ENDBRANCH  22  23
TORSDOF 13
ENDMDL
MODEL 5
REMARK VINA RESULT:      -7.7      5.819      9.299
REMARK  Name = 9823887
REMARK                            x       y       z     vdW  Elec       q    Type
REMARK                         _______ _______ _______ _____ _____    ______ ____
ROOT
ATOM      1  O   LIG    1      170.283 174.595 170.257  0.00  0.00    -0.341 OA
ATOM      2  C   LIG    1      169.651 174.070 171.422  0.00  0.00    +0.282 C 
ATOM      3  C   LIG    1      168.134 174.023 171.234  0.00  0.00    +0.201 C 
ATOM      4  C   LIG    1      167.754 173.266 169.962  0.00  0.00    +0.179 C 
ATOM      5  C   LIG    1      168.570 173.751 168.764  0.00  0.00    +0.177 C 
ATOM     22  C   LIG    1      170.063 173.785 169.101  0.00  0.00    +0.178 C 
ENDROOT
BRANCH   5   6
ATOM      6  O   LIG    1      168.356 172.874 167.661  0.00  0.00    -0.386 OA
ATOM      7  H   LIG    1      168.678 171.991 167.913  0.00  0.00    +0.210 HD
ENDBRANCH   5   6
BRANCH   4   8
ATOM      8  O   LIG    1      166.373 173.485 169.673  0.00  0.00    -0.386 OA
ATOM      9  H   LIG    1      165.866 173.221 170.459  0.00  0.00    +0.210 HD
ENDBRANCH   4   8
BRANCH   3  10
ATOM     10  O   LIG    1      167.563 173.366 172.365  0.00  0.00    -0.384 OA
ATOM     11  H   LIG    1      166.801 172.847 172.059  0.00  0.00    +0.210 HD
ENDBRANCH   3  10
BRANCH   2  12
ATOM     12  O   LIG    1      169.931 174.908 172.542  0.00  0.00    -0.345 OA
BRANCH  12  13
ATOM     13  C   LIG    1      170.199 176.240 172.136  0.00  0.00    +0.190 C 
BRANCH  13  14
ATOM     14  C   LIG    1      169.347 177.169 172.939  0.00  0.00    +0.001 C 
ATOM     15  C   LIG    1      169.653 178.460 173.141  0.00  0.00    +0.006 C 
BRANCH  15  16
ATOM     16  C   LIG    1      168.838 179.415 173.912  0.00  0.00    -0.025 A 
ATOM     17  C   LIG    1      167.953 178.938 174.866  0.00  0.00    +0.008 A 
ATOM     18  C   LIG    1      167.182 179.843 175.595  0.00  0.00    +0.001 A 
ATOM     19  C   LIG    1      167.304 181.212 175.360  0.00  0.00    +0.000 A 
ATOM     20  C   LIG    1      168.199 181.678 174.397  0.00  0.00    +0.001 A 
ATOM     21  C   LIG    1      168.970 180.773 173.668  0.00  0.00    +0.008 A 
ENDBRANCH  15  16
ENDBRANCH  13  14
ENDBRANCH  12  13
ENDBRANCH   2  12
BRANCH  22  23
ATOM     23  C   LIG    1      170.886 174.376 167.961  0.00  0.00    +0.197 C 
BRANCH  23  24
ATOM     24  O   LIG    1      171.364 173.315 167.153  0.00  0.00    -0.346 OA
BRANCH  24  25
ATOM     25  C   LIG    1      172.658 172.883 167.561  0.00  0.00    +0.281 C 
ATOM     26  C   LIG    1      172.741 171.350 167.497  0.00  0.00    +0.201 C 
ATOM     27  C   LIG    1      172.839 170.838 166.056  0.00  0.00    +0.178 C 
ATOM     28  C   LIG    1      173.926 171.603 165.298  0.00  0.00    +0.171 C 
ATOM     29  C   LIG    1      173.710 173.106 165.423  0.00  0.00    +0.197 C 
ATOM     36  O   LIG    1      173.697 173.500 166.793  0.00  0.00    -0.346 OA
BRANCH  28  30
ATOM     30  O   LIG    1      173.926 171.214 163.932  0.00  0.00    -0.387 OA
ATOM     31  H   LIG    1      173.742 170.260 163.898  0.00  0.00    +0.210 HD
ENDBRANCH  28  30
BRANCH  27  32
ATOM     32  O   LIG    1      171.587 171.022 165.398  0.00  0.00    -0.386 OA
ATOM     33  H   LIG    1      171.363 171.966 165.454  0.00  0.00    +0.210 HD
ENDBRANCH  27  32
BRANCH  26  34
ATOM     34  O   LIG    1      173.898 170.941 168.223  0.00  0.00    -0.384 OA
ATOM     35  H   LIG    1      174.645 170.883 167.605  0.00  0.00    +0.210 HD
ENDBRANCH  26  34
ENDBRANCH  24  25
ENDBRANCH  23  24
ENDBRANCH  22  23
TORSDOF 13
ENDMDL
MODEL 6
REMARK VINA RESULT:      -7.5      2.548      4.677
REMARK  Name = 9823887
REMARK                            x       y       z     vdW  Elec       q    Type
REMARK                         _______ _______ _______ _____ _____    ______ ____
ROOT
ATOM      1  O   LIG    1      167.883 173.511 169.714  0.00  0.00    -0.341 OA
ATOM      2  C   LIG    1      168.639 173.267 170.897  0.00  0.00    +0.282 C 
ATOM      3  C   LIG    1      168.332 174.325 171.958  0.00  0.00    +0.201 C 
ATOM      4  C   LIG    1      166.830 174.425 172.224  0.00  0.00    +0.179 C 
ATOM      5  C   LIG    1      166.042 174.526 170.919  0.00  0.00    +0.177 C 
ATOM     22  C   LIG    1      166.475 173.435 169.937  0.00  0.00    +0.178 C 
ENDROOT
BRANCH   5   6
ATOM      6  O   LIG    1      164.651 174.386 171.196  0.00  0.00    -0.386 OA
ATOM      7  H   LIG    1      164.543 173.657 171.831  0.00  0.00    +0.210 HD
ENDBRANCH   5   6
BRANCH   4   8
ATOM      8  O   LIG    1      166.562 175.598 172.994  0.00  0.00    -0.386 OA
ATOM      9  H   LIG    1      165.638 175.544 173.295  0.00  0.00    +0.210 HD
ENDBRANCH   4   8
BRANCH   3  10
ATOM     10  O   LIG    1      169.004 173.959 173.162  0.00  0.00    -0.384 OA
ATOM     11  H   LIG    1      168.336 173.663 173.803  0.00  0.00    +0.210 HD
ENDBRANCH   3  10
BRANCH   2  12
ATOM     12  O   LIG    1      170.033 173.331 170.602  0.00  0.00    -0.345 OA
BRANCH  12  13
ATOM     13  C   LIG    1      170.334 174.439 169.768  0.00  0.00    +0.190 C 
BRANCH  13  14
ATOM     14  C   LIG    1      171.200 173.973 168.642  0.00  0.00    +0.001 C 
ATOM     15  C   LIG    1      171.115 172.746 168.105  0.00  0.00    +0.006 C 
BRANCH  15  16
ATOM     16  C   LIG    1      171.936 172.249 166.988  0.00  0.00    -0.025 A 
ATOM     17  C   LIG    1      171.315 171.845 165.816  0.00  0.00    +0.008 A 
ATOM     18  C   LIG    1      172.093 171.375 164.759  0.00  0.00    +0.001 A 
ATOM     19  C   LIG    1      173.480 171.314 164.886  0.00  0.00    +0.000 A 
ATOM     20  C   LIG    1      174.091 171.723 166.070  0.00  0.00    +0.001 A 
ATOM     21  C   LIG    1      173.313 172.194 167.129  0.00  0.00    +0.008 A 
ENDBRANCH  15  16
ENDBRANCH  13  14
ENDBRANCH  12  13
ENDBRANCH   2  12
BRANCH  22  23
ATOM     23  C   LIG    1      165.785 173.586 168.584  0.00  0.00    +0.197 C 
BRANCH  23  24
ATOM     24  O   LIG    1      164.505 172.987 168.662  0.00  0.00    -0.346 OA
BRANCH  24  25
ATOM     25  C   LIG    1      163.688 173.338 167.550  0.00  0.00    +0.281 C 
ATOM     26  C   LIG    1      162.723 172.187 167.225  0.00  0.00    +0.201 C 
ATOM     27  C   LIG    1      161.583 172.087 168.245  0.00  0.00    +0.178 C 
ATOM     28  C   LIG    1      160.945 173.460 168.459  0.00  0.00    +0.171 C 
ATOM     29  C   LIG    1      162.007 174.499 168.796  0.00  0.00    +0.197 C 
ATOM     36  O   LIG    1      162.988 174.568 167.764  0.00  0.00    -0.346 OA
BRANCH  28  30
ATOM     30  O   LIG    1      159.977 173.386 169.495  0.00  0.00    -0.387 OA
ATOM     31  H   LIG    1      160.354 172.847 170.212  0.00  0.00    +0.210 HD
ENDBRANCH  28  30
BRANCH  27  32
ATOM     32  O   LIG    1      162.095 171.606 169.487  0.00  0.00    -0.386 OA
ATOM     33  H   LIG    1      161.343 171.514 170.097  0.00  0.00    +0.210 HD
ENDBRANCH  27  32
BRANCH  26  34
ATOM     34  O   LIG    1      162.178 172.421 165.929  0.00  0.00    -0.384 OA
ATOM     35  H   LIG    1      161.261 172.727 166.031  0.00  0.00    +0.210 HD
ENDBRANCH  26  34
ENDBRANCH  24  25
ENDBRANCH  23  24
ENDBRANCH  22  23
TORSDOF 13
ENDMDL
MODEL 7
REMARK VINA RESULT:      -7.4      4.037      8.809
REMARK  Name = 9823887
REMARK                            x       y       z     vdW  Elec       q    Type
REMARK                         _______ _______ _______ _____ _____    ______ ____
ROOT
ATOM      1  O   LIG    1      169.286 173.871 169.335  0.00  0.00    -0.341 OA
ATOM      2  C   LIG    1      168.677 174.269 170.561  0.00  0.00    +0.282 C 
ATOM      3  C   LIG    1      169.691 174.215 171.705  0.00  0.00    +0.201 C 
ATOM      4  C   LIG    1      170.944 175.026 171.376  0.00  0.00    +0.179 C 
ATOM      5  C   LIG    1      171.475 174.684 169.985  0.00  0.00    +0.177 C 
ATOM     22  C   LIG    1      170.352 174.739 168.946  0.00  0.00    +0.178 C 
ENDROOT
BRANCH   5   6
ATOM      6  O   LIG    1      172.494 175.615 169.627  0.00  0.00    -0.386 OA
ATOM      7  H   LIG    1      172.232 176.490 169.964  0.00  0.00    +0.210 HD
ENDBRANCH   5   6
BRANCH   4   8
ATOM      8  O   LIG    1      171.968 174.725 172.326  0.00  0.00    -0.386 OA
ATOM      9  H   LIG    1      172.128 173.766 172.287  0.00  0.00    +0.210 HD
ENDBRANCH   4   8
BRANCH   3  10
ATOM     10  O   LIG    1      169.073 174.749 172.875  0.00  0.00    -0.384 OA
ATOM     11  H   LIG    1      169.176 175.716 172.856  0.00  0.00    +0.210 HD
ENDBRANCH   3  10
BRANCH   2  12
ATOM     12  O   LIG    1      167.607 173.380 170.879  0.00  0.00    -0.345 OA
BRANCH  12  13
ATOM     13  C   LIG    1      166.348 173.954 170.565  0.00  0.00    +0.190 C 
BRANCH  13  14
ATOM     14  C   LIG    1      165.655 173.080 169.570  0.00  0.00    +0.001 C 
ATOM     15  C   LIG    1      164.689 172.209 169.901  0.00  0.00    +0.006 C 
BRANCH  15  16
ATOM     16  C   LIG    1      163.969 171.339 168.955  0.00  0.00    -0.025 A 
ATOM     17  C   LIG    1      163.540 171.860 167.744  0.00  0.00    +0.008 A 
ATOM     18  C   LIG    1      162.859 171.037 166.849  0.00  0.00    +0.001 A 
ATOM     19  C   LIG    1      162.614 169.703 167.175  0.00  0.00    +0.000 A 
ATOM     20  C   LIG    1      163.051 169.192 168.397  0.00  0.00    +0.001 A 
ATOM     21  C   LIG    1      163.733 170.016 169.293  0.00  0.00    +0.008 A 
ENDBRANCH  15  16
ENDBRANCH  13  14
ENDBRANCH  12  13
ENDBRANCH   2  12
BRANCH  22  23
ATOM     23  C   LIG    1      170.833 174.289 167.569  0.00  0.00    +0.197 C 
BRANCH  23  24
ATOM     24  O   LIG    1      172.029 173.548 167.730  0.00  0.00    -0.346 OA
BRANCH  24  25
ATOM     25  C   LIG    1      171.814 172.152 167.546  0.00  0.00    +0.281 C 
ATOM     26  C   LIG    1      171.154 171.900 166.182  0.00  0.00    +0.201 C 
ATOM     27  C   LIG    1      172.141 172.072 165.023  0.00  0.00    +0.178 C 
ATOM     28  C   LIG    1      173.425 171.290 165.304  0.00  0.00    +0.171 C 
ATOM     29  C   LIG    1      173.986 171.652 166.673  0.00  0.00    +0.197 C 
ATOM     36  O   LIG    1      173.024 171.399 167.693  0.00  0.00    -0.346 OA
BRANCH  28  30
ATOM     30  O   LIG    1      174.383 171.555 164.289  0.00  0.00    -0.387 OA
ATOM     31  H   LIG    1      174.172 170.985 163.529  0.00  0.00    +0.210 HD
ENDBRANCH  28  30
BRANCH  27  32
ATOM     32  O   LIG    1      172.456 173.455 164.866  0.00  0.00    -0.386 OA
ATOM     33  H   LIG    1      173.162 173.668 165.501  0.00  0.00    +0.210 HD
ENDBRANCH  27  32
BRANCH  26  34
ATOM     34  O   LIG    1      170.648 170.567 166.177  0.00  0.00    -0.384 OA
ATOM     35  H   LIG    1      171.021 170.093 166.939  0.00  0.00    +0.210 HD
ENDBRANCH  26  34
ENDBRANCH  24  25
ENDBRANCH  23  24
ENDBRANCH  22  23
TORSDOF 13
ENDMDL
MODEL 8
REMARK VINA RESULT:      -7.4      2.538      4.493
REMARK  Name = 9823887
REMARK                            x       y       z     vdW  Elec       q    Type
REMARK                         _______ _______ _______ _____ _____    ______ ____
ROOT
ATOM      1  O   LIG    1      166.475 173.254 169.854  0.00  0.00    -0.341 OA
ATOM      2  C   LIG    1      167.647 173.573 170.600  0.00  0.00    +0.282 C 
ATOM      3  C   LIG    1      167.321 174.575 171.708  0.00  0.00    +0.201 C 
ATOM      4  C   LIG    1      166.176 174.078 172.589  0.00  0.00    +0.179 C 
ATOM      5  C   LIG    1      164.997 173.596 171.745  0.00  0.00    +0.177 C 
ATOM     22  C   LIG    1      165.468 172.631 170.654  0.00  0.00    +0.178 C 
ENDROOT
BRANCH   5   6
ATOM      6  O   LIG    1      164.054 172.933 172.585  0.00  0.00    -0.386 OA
ATOM      7  H   LIG    1      164.054 173.383 173.448  0.00  0.00    +0.210 HD
ENDBRANCH   5   6
BRANCH   4   8
ATOM      8  O   LIG    1      165.716 175.146 173.420  0.00  0.00    -0.386 OA
ATOM      9  H   LIG    1      165.149 174.756 174.107  0.00  0.00    +0.210 HD
ENDBRANCH   4   8
BRANCH   3  10
ATOM     10  O   LIG    1      168.490 174.755 172.506  0.00  0.00    -0.384 OA
ATOM     11  H   LIG    1      169.209 174.235 172.109  0.00  0.00    +0.210 HD
ENDBRANCH   3  10
BRANCH   2  12
ATOM     12  O   LIG    1      168.619 174.166 169.741  0.00  0.00    -0.345 OA
BRANCH  12  13
ATOM     13  C   LIG    1      168.199 174.134 168.386  0.00  0.00    +0.190 C 
BRANCH  13  14
ATOM     14  C   LIG    1      169.373 173.791 167.527  0.00  0.00    +0.001 C 
ATOM     15  C   LIG    1      170.486 173.207 167.998  0.00  0.00    +0.006 C 
BRANCH  15  16
ATOM     16  C   LIG    1      171.659 172.837 167.187  0.00  0.00    -0.025 A 
ATOM     17  C   LIG    1      171.792 173.355 165.909  0.00  0.00    +0.008 A 
ATOM     18  C   LIG    1      172.903 173.005 165.142  0.00  0.00    +0.001 A 
ATOM     19  C   LIG    1      173.866 172.142 165.663  0.00  0.00    +0.000 A 
ATOM     20  C   LIG    1      173.720 171.628 166.951  0.00  0.00    +0.001 A 
ATOM     21  C   LIG    1      172.608 171.978 167.718  0.00  0.00    +0.008 A 
ENDBRANCH  15  16
ENDBRANCH  13  14
ENDBRANCH  12  13
ENDBRANCH   2  12
BRANCH  22  23
ATOM     23  C   LIG    1      164.327 172.227 169.725  0.00  0.00    +0.197 C 
BRANCH  23  24
ATOM     24  O   LIG    1      163.194 173.019 170.032  0.00  0.00    -0.346 OA
BRANCH  24  25
ATOM     25  C   LIG    1      163.002 174.058 169.079  0.00  0.00    +0.281 C 
ATOM     26  C   LIG    1      162.670 173.453 167.706  0.00  0.00    +0.201 C 
ATOM     27  C   LIG    1      161.241 172.904 167.647  0.00  0.00    +0.178 C 
ATOM     28  C   LIG    1      160.255 173.946 168.179  0.00  0.00    +0.171 C 
ATOM     29  C   LIG    1      160.687 174.443 169.553  0.00  0.00    +0.197 C 
ATOM     36  O   LIG    1      162.001 174.993 169.498  0.00  0.00    -0.346 OA
BRANCH  28  30
ATOM     30  O   LIG    1      158.950 173.388 168.241  0.00  0.00    -0.387 OA
ATOM     31  H   LIG    1      158.491 173.798 168.994  0.00  0.00    +0.210 HD
ENDBRANCH  28  30
BRANCH  27  32
ATOM     32  O   LIG    1      161.150 171.722 168.440  0.00  0.00    -0.386 OA
ATOM     33  H   LIG    1      161.980 171.640 168.940  0.00  0.00    +0.210 HD
ENDBRANCH  27  32
BRANCH  26  34
ATOM     34  O   LIG    1      162.824 174.475 166.725  0.00  0.00    -0.384 OA
ATOM     35  H   LIG    1      163.731 174.436 166.378  0.00  0.00    +0.210 HD
ENDBRANCH  26  34
ENDBRANCH  24  25
ENDBRANCH  23  24
ENDBRANCH  22  23
TORSDOF 13
ENDMDL
MODEL 9
REMARK VINA RESULT:      -7.3      5.053      8.422
REMARK  Name = 9823887
REMARK                            x       y       z     vdW  Elec       q    Type
REMARK                         _______ _______ _______ _____ _____    ______ ____
ROOT
ATOM      1  O   LIG    1      169.566 174.475 169.336  0.00  0.00    -0.341 OA
ATOM      2  C   LIG    1      168.964 173.726 170.389  0.00  0.00    +0.282 C 
ATOM      3  C   LIG    1      167.453 173.956 170.414  0.00  0.00    +0.201 C 
ATOM      4  C   LIG    1      166.824 173.672 169.051  0.00  0.00    +0.179 C 
ATOM      5  C   LIG    1      167.596 174.366 167.929  0.00  0.00    +0.177 C 
ATOM     22  C   LIG    1      169.096 174.084 168.046  0.00  0.00    +0.178 C 
ENDROOT
BRANCH   5   6
ATOM      6  O   LIG    1      167.124 173.895 166.669  0.00  0.00    -0.386 OA
ATOM      7  H   LIG    1      166.572 173.110 166.831  0.00  0.00    +0.210 HD
ENDBRANCH   5   6
BRANCH   4   8
ATOM      8  O   LIG    1      165.483 174.163 169.033  0.00  0.00    -0.386 OA
ATOM      9  H   LIG    1      165.287 174.506 169.922  0.00  0.00    +0.210 HD
ENDBRANCH   4   8
BRANCH   3  10
ATOM     10  O   LIG    1      166.884 173.084 171.390  0.00  0.00    -0.384 OA
ATOM     11  H   LIG    1      165.917 173.121 171.300  0.00  0.00    +0.210 HD
ENDBRANCH   3  10
BRANCH   2  12
ATOM     12  O   LIG    1      169.494 174.146 171.645  0.00  0.00    -0.345 OA
BRANCH  12  13
ATOM     13  C   LIG    1      170.485 175.148 171.478  0.00  0.00    +0.190 C 
BRANCH  13  14
ATOM     14  C   LIG    1      170.019 176.403 172.143  0.00  0.00    +0.001 C 
ATOM     15  C   LIG    1      169.155 176.415 173.170  0.00  0.00    +0.006 C 
BRANCH  15  16
ATOM     16  C   LIG    1      168.680 177.624 173.865  0.00  0.00    -0.025 A 
ATOM     17  C   LIG    1      167.672 177.512 174.810  0.00  0.00    +0.008 A 
ATOM     18  C   LIG    1      167.223 178.657 175.467  0.00  0.00    +0.001 A 
ATOM     19  C   LIG    1      167.785 179.898 175.171  0.00  0.00    +0.000 A 
ATOM     20  C   LIG    1      168.798 179.996 174.218  0.00  0.00    +0.001 A 
ATOM     21  C   LIG    1      169.248 178.851 173.560  0.00  0.00    +0.008 A 
ENDBRANCH  15  16
ENDBRANCH  13  14
ENDBRANCH  12  13
ENDBRANCH   2  12
BRANCH  22  23
ATOM     23  C   LIG    1      169.900 174.860 167.007  0.00  0.00    +0.197 C 
BRANCH  23  24
ATOM     24  O   LIG    1      171.063 174.117 166.690  0.00  0.00    -0.346 OA
BRANCH  24  25
ATOM     25  C   LIG    1      170.810 172.716 166.686  0.00  0.00    +0.281 C 
ATOM     26  C   LIG    1      171.400 172.082 165.417  0.00  0.00    +0.201 C 
ATOM     27  C   LIG    1      172.927 171.977 165.483  0.00  0.00    +0.178 C 
ATOM     28  C   LIG    1      173.356 171.349 166.810  0.00  0.00    +0.171 C 
ATOM     29  C   LIG    1      172.721 172.087 167.982  0.00  0.00    +0.197 C 
ATOM     36  O   LIG    1      171.300 172.079 167.871  0.00  0.00    -0.346 OA
BRANCH  28  30
ATOM     30  O   LIG    1      174.772 171.371 166.920  0.00  0.00    -0.387 OA
ATOM     31  H   LIG    1      175.068 172.277 166.726  0.00  0.00    +0.210 HD
ENDBRANCH  28  30
BRANCH  27  32
ATOM     32  O   LIG    1      173.501 173.278 165.370  0.00  0.00    -0.386 OA
ATOM     33  H   LIG    1      174.240 173.328 166.001  0.00  0.00    +0.210 HD
ENDBRANCH  27  32
BRANCH  26  34
ATOM     34  O   LIG    1      170.843 170.778 165.276  0.00  0.00    -0.384 OA
ATOM     35  H   LIG    1      170.346 170.566 166.084  0.00  0.00    +0.210 HD
ENDBRANCH  26  34
ENDBRANCH  24  25
ENDBRANCH  23  24
ENDBRANCH  22  23
TORSDOF 13
ENDMDL
MODEL 10
REMARK VINA RESULT:      -7.1      2.214      3.333
REMARK  Name = 9823887
REMARK                            x       y       z     vdW  Elec       q    Type
REMARK                         _______ _______ _______ _____ _____    ______ ____
ROOT
ATOM      1  O   LIG    1      164.875 171.738 168.732  0.00  0.00    -0.341 OA
ATOM      2  C   LIG    1      165.005 173.043 168.171  0.00  0.00    +0.282 C 
ATOM      3  C   LIG    1      164.140 173.174 166.917  0.00  0.00    +0.201 C 
ATOM      4  C   LIG    1      162.688 172.793 167.199  0.00  0.00    +0.179 C 
ATOM      5  C   LIG    1      162.600 171.462 167.944  0.00  0.00    +0.177 C 
ATOM     22  C   LIG    1      163.541 171.452 169.152  0.00  0.00    +0.178 C 
ENDROOT
BRANCH   5   6
ATOM      6  O   LIG    1      161.261 171.257 168.388  0.00  0.00    -0.386 OA
ATOM      7  H   LIG    1      160.956 172.079 168.810  0.00  0.00    +0.210 HD
ENDBRANCH   5   6
BRANCH   4   8
ATOM      8  O   LIG    1      161.983 172.655 165.964  0.00  0.00    -0.386 OA
ATOM      9  H   LIG    1      162.303 171.842 165.536  0.00  0.00    +0.210 HD
ENDBRANCH   4   8
BRANCH   3  10
ATOM     10  O   LIG    1      164.198 174.530 166.475  0.00  0.00    -0.384 OA
ATOM     11  H   LIG    1      163.294 174.888 166.484  0.00  0.00    +0.210 HD
ENDBRANCH   3  10
BRANCH   2  12
ATOM     12  O   LIG    1      166.362 173.274 167.798  0.00  0.00    -0.345 OA
BRANCH  12  13
ATOM     13  C   LIG    1      167.220 173.253 168.927  0.00  0.00    +0.190 C 
BRANCH  13  14
ATOM     14  C   LIG    1      168.585 172.832 168.487  0.00  0.00    +0.001 C 
ATOM     15  C   LIG    1      169.392 173.606 167.745  0.00  0.00    +0.006 C 
BRANCH  15  16
ATOM     16  C   LIG    1      170.748 173.239 167.301  0.00  0.00    -0.025 A 
ATOM     17  C   LIG    1      171.115 173.463 165.984  0.00  0.00    +0.008 A 
ATOM     18  C   LIG    1      172.399 173.116 165.565  0.00  0.00    +0.001 A 
ATOM     19  C   LIG    1      173.298 172.548 166.467  0.00  0.00    +0.000 A 
ATOM     20  C   LIG    1      172.915 172.328 167.789  0.00  0.00    +0.001 A 
ATOM     21  C   LIG    1      171.630 172.676 168.209  0.00  0.00    +0.008 A 
ENDBRANCH  15  16
ENDBRANCH  13  14
ENDBRANCH  12  13
ENDBRANCH   2  12
BRANCH  22  23
ATOM     23  C   LIG    1      163.557 170.092 169.844  0.00  0.00    +0.197 C 
BRANCH  23  24
ATOM     24  O   LIG    1      162.862 170.204 171.073  0.00  0.00    -0.346 OA
BRANCH  24  25
ATOM     25  C   LIG    1      163.716 170.643 172.124  0.00  0.00    +0.281 C 
ATOM     26  C   LIG    1      162.878 171.257 173.257  0.00  0.00    +0.201 C 
ATOM     27  C   LIG    1      162.142 170.189 174.073  0.00  0.00    +0.178 C 
ATOM     28  C   LIG    1      163.110 169.077 174.479  0.00  0.00    +0.171 C 
ATOM     29  C   LIG    1      163.856 168.542 173.263  0.00  0.00    +0.197 C 
ATOM     36  O   LIG    1      164.561 169.592 172.605  0.00  0.00    -0.346 OA
BRANCH  28  30
ATOM     30  O   LIG    1      162.399 168.029 175.124  0.00  0.00    -0.387 OA
ATOM     31  H   LIG    1      161.748 168.439 175.719  0.00  0.00    +0.210 HD
ENDBRANCH  28  30
BRANCH  27  32
ATOM     32  O   LIG    1      161.087 169.632 173.290  0.00  0.00    -0.386 OA
ATOM     33  H   LIG    1      160.572 169.044 173.869  0.00  0.00    +0.210 HD
ENDBRANCH  27  32
BRANCH  26  34
ATOM     34  O   LIG    1      163.757 171.982 174.112  0.00  0.00    -0.384 OA
ATOM     35  H   LIG    1      164.340 171.349 174.564  0.00  0.00    +0.210 HD
ENDBRANCH  26  34
ENDBRANCH  24  25
ENDBRANCH  23  24
ENDBRANCH  22  23
TORSDOF 13
ENDMDL
