REMARK  Name = 287064
REMARK  5 active torsions:
REMARK  status: ('A' for Active; 'I' for Inactive)
REMARK    1  A    between atoms: O_1  and  C_11
REMARK    2  A    between atoms: O_1  and  C_12
REMARK    3  A    between atoms: O_2  and  C_8
REMARK    4  A    between atoms: O_3  and  C_9
REMARK    5  A    between atoms: C_5  and  C_11
REMARK                            x       y       z     vdW  Elec       q    Type
REMARK                         _______ _______ _______ _____ _____    ______ ____
ROOT
ATOM      1  C   UNL     1       0.524   0.050  -0.001  0.00  0.00    +0.000 A 
ATOM      2  C   UNL     1      -0.426   1.072  -0.001  0.00  0.00    +0.000 A 
ATOM      3  C   UNL     1       0.114  -1.283  -0.001  0.00  0.00    +0.000 A 
ATOM      4  C   UNL     1      -1.785   0.760   0.000  0.00  0.00    +0.000 A 
ATOM      5  C   UNL     1      -2.195  -0.573   0.000  0.00  0.00    +0.000 A 
ATOM      6  C   UNL     1      -1.246  -1.595  -0.000  0.00  0.00    +0.000 A 
ENDROOT
BRANCH   4   7
ATOM      7  O   UNL     1      -2.704   1.766   0.001  0.00  0.00    +0.000 OA
ATOM      8  H   UNL     1      -3.592   1.370   0.002  0.00  0.00    +0.000 HD
ENDBRANCH   4   7
BRANCH   5   9
ATOM      9  O   UNL     1      -3.520  -0.890   0.001  0.00  0.00    +0.000 OA
ATOM     10  H   UNL     1      -3.614  -1.858   0.000  0.00  0.00    +0.000 HD
ENDBRANCH   5   9
BRANCH   1  12
ATOM     11  O   UNL     1       2.373   1.530  -0.000  0.00  0.00    +0.000 OA
ATOM     12  C   UNL     1       1.942   0.375  -0.000  0.00  0.00    +0.000 C 
BRANCH  12  13
ATOM     13  O   UNL     1       2.756  -0.731   0.001  0.00  0.00    +0.000 OA
ATOM     14  C   UNL     1       4.166  -0.483   0.001  0.00  0.00    +0.000 C 
ENDBRANCH  12  13
ENDBRANCH   1  12
TORSDOF 4
