REMARK  Name = 370
REMARK  5 active torsions:
REMARK  status: ('A' for Active; 'I' for Inactive)
REMARK    1  A    between atoms: O_1  and  C_7
REMARK    2  A    between atoms: O_2  and  C_8
REMARK    3  A    between atoms: O_3  and  C_9
REMARK    4  A    between atoms: O_4  and  C_12
REMARK    5  A    between atoms: C_6  and  C_12
REMARK                            x       y       z     vdW  Elec       q    Type
REMARK                         _______ _______ _______ _____ _____    ______ ____
ROOT
ATOM      1  C   UNL     1      -1.037   0.042   0.001  0.00  0.00    +0.000 A 
ATOM      2  C   UNL     1       1.753  -0.014   0.000  0.00  0.00    +0.000 A 
ATOM      3  C   UNL     1       1.079   1.208   0.000  0.00  0.00    +0.000 A 
ATOM      4  C   UNL     1       1.031  -1.208   0.001  0.00  0.00    +0.000 A 
ATOM      5  C   UNL     1      -0.315   1.235   0.000  0.00  0.00    +0.000 A 
ATOM      6  C   UNL     1      -0.363  -1.180   0.001  0.00  0.00    +0.000 A 
ENDROOT
BRANCH   2   7
ATOM      7  O   UNL     1       3.116  -0.041  -0.001  0.00  0.00    +0.000 OA
ATOM      8  H   UNL     1       3.441   0.876  -0.001  0.00  0.00    +0.000 HD
ENDBRANCH   2   7
BRANCH   3   9
ATOM      9  O   UNL     1       1.773   2.380  -0.000  0.00  0.00    +0.000 OA
ATOM     10  H   UNL     1       1.143   3.122  -0.001  0.00  0.00    +0.000 HD
ENDBRANCH   3   9
BRANCH   4  11
ATOM     11  O   UNL     1       1.677  -2.408  -0.001  0.00  0.00    +0.000 OA
ATOM     12  H   UNL     1       2.635  -2.239  -0.001  0.00  0.00    +0.000 HD
ENDBRANCH   4  11
BRANCH   1  14
ATOM     13  O   UNL     1      -3.186   1.092  -0.000  0.00  0.00    +0.000 OA
ATOM     14  C   UNL     1      -2.491   0.071   0.000  0.00  0.00    +0.000 C 
BRANCH  14  15
ATOM     15  O   UNL     1      -3.036  -1.176  -0.001  0.00  0.00    +0.000 OA
ATOM     16  H   UNL     1      -4.017  -1.146  -0.002  0.00  0.00    +0.000 HD
ENDBRANCH  14  15
ENDBRANCH   1  14
TORSDOF 5
