REMARK VINA RESULT:      -7.2      1.469      1.661
REMARK  8 active torsions:
REMARK  status: ('A' for Active; 'I' for Inactive)
REMARK    1  A    between atoms: C_2  and  O_3 
REMARK    2  A    between atoms: C_15  and  O_16 
REMARK    3  A    between atoms: C_28  and  C_29 
REMARK    4  A    between atoms: C_33  and  C_34 
REMARK    5  A    between atoms: O_3  and  C_4 
REMARK    6  A    between atoms: C_4  and  C_6 
REMARK    7  A    between atoms: O_16  and  C_17 
REMARK    8  A    between atoms: C_17  and  C_19 
ROOT
ATOM      1  O   LIG     1     171.875 174.171 171.136  0.00  0.00    -0.315 OA
ATOM      2  C   LIG     1     173.124 174.138 170.407  0.00  0.00     0.332 C 
ATOM      3  C   LIG     1     173.042 174.828 169.014  0.00  0.00     0.244 C 
ATOM      4  C   LIG     1     171.788 174.385 168.191  0.00  0.00     0.112 C 
ATOM      5  C   LIG     1     170.500 174.397 169.076  0.00  0.00     0.188 C 
ATOM      6  O   LIG     1     170.116 175.757 169.302  0.00  0.00    -0.220 OA
ATOM      7  C   LIG     1     170.679 173.712 170.468  0.00  0.00     0.182 C 
ENDROOT
BRANCH   2   8
ATOM      8  O   LIG     1     173.728 172.840 170.283  0.00  0.00    -0.418 OA
BRANCH   8   9
ATOM      9  C   LIG     1     175.029 172.511 170.545  0.00  0.00     0.343 C 
ATOM     10  O   LIG     1     175.360 171.300 170.546  0.00  0.00    -0.245 OA
BRANCH   9  11
ATOM     11  C   LIG     1     175.980 173.525 170.843  0.00  0.00     0.082 A 
ATOM     12  C   LIG     1     176.316 173.829 172.187  0.00  0.00     0.052 A 
ATOM     13  C   LIG     1     177.350 174.736 172.494  0.00  0.00     0.238 A 
ATOM     14  C   LIG     1     178.041 175.387 171.455  0.00  0.00     0.273 A 
ATOM     15  O   LIG     1     177.696 174.983 173.786  0.00  0.00    -0.283 OA
ATOM     16  O   LIG     1     179.051 176.239 171.765  0.00  0.00    -0.280 OA
ATOM     17  C   LIG     1     177.678 175.148 170.113  0.00  0.00     0.238 A 
ATOM     18  C   LIG     1     176.665 174.216 169.813  0.00  0.00     0.052 A 
ATOM     19  O   LIG     1     178.316 175.810 169.112  0.00  0.00    -0.283 OA
ENDBRANCH   9  11
ENDBRANCH   8   9
ENDBRANCH   2   8
BRANCH   3  20
ATOM     20  O   LIG     1     173.050 176.253 169.238  0.00  0.00    -0.442 OA
BRANCH  20  21
ATOM     21  C   LIG     1     173.923 177.175 168.729  0.00  0.00     0.341 C 
ATOM     22  O   LIG     1     173.694 177.515 167.547  0.00  0.00    -0.245 OA
BRANCH  21  23
ATOM     23  C   LIG     1     174.962 177.799 169.477  0.00  0.00     0.082 A 
ATOM     24  C   LIG     1     175.977 178.544 168.824  0.00  0.00     0.052 A 
ATOM     25  C   LIG     1     177.032 179.136 169.547  0.00  0.00     0.238 A 
ATOM     26  O   LIG     1     178.004 179.816 168.885  0.00  0.00    -0.283 OA
ATOM     27  C   LIG     1     177.079 179.012 170.952  0.00  0.00     0.273 A 
ATOM     28  O   LIG     1     178.078 179.575 171.683  0.00  0.00    -0.280 OA
ATOM     29  C   LIG     1     176.074 178.287 171.620  0.00  0.00     0.238 A 
ATOM     30  O   LIG     1     176.127 178.151 172.969  0.00  0.00    -0.283 OA
ATOM     31  C   LIG     1     175.019 177.704 170.888  0.00  0.00     0.052 A 
ENDBRANCH  21  23
ENDBRANCH  20  21
ENDBRANCH   3  20
BRANCH   7  32
ATOM     32  C   LIG     1     170.534 172.165 170.501  0.00  0.00     0.214 C 
ATOM     33  O   LIG     1     169.532 171.722 169.590  0.00  0.00    -0.218 OA
ENDBRANCH   7  32
BRANCH   4  34
ATOM     34  C   LIG     1     172.002 173.052 167.408  0.00  0.00     0.189 C 
ATOM     35  O   LIG     1     173.339 172.955 166.927  0.00  0.00    -0.220 OA
ENDBRANCH   4  34
TORSDOF 8
