REMARK VINA RESULT:      -8.3      5.527     10.070
REMARK  21 active torsions:
REMARK  status: ('A' for Active; 'I' for Inactive)
REMARK    1  A    between atoms: C_2  and  O_11 
REMARK    2  A    between atoms: C_3  and  O_7 
REMARK    3  A    between atoms: C_4  and  O_42 
REMARK    4  A    between atoms: C_5  and  O_9 
REMARK    5  A    between atoms: C_6  and  C_26 
REMARK    6  A    between atoms: O_11  and  C_12 
REMARK    7  A    between atoms: C_12  and  C_14 
REMARK    8  A    between atoms: C_16  and  O_20 
REMARK    9  A    between atoms: C_17  and  O_22 
REMARK   10  A    between atoms: C_18  and  O_24 
REMARK   11  A    between atoms: C_26  and  O_27 
REMARK   12  A    between atoms: O_27  and  C_28 
REMARK   13  A    between atoms: C_28  and  C_30 
REMARK   14  A    between atoms: C_32  and  O_36 
REMARK   15  A    between atoms: C_33  and  O_38 
REMARK   16  A    between atoms: C_34  and  O_40 
REMARK   17  A    between atoms: O_42  and  C_43 
REMARK   18  A    between atoms: C_43  and  C_45 
REMARK   19  A    between atoms: C_47  and  O_51 
REMARK   20  A    between atoms: C_48  and  O_53 
REMARK   21  A    between atoms: C_49  and  O_55 
ROOT
ATOM      1  O   UNL     1     181.047 180.116 171.361  0.00  0.00    -0.330 OA
ATOM      2  C   UNL     1     181.679 180.088 172.639  0.00  0.00     0.344 C 
ATOM      3  C   UNL     1     182.826 181.097 172.692  0.00  0.00     0.226 C 
ATOM      4  C   UNL     1     182.354 182.496 172.297  0.00  0.00     0.242 C 
ATOM      5  C   UNL     1     181.544 182.462 171.001  0.00  0.00     0.190 C 
ATOM      6  C   UNL     1     180.458 181.385 171.069  0.00  0.00     0.192 C 
ENDROOT
BRANCH   6   7
ATOM      7  C   UNL     1     179.712 181.252 169.746  0.00  0.00     0.266 C 
BRANCH   7   8
ATOM      8  O   UNL     1     179.693 179.885 169.375  0.00  0.00    -0.458 OA
BRANCH   8   9
ATOM      9  C   UNL     1     178.461 179.316 169.231  0.00  0.00     0.340 C 
ATOM     10  O   UNL     1     177.405 179.919 169.118  0.00  0.00    -0.245 OA
BRANCH   9  11
ATOM     11  C   UNL     1     178.557 177.834 169.228  0.00  0.00     0.066 A 
ATOM     12  C   UNL     1     179.626 177.206 168.589  0.00  0.00     0.064 A 
ATOM     13  C   UNL     1     179.717 175.814 168.588  0.00  0.00     0.163 A 
ATOM     14  C   UNL     1     178.741 175.051 169.227  0.00  0.00     0.201 A 
ATOM     15  C   UNL     1     177.672 175.679 169.866  0.00  0.00     0.163 A 
ATOM     16  C   UNL     1     177.580 177.070 169.866  0.00  0.00     0.064 A 
BRANCH  13  17
ATOM     17  O   UNL     1     180.766 175.212 167.961  0.00  0.00    -0.503 OA
ATOM     18  H   UNL     1     181.275 174.700 168.613  0.00  0.00     0.292 HD
ENDBRANCH  13  17
BRANCH  14  19
ATOM     19  O   UNL     1     178.828 173.690 169.225  0.00  0.00    -0.501 OA
ATOM     20  H   UNL     1     178.040 173.332 168.780  0.00  0.00     0.292 HD
ENDBRANCH  14  19
BRANCH  15  21
ATOM     21  O   UNL     1     176.710 174.945 170.494  0.00  0.00    -0.503 OA
ATOM     22  H   UNL     1     175.886 174.996 169.981  0.00  0.00     0.292 HD
ENDBRANCH  15  21
ENDBRANCH   9  11
ENDBRANCH   8   9
ENDBRANCH   7   8
ENDBRANCH   6   7
BRANCH   5  23
ATOM     23  O   UNL     1     180.934 183.732 170.793  0.00  0.00    -0.385 OA
ATOM     24  H   UNL     1     181.641 184.395 170.702  0.00  0.00     0.210 HD
ENDBRANCH   5  23
BRANCH   4  25
ATOM     25  O   UNL     1     183.489 183.338 172.086  0.00  0.00    -0.452 OA
BRANCH  25  26
ATOM     26  C   UNL     1     183.515 184.488 172.808  0.00  0.00     0.340 C 
ATOM     27  O   UNL     1     182.695 185.391 172.756  0.00  0.00    -0.245 OA
BRANCH  26  28
ATOM     28  C   UNL     1     184.705 184.518 173.696  0.00  0.00     0.066 A 
ATOM     29  C   UNL     1     184.768 185.432 174.748  0.00  0.00     0.064 A 
ATOM     30  C   UNL     1     185.884 185.457 175.584  0.00  0.00     0.163 A 
ATOM     31  C   UNL     1     186.938 184.570 175.367  0.00  0.00     0.201 A 
ATOM     32  C   UNL     1     186.876 183.656 174.315  0.00  0.00     0.163 A 
ATOM     33  C   UNL     1     185.759 183.630 173.479  0.00  0.00     0.064 A 
BRANCH  30  34
ATOM     34  O   UNL     1     185.933 186.354 176.609  0.00  0.00    -0.503 OA
ATOM     35  H   UNL     1     186.179 185.889 177.427  0.00  0.00     0.292 HD
ENDBRANCH  30  34
BRANCH  31  36
ATOM     36  O   UNL     1     188.030 184.596 176.183  0.00  0.00    -0.501 OA
ATOM     37  H   UNL     1     188.020 183.795 176.735  0.00  0.00     0.292 HD
ENDBRANCH  31  36
BRANCH  32  38
ATOM     38  O   UNL     1     187.898 182.784 174.092  0.00  0.00    -0.503 OA
ATOM     39  H   UNL     1     188.004 182.213 174.873  0.00  0.00     0.292 HD
ENDBRANCH  32  38
ENDBRANCH  26  28
ENDBRANCH  25  26
ENDBRANCH   4  25
BRANCH   2  40
ATOM     40  O   UNL     1     182.223 178.790 172.879  0.00  0.00    -0.429 OA
BRANCH  40  41
ATOM     41  C   UNL     1     182.540 178.068 171.773  0.00  0.00     0.342 C 
ATOM     42  O   UNL     1     183.239 178.440 170.843  0.00  0.00    -0.245 OA
BRANCH  41  43
ATOM     43  C   UNL     1     181.911 176.723 171.831  0.00  0.00     0.066 A 
ATOM     44  C   UNL     1     180.739 176.532 172.561  0.00  0.00     0.064 A 
ATOM     45  C   UNL     1     180.151 175.268 172.617  0.00  0.00     0.163 A 
ATOM     46  C   UNL     1     180.734 174.196 171.943  0.00  0.00     0.201 A 
ATOM     47  C   UNL     1     181.908 174.388 171.212  0.00  0.00     0.163 A 
ATOM     48  C   UNL     1     182.496 175.651 171.156  0.00  0.00     0.064 A 
BRANCH  45  49
ATOM     49  O   UNL     1     179.006 175.095 173.335  0.00  0.00    -0.503 OA
ATOM     50  H   UNL     1     178.982 175.745 174.057  0.00  0.00     0.292 HD
ENDBRANCH  45  49
BRANCH  46  51
ATOM     51  O   UNL     1     180.159 172.962 171.997  0.00  0.00    -0.501 OA
ATOM     52  H   UNL     1     179.737 172.783 171.138  0.00  0.00     0.292 HD
ENDBRANCH  46  51
BRANCH  47  53
ATOM     53  O   UNL     1     182.488 173.349 170.549  0.00  0.00    -0.503 OA
ATOM     54  H   UNL     1     183.243 173.681 170.035  0.00  0.00     0.292 HD
ENDBRANCH  47  53
ENDBRANCH  41  43
ENDBRANCH  40  41
ENDBRANCH   2  40
BRANCH   3  55
ATOM     55  O   UNL     1     183.333 181.127 174.027  0.00  0.00    -0.382 OA
ATOM     56  H   UNL     1     183.842 181.949 174.138  0.00  0.00     0.210 HD
ENDBRANCH   3  55
TORSDOF 21
