MODEL 1
REMARK VINA RESULT:      -8.5      0.000      0.000
REMARK  Name = 3035727
REMARK                            x       y       z     vdW  Elec       q    Type
REMARK                         _______ _______ _______ _____ _____    ______ ____
ROOT
ATOM     12  O   LIG    1       12.452   0.643  10.469  0.00  0.00    -0.459 OA
ENDROOT
BRANCH  12  13
ATOM     13  C   LIG    1       11.158   0.271  10.711  0.00  0.00    +0.148 A 
ATOM     14  C   LIG    1       10.593  -0.744   9.942  0.00  0.00    +0.048 A 
ATOM     15  C   LIG    1        9.275  -1.143  10.167  0.00  0.00    +0.004 A 
ATOM     16  C   LIG    1        8.516  -0.528  11.163  0.00  0.00    +0.014 A 
ATOM     17  C   LIG    1        9.087   0.489  11.932  0.00  0.00    +0.049 A 
ATOM     18  C   LIG    1        8.294   1.159  12.999  0.00  0.00    +0.190 A 
ATOM     19  C   LIG    1        8.964   2.235  13.781  0.00  0.00    +0.084 A 
ATOM     20  CA  LIG    1       10.234   2.535  13.476  0.00  0.00    +0.128 A 
ATOM     25  N   LIG    1       10.967   1.922  12.495  0.00  0.00    -0.346 N 
ATOM     26  H   LIG    1       11.921   2.215  12.337  0.00  0.00    +0.166 HD
ATOM     27  O   LIG    1        7.135   0.843  13.234  0.00  0.00    -0.287 OA
ATOM     28  C   LIG    1       10.415   0.900  11.713  0.00  0.00    +0.093 A 
BRANCH  20  21
ATOM     21  C   LIG    1       10.875   3.597  14.255  0.00  0.00    +0.353 C 
ATOM     22  OXT LIG    1       10.548   4.769  14.223  0.00  0.00    -0.243 OA
BRANCH  21  23
ATOM     23  O   LIG    1       11.871   3.074  15.000  0.00  0.00    -0.476 OA
ATOM     24  H   LIG    1       12.342   2.352  14.532  0.00  0.00    +0.295 HD
ENDBRANCH  21  23
ENDBRANCH  20  21
ENDBRANCH  12  13
BRANCH  12   2
ATOM      1  O   LIG    1       13.936   1.077  12.216  0.00  0.00    -0.331 OA
ATOM      2  C   LIG    1       13.449   0.080  11.321  0.00  0.00    +0.339 C 
ATOM      3  C   LIG    1       14.580  -0.447  10.438  0.00  0.00    +0.214 C 
ATOM      4  C   LIG    1       15.761  -0.932  11.279  0.00  0.00    +0.180 C 
ATOM      5  C   LIG    1       16.151   0.102  12.334  0.00  0.00    +0.177 C 
ATOM     29  C   LIG    1       14.923   0.571  13.116  0.00  0.00    +0.179 C 
BRANCH   5   6
ATOM      6  O   LIG    1       17.091  -0.477  13.236  0.00  0.00    -0.386 OA
ATOM      7  H   LIG    1       17.227   0.147  13.969  0.00  0.00    +0.210 HD
ENDBRANCH   5   6
BRANCH   4   8
ATOM      8  O   LIG    1       16.891  -1.148  10.432  0.00  0.00    -0.386 OA
ATOM      9  H   LIG    1       17.531  -1.684  10.931  0.00  0.00    +0.210 HD
ENDBRANCH   4   8
BRANCH   3  10
ATOM     10  O   LIG    1       14.073  -1.532   9.662  0.00  0.00    -0.383 OA
ATOM     11  H   LIG    1       13.136  -1.355   9.472  0.00  0.00    +0.210 HD
ENDBRANCH   3  10
BRANCH  29  30
ATOM     30  C   LIG    1       15.269   1.688  14.095  0.00  0.00    +0.190 C 
BRANCH  30  31
ATOM     31  O   LIG    1       15.607   1.106  15.342  0.00  0.00    -0.392 OA
ATOM     32  H   LIG    1       14.803   1.096  15.889  0.00  0.00    +0.210 HD
ENDBRANCH  30  31
ENDBRANCH  29  30
ENDBRANCH  12   2
TORSDOF 9
ENDMDL
MODEL 2
REMARK VINA RESULT:      -8.1      1.396      2.688
REMARK  Name = 3035727
REMARK                            x       y       z     vdW  Elec       q    Type
REMARK                         _______ _______ _______ _____ _____    ______ ____
ROOT
ATOM     12  O   LIG    1       13.567   1.783  11.425  0.00  0.00    -0.459 OA
ENDROOT
BRANCH  12  13
ATOM     13  C   LIG    1       12.407   1.088  11.226  0.00  0.00    +0.148 A 
ATOM     14  C   LIG    1       12.398   0.043  10.304  0.00  0.00    +0.048 A 
ATOM     15  C   LIG    1       11.227  -0.683  10.080  0.00  0.00    +0.004 A 
ATOM     16  C   LIG    1       10.061  -0.368  10.777  0.00  0.00    +0.014 A 
ATOM     17  C   LIG    1       10.076   0.680  11.701  0.00  0.00    +0.049 A 
ATOM     18  C   LIG    1        8.841   1.034  12.455  0.00  0.00    +0.190 A 
ATOM     19  C   LIG    1        8.927   2.162  13.424  0.00  0.00    +0.084 A 
ATOM     20  CA  LIG    1       10.104   2.788  13.556  0.00  0.00    +0.128 A 
ATOM     25  N   LIG    1       11.242   2.467  12.864  0.00  0.00    -0.346 N 
ATOM     26  H   LIG    1       12.086   2.996  13.030  0.00  0.00    +0.166 HD
ATOM     27  O   LIG    1        7.792   0.425  12.293  0.00  0.00    -0.287 OA
ATOM     28  C   LIG    1       11.250   1.420  11.934  0.00  0.00    +0.093 A 
BRANCH  20  21
ATOM     21  C   LIG    1       10.168   3.896  14.512  0.00  0.00    +0.353 C 
ATOM     22  OXT LIG    1        9.698   3.867  15.634  0.00  0.00    -0.243 OA
BRANCH  21  23
ATOM     23  O   LIG    1       10.823   4.937  13.955  0.00  0.00    -0.476 OA
ATOM     24  H   LIG    1       11.796   4.833  14.010  0.00  0.00    +0.295 HD
ENDBRANCH  21  23
ENDBRANCH  20  21
ENDBRANCH  12  13
BRANCH  12   2
ATOM      1  O   LIG    1       15.106   0.324  10.452  0.00  0.00    -0.331 OA
ATOM      2  C   LIG    1       14.746   1.010  11.649  0.00  0.00    +0.339 C 
ATOM      3  C   LIG    1       14.451   0.015  12.771  0.00  0.00    +0.214 C 
ATOM      4  C   LIG    1       15.614  -0.956  12.973  0.00  0.00    +0.180 C 
ATOM      5  C   LIG    1       16.075  -1.552  11.643  0.00  0.00    +0.177 C 
ATOM     29  C   LIG    1       16.296  -0.452  10.602  0.00  0.00    +0.179 C 
BRANCH   5   6
ATOM      6  O   LIG    1       17.295  -2.262  11.842  0.00  0.00    -0.386 OA
ATOM      7  H   LIG    1       17.832  -2.169  11.038  0.00  0.00    +0.210 HD
ENDBRANCH   5   6
BRANCH   4   8
ATOM      8  O   LIG    1       15.197  -2.030  13.817  0.00  0.00    -0.386 OA
ATOM      9  H   LIG    1       14.235  -1.947  13.940  0.00  0.00    +0.210 HD
ENDBRANCH   4   8
BRANCH   3  10
ATOM     10  O   LIG    1       14.233   0.750  13.975  0.00  0.00    -0.383 OA
ATOM     11  H   LIG    1       13.762   0.173  14.599  0.00  0.00    +0.210 HD
ENDBRANCH   3  10
BRANCH  29  30
ATOM     30  C   LIG    1       16.644  -1.030   9.234  0.00  0.00    +0.190 C 
BRANCH  30  31
ATOM     31  O   LIG    1       15.883  -2.208   9.036  0.00  0.00    -0.392 OA
ATOM     32  H   LIG    1       15.756  -2.626   9.905  0.00  0.00    +0.210 HD
ENDBRANCH  30  31
ENDBRANCH  29  30
ENDBRANCH  12   2
TORSDOF 9
ENDMDL
MODEL 3
REMARK VINA RESULT:      -8.0      2.610      5.149
REMARK  Name = 3035727
REMARK                            x       y       z     vdW  Elec       q    Type
REMARK                         _______ _______ _______ _____ _____    ______ ____
ROOT
ATOM     12  O   LIG    1       16.243  -0.705  13.852  0.00  0.00    -0.459 OA
ENDROOT
BRANCH  12  13
ATOM     13  C   LIG    1       15.703  -0.727  12.596  0.00  0.00    +0.148 A 
ATOM     14  C   LIG    1       16.316  -1.501  11.613  0.00  0.00    +0.048 A 
ATOM     15  C   LIG    1       15.787  -1.542  10.322  0.00  0.00    +0.004 A 
ATOM     16  C   LIG    1       14.642  -0.809  10.010  0.00  0.00    +0.014 A 
ATOM     17  C   LIG    1       14.030  -0.036  11.000  0.00  0.00    +0.049 A 
ATOM     18  C   LIG    1       12.808   0.754  10.686  0.00  0.00    +0.190 A 
ATOM     19  C   LIG    1       12.207   1.557  11.789  0.00  0.00    +0.084 A 
ATOM     20  CA  LIG    1       12.802   1.521  12.988  0.00  0.00    +0.128 A 
ATOM     25  N   LIG    1       13.927   0.796  13.280  0.00  0.00    -0.346 N 
ATOM     26  H   LIG    1       14.306   0.829  14.217  0.00  0.00    +0.166 HD
ATOM     27  O   LIG    1       12.306   0.749   9.570  0.00  0.00    -0.287 OA
ATOM     28  C   LIG    1       14.556   0.013  12.304  0.00  0.00    +0.093 A 
BRANCH  20  21
ATOM     21  C   LIG    1       12.198   2.318  14.058  0.00  0.00    +0.353 C 
ATOM     22  OXT LIG    1       12.822   3.027  14.826  0.00  0.00    -0.243 OA
BRANCH  21  23
ATOM     23  O   LIG    1       10.860   2.142  14.054  0.00  0.00    -0.476 OA
ATOM     24  H   LIG    1       10.590   1.376  13.504  0.00  0.00    +0.295 HD
ENDBRANCH  21  23
ENDBRANCH  20  21
ENDBRANCH  12  13
BRANCH  12   2
ATOM      1  O   LIG    1       18.525  -0.322  14.152  0.00  0.00    -0.331 OA
ATOM      2  C   LIG    1       17.237   0.288  14.103  0.00  0.00    +0.339 C 
ATOM      3  C   LIG    1       16.909   0.956  15.438  0.00  0.00    +0.214 C 
ATOM      4  C   LIG    1       18.010   1.931  15.857  0.00  0.00    +0.180 C 
ATOM      5  C   LIG    1       19.392   1.288  15.744  0.00  0.00    +0.177 C 
ATOM     29  C   LIG    1       19.572   0.624  14.377  0.00  0.00    +0.179 C 
BRANCH   5   6
ATOM      6  O   LIG    1       20.393   2.287  15.917  0.00  0.00    -0.386 OA
ATOM      7  H   LIG    1       20.219   3.001  15.280  0.00  0.00    +0.210 HD
ENDBRANCH   5   6
BRANCH   4   8
ATOM      8  O   LIG    1       17.812   2.315  17.218  0.00  0.00    -0.386 OA
ATOM      9  H   LIG    1       16.908   2.055  17.467  0.00  0.00    +0.210 HD
ENDBRANCH   4   8
BRANCH   3  10
ATOM     10  O   LIG    1       15.679   1.665  15.293  0.00  0.00    -0.383 OA
ATOM     11  H   LIG    1       15.621   1.985  14.377  0.00  0.00    +0.210 HD
ENDBRANCH   3  10
BRANCH  29  30
ATOM     30  C   LIG    1       20.897  -0.124  14.282  0.00  0.00    +0.190 C 
BRANCH  30  31
ATOM     31  O   LIG    1       21.184  -0.695  15.547  0.00  0.00    -0.392 OA
ATOM     32  H   LIG    1       21.735  -0.061  16.037  0.00  0.00    +0.210 HD
ENDBRANCH  30  31
ENDBRANCH  29  30
ENDBRANCH  12   2
TORSDOF 9
ENDMDL
MODEL 4
REMARK VINA RESULT:      -7.9      1.585      7.129
REMARK  Name = 3035727
REMARK                            x       y       z     vdW  Elec       q    Type
REMARK                         _______ _______ _______ _____ _____    ______ ____
ROOT
ATOM     12  O   LIG    1       12.973   2.257  12.631  0.00  0.00    -0.459 OA
ENDROOT
BRANCH  12  13
ATOM     13  C   LIG    1       14.076   1.559  13.039  0.00  0.00    +0.148 A 
ATOM     14  C   LIG    1       14.653   1.870  14.269  0.00  0.00    +0.048 A 
ATOM     15  C   LIG    1       15.779   1.174  14.710  0.00  0.00    +0.004 A 
ATOM     16  C   LIG    1       16.333   0.164  13.923  0.00  0.00    +0.014 A 
ATOM     17  C   LIG    1       15.751  -0.144  12.691  0.00  0.00    +0.049 A 
ATOM     18  C   LIG    1       16.327  -1.217  11.836  0.00  0.00    +0.190 A 
ATOM     19  C   LIG    1       15.656  -1.494  10.534  0.00  0.00    +0.084 A 
ATOM     20  CA  LIG    1       14.582  -0.762  10.214  0.00  0.00    +0.128 A 
ATOM     25  N   LIG    1       14.048   0.227  10.998  0.00  0.00    -0.346 N 
ATOM     26  H   LIG    1       13.232   0.728  10.673  0.00  0.00    +0.166 HD
ATOM     27  O   LIG    1       17.313  -1.855  12.181  0.00  0.00    -0.287 OA
ATOM     28  C   LIG    1       14.615   0.552  12.236  0.00  0.00    +0.093 A 
BRANCH  20  21
ATOM     21  C   LIG    1       13.937  -1.047   8.930  0.00  0.00    +0.353 C 
ATOM     22  OXT LIG    1       13.095  -0.339   8.408  0.00  0.00    -0.243 OA
BRANCH  21  23
ATOM     23  O   LIG    1       14.420  -2.203   8.428  0.00  0.00    -0.476 OA
ATOM     24  H   LIG    1       13.821  -2.960   8.601  0.00  0.00    +0.295 HD
ENDBRANCH  21  23
ENDBRANCH  20  21
ENDBRANCH  12  13
BRANCH  12   2
ATOM      1  O   LIG    1       11.167   1.048  11.781  0.00  0.00    -0.331 OA
ATOM      2  C   LIG    1       11.703   1.684  12.940  0.00  0.00    +0.339 C 
ATOM      3  C   LIG    1       10.781   2.808  13.410  0.00  0.00    +0.214 C 
ATOM      4  C   LIG    1        9.353   2.305  13.619  0.00  0.00    +0.180 C 
ATOM      5  C   LIG    1        8.871   1.492  12.418  0.00  0.00    +0.177 C 
ATOM     29  C   LIG    1        9.903   0.431  12.030  0.00  0.00    +0.179 C 
BRANCH   5   6
ATOM      6  O   LIG    1        7.639   0.852  12.744  0.00  0.00    -0.386 OA
ATOM      7  H   LIG    1        6.975   1.129  12.090  0.00  0.00    +0.210 HD
ENDBRANCH   5   6
BRANCH   4   8
ATOM      8  O   LIG    1        8.474   3.419  13.779  0.00  0.00    -0.386 OA
ATOM      9  H   LIG    1        7.786   3.349  13.095  0.00  0.00    +0.210 HD
ENDBRANCH   4   8
BRANCH   3  10
ATOM     10  O   LIG    1       11.289   3.317  14.643  0.00  0.00    -0.383 OA
ATOM     11  H   LIG    1       12.109   2.839  14.851  0.00  0.00    +0.210 HD
ENDBRANCH   3  10
BRANCH  29  30
ATOM     30  C   LIG    1        9.498  -0.315  10.763  0.00  0.00    +0.190 C 
BRANCH  30  31
ATOM     31  O   LIG    1       10.590  -0.300   9.861  0.00  0.00    -0.392 OA
ATOM     32  H   LIG    1       10.930   0.611   9.827  0.00  0.00    +0.210 HD
ENDBRANCH  30  31
ENDBRANCH  29  30
ENDBRANCH  12   2
TORSDOF 9
ENDMDL
MODEL 5
REMARK VINA RESULT:      -7.8      2.855      5.838
REMARK  Name = 3035727
REMARK                            x       y       z     vdW  Elec       q    Type
REMARK                         _______ _______ _______ _____ _____    ______ ____
ROOT
ATOM     12  O   LIG    1       16.674  -1.345  10.789  0.00  0.00    -0.459 OA
ENDROOT
BRANCH  12  13
ATOM     13  C   LIG    1       16.415  -0.499  11.832  0.00  0.00    +0.148 A 
ATOM     14  C   LIG    1       17.428  -0.234  12.752  0.00  0.00    +0.048 A 
ATOM     15  C   LIG    1       17.191   0.624  13.826  0.00  0.00    +0.004 A 
ATOM     16  C   LIG    1       15.941   1.221  13.985  0.00  0.00    +0.014 A 
ATOM     17  C   LIG    1       14.929   0.953  13.060  0.00  0.00    +0.049 A 
ATOM     18  C   LIG    1       13.587   1.580  13.212  0.00  0.00    +0.190 A 
ATOM     19  C   LIG    1       12.555   1.250  12.190  0.00  0.00    +0.084 A 
ATOM     20  CA  LIG    1       12.895   0.413  11.202  0.00  0.00    +0.128 A 
ATOM     25  N   LIG    1       14.128  -0.167  11.058  0.00  0.00    -0.346 N 
ATOM     26  H   LIG    1       14.293  -0.788  10.278  0.00  0.00    +0.166 HD
ATOM     27  O   LIG    1       13.333   2.340  14.137  0.00  0.00    -0.287 OA
ATOM     28  C   LIG    1       15.157   0.088  11.973  0.00  0.00    +0.093 A 
BRANCH  20  21
ATOM     21  C   LIG    1       11.865   0.099  10.207  0.00  0.00    +0.353 C 
ATOM     22  OXT LIG    1       10.684  -0.050  10.460  0.00  0.00    -0.243 OA
BRANCH  21  23
ATOM     23  O   LIG    1       12.431   0.004   8.985  0.00  0.00    -0.476 OA
ATOM     24  H   LIG    1       12.592   0.884   8.584  0.00  0.00    +0.295 HD
ENDBRANCH  21  23
ENDBRANCH  20  21
ENDBRANCH  12  13
BRANCH  12   2
ATOM      1  O   LIG    1       17.284  -3.537  11.302  0.00  0.00    -0.331 OA
ATOM      2  C   LIG    1       16.206  -2.686  10.921  0.00  0.00    +0.339 C 
ATOM      3  C   LIG    1       15.630  -3.120   9.574  0.00  0.00    +0.214 C 
ATOM      4  C   LIG    1       15.241  -4.598   9.585  0.00  0.00    +0.180 C 
ATOM      5  C   LIG    1       16.368  -5.463  10.149  0.00  0.00    +0.177 C 
ATOM     29  C   LIG    1       16.876  -4.895  11.477  0.00  0.00    +0.179 C 
BRANCH   5   6
ATOM      6  O   LIG    1       15.887  -6.788  10.357  0.00  0.00    -0.386 OA
ATOM      7  H   LIG    1       15.606  -7.145   9.498  0.00  0.00    +0.210 HD
ENDBRANCH   5   6
BRANCH   4   8
ATOM      8  O   LIG    1       14.979  -5.031   8.249  0.00  0.00    -0.386 OA
ATOM      9  H   LIG    1       15.467  -4.441   7.649  0.00  0.00    +0.210 HD
ENDBRANCH   4   8
BRANCH   3  10
ATOM     10  O   LIG    1       14.473  -2.328   9.306  0.00  0.00    -0.383 OA
ATOM     11  H   LIG    1       14.671  -1.750   8.550  0.00  0.00    +0.210 HD
ENDBRANCH   3  10
BRANCH  29  30
ATOM     30  C   LIG    1       18.078  -5.674  12.001  0.00  0.00    +0.190 C 
BRANCH  30  31
ATOM     31  O   LIG    1       19.140  -4.765  12.228  0.00  0.00    -0.392 OA
ATOM     32  H   LIG    1       18.749  -3.890  12.390  0.00  0.00    +0.210 HD
ENDBRANCH  30  31
ENDBRANCH  29  30
ENDBRANCH  12   2
TORSDOF 9
ENDMDL
MODEL 6
REMARK VINA RESULT:      -7.8      1.676      6.558
REMARK  Name = 3035727
REMARK                            x       y       z     vdW  Elec       q    Type
REMARK                         _______ _______ _______ _____ _____    ______ ____
ROOT
ATOM     12  O   LIG    1       12.612   1.814  11.524  0.00  0.00    -0.459 OA
ENDROOT
BRANCH  12  13
ATOM     13  C   LIG    1       13.446   0.858  11.013  0.00  0.00    +0.148 A 
ATOM     14  C   LIG    1       13.218   0.385   9.722  0.00  0.00    +0.048 A 
ATOM     15  C   LIG    1       14.054  -0.590   9.176  0.00  0.00    +0.004 A 
ATOM     16  C   LIG    1       15.121  -1.096   9.918  0.00  0.00    +0.014 A 
ATOM     17  C   LIG    1       15.346  -0.617  11.212  0.00  0.00    +0.049 A 
ATOM     18  C   LIG    1       16.479  -1.144  12.020  0.00  0.00    +0.190 A 
ATOM     19  C   LIG    1       16.662  -0.589  13.391  0.00  0.00    +0.084 A 
ATOM     20  CA  LIG    1       15.798   0.343  13.811  0.00  0.00    +0.128 A 
ATOM     25  N   LIG    1       14.753   0.831  13.070  0.00  0.00    -0.346 N 
ATOM     26  H   LIG    1       14.151   1.537  13.471  0.00  0.00    +0.166 HD
ATOM     27  O   LIG    1       17.240  -1.998  11.583  0.00  0.00    -0.287 OA
ATOM     28  C   LIG    1       14.509   0.366  11.772  0.00  0.00    +0.093 A 
BRANCH  20  21
ATOM     21  C   LIG    1       15.992   0.875  15.162  0.00  0.00    +0.353 C 
ATOM     22  OXT LIG    1       16.366   2.006  15.411  0.00  0.00    -0.243 OA
BRANCH  21  23
ATOM     23  O   LIG    1       15.693  -0.078  16.070  0.00  0.00    -0.476 OA
ATOM     24  H   LIG    1       15.933   0.193  16.982  0.00  0.00    +0.295 HD
ENDBRANCH  21  23
ENDBRANCH  20  21
ENDBRANCH  12  13
BRANCH  12   2
ATOM      1  O   LIG    1       10.541   0.758  11.317  0.00  0.00    -0.331 OA
ATOM      2  C   LIG    1       11.463   1.348  12.231  0.00  0.00    +0.339 C 
ATOM      3  C   LIG    1       10.828   2.545  12.938  0.00  0.00    +0.214 C 
ATOM      4  C   LIG    1        9.503   2.161  13.598  0.00  0.00    +0.180 C 
ATOM      5  C   LIG    1        8.605   1.390  12.631  0.00  0.00    +0.177 C 
ATOM     29  C   LIG    1        9.376   0.248  11.967  0.00  0.00    +0.179 C 
BRANCH   5   6
ATOM      6  O   LIG    1        7.493   0.855  13.345  0.00  0.00    -0.386 OA
ATOM      7  H   LIG    1        6.696   0.992  12.806  0.00  0.00    +0.210 HD
ENDBRANCH   5   6
BRANCH   4   8
ATOM      8  O   LIG    1        8.810   3.344  13.997  0.00  0.00    -0.386 OA
ATOM      9  H   LIG    1        7.857   3.169  13.907  0.00  0.00    +0.210 HD
ENDBRANCH   4   8
BRANCH   3  10
ATOM     10  O   LIG    1       11.737   3.011  13.935  0.00  0.00    -0.383 OA
ATOM     11  H   LIG    1       12.238   3.755  13.561  0.00  0.00    +0.210 HD
ENDBRANCH   3  10
BRANCH  29  30
ATOM     30  C   LIG    1        8.535  -0.463  10.912  0.00  0.00    +0.190 C 
BRANCH  30  31
ATOM     31  O   LIG    1        9.135  -0.261   9.645  0.00  0.00    -0.392 OA
ATOM     32  H   LIG    1        9.735   0.500   9.722  0.00  0.00    +0.210 HD
ENDBRANCH  30  31
ENDBRANCH  29  30
ENDBRANCH  12   2
TORSDOF 9
ENDMDL
MODEL 7
REMARK VINA RESULT:      -7.6      1.542      3.515
REMARK  Name = 3035727
REMARK                            x       y       z     vdW  Elec       q    Type
REMARK                         _______ _______ _______ _____ _____    ______ ____
ROOT
ATOM     12  O   LIG    1       12.312   1.751  11.572  0.00  0.00    -0.459 OA
ENDROOT
BRANCH  12  13
ATOM     13  C   LIG    1       11.203   1.963  12.344  0.00  0.00    +0.148 A 
ATOM     14  C   LIG    1       11.246   2.946  13.331  0.00  0.00    +0.048 A 
ATOM     15  C   LIG    1       10.130   3.181  14.134  0.00  0.00    +0.004 A 
ATOM     16  C   LIG    1        8.965   2.436  13.953  0.00  0.00    +0.014 A 
ATOM     17  C   LIG    1        8.926   1.452  12.961  0.00  0.00    +0.049 A 
ATOM     18  C   LIG    1        7.693   0.645  12.753  0.00  0.00    +0.190 A 
ATOM     19  C   LIG    1        7.720  -0.387  11.678  0.00  0.00    +0.084 A 
ATOM     20  CA  LIG    1        8.849  -0.526  10.971  0.00  0.00    +0.128 A 
ATOM     25  N   LIG    1        9.986   0.214  11.160  0.00  0.00    -0.346 N 
ATOM     26  H   LIG    1       10.792   0.038  10.575  0.00  0.00    +0.166 HD
ATOM     27  O   LIG    1        6.688   0.817  13.431  0.00  0.00    -0.287 OA
ATOM     28  C   LIG    1       10.047   1.205  12.147  0.00  0.00    +0.093 A 
BRANCH  20  21
ATOM     21  C   LIG    1        8.857  -1.547   9.920  0.00  0.00    +0.353 C 
ATOM     22  OXT LIG    1        8.365  -2.655  10.031  0.00  0.00    -0.243 OA
BRANCH  21  23
ATOM     23  O   LIG    1        9.489  -1.068   8.828  0.00  0.00    -0.476 OA
ATOM     24  H   LIG    1       10.276  -0.532   9.062  0.00  0.00    +0.295 HD
ENDBRANCH  21  23
ENDBRANCH  20  21
ENDBRANCH  12  13
BRANCH  12   2
ATOM      1  O   LIG    1       14.283   1.631  12.815  0.00  0.00    -0.331 OA
ATOM      2  C   LIG    1       13.305   0.875  12.104  0.00  0.00    +0.339 C 
ATOM      3  C   LIG    1       13.948   0.128  10.937  0.00  0.00    +0.214 C 
ATOM      4  C   LIG    1       15.128  -0.724  11.405  0.00  0.00    +0.180 C 
ATOM      5  C   LIG    1       16.073   0.081  12.296  0.00  0.00    +0.177 C 
ATOM     29  C   LIG    1       15.295   0.808  13.396  0.00  0.00    +0.179 C 
BRANCH   5   6
ATOM      6  O   LIG    1       17.022  -0.798  12.894  0.00  0.00    -0.386 OA
ATOM      7  H   LIG    1       17.809  -0.278  13.128  0.00  0.00    +0.210 HD
ENDBRANCH   5   6
BRANCH   4   8
ATOM      8  O   LIG    1       15.869  -1.175  10.270  0.00  0.00    -0.386 OA
ATOM      9  H   LIG    1       16.160  -2.085  10.454  0.00  0.00    +0.210 HD
ENDBRANCH   4   8
BRANCH   3  10
ATOM     10  O   LIG    1       12.959  -0.716  10.347  0.00  0.00    -0.383 OA
ATOM     11  H   LIG    1       13.129  -1.628  10.636  0.00  0.00    +0.210 HD
ENDBRANCH   3  10
BRANCH  29  30
ATOM     30  C   LIG    1       16.202   1.710  14.227  0.00  0.00    +0.190 C 
BRANCH  30  31
ATOM     31  O   LIG    1       15.910   1.504  15.597  0.00  0.00    -0.392 OA
ATOM     32  H   LIG    1       15.480   2.310  15.930  0.00  0.00    +0.210 HD
ENDBRANCH  30  31
ENDBRANCH  29  30
ENDBRANCH  12   2
TORSDOF 9
ENDMDL
MODEL 8
REMARK VINA RESULT:      -7.5      2.420      4.169
REMARK  Name = 3035727
REMARK                            x       y       z     vdW  Elec       q    Type
REMARK                         _______ _______ _______ _____ _____    ______ ____
ROOT
ATOM     12  O   LIG    1       16.621   1.523  11.690  0.00  0.00    -0.459 OA
ENDROOT
BRANCH  12  13
ATOM     13  C   LIG    1       15.711   0.935  10.855  0.00  0.00    +0.148 A 
ATOM     14  C   LIG    1       16.164   0.325   9.688  0.00  0.00    +0.048 A 
ATOM     15  C   LIG    1       15.258  -0.282   8.818  0.00  0.00    +0.004 A 
ATOM     16  C   LIG    1       13.894  -0.282   9.112  0.00  0.00    +0.014 A 
ATOM     17  C   LIG    1       13.445   0.330  10.285  0.00  0.00    +0.049 A 
ATOM     18  C   LIG    1       11.994   0.342  10.617  0.00  0.00    +0.190 A 
ATOM     19  C   LIG    1       11.584   1.013  11.882  0.00  0.00    +0.084 A 
ATOM     20  CA  LIG    1       12.542   1.563  12.640  0.00  0.00    +0.128 A 
ATOM     25  N   LIG    1       13.878   1.555  12.338  0.00  0.00    -0.346 N 
ATOM     26  H   LIG    1       14.530   1.996  12.972  0.00  0.00    +0.166 HD
ATOM     27  O   LIG    1       11.162  -0.178   9.885  0.00  0.00    -0.287 OA
ATOM     28  C   LIG    1       14.350   0.946  11.169  0.00  0.00    +0.093 A 
BRANCH  20  21
ATOM     21  C   LIG    1       12.119   2.220  13.879  0.00  0.00    +0.353 C 
ATOM     22  OXT LIG    1       10.960   2.365  14.223  0.00  0.00    -0.243 OA
BRANCH  21  23
ATOM     23  O   LIG    1       13.205   2.630  14.567  0.00  0.00    -0.476 OA
ATOM     24  H   LIG    1       13.111   3.550  14.892  0.00  0.00    +0.295 HD
ENDBRANCH  21  23
ENDBRANCH  20  21
ENDBRANCH  12  13
BRANCH  12   2
ATOM      1  O   LIG    1       16.691   1.121  13.987  0.00  0.00    -0.331 OA
ATOM      2  C   LIG    1       17.175   0.699  12.715  0.00  0.00    +0.339 C 
ATOM      3  C   LIG    1       18.697   0.826  12.650  0.00  0.00    +0.214 C 
ATOM      4  C   LIG    1       19.366   0.091  13.811  0.00  0.00    +0.180 C 
ATOM      5  C   LIG    1       18.712   0.452  15.145  0.00  0.00    +0.177 C 
ATOM     29  C   LIG    1       17.190   0.318  15.058  0.00  0.00    +0.179 C 
BRANCH   5   6
ATOM      6  O   LIG    1       19.204  -0.418  16.162  0.00  0.00    -0.386 OA
ATOM      7  H   LIG    1       18.441  -0.773  16.649  0.00  0.00    +0.210 HD
ENDBRANCH   5   6
BRANCH   4   8
ATOM      8  O   LIG    1       20.743   0.463  13.880  0.00  0.00    -0.386 OA
ATOM      9  H   LIG    1       20.994   0.484  14.820  0.00  0.00    +0.210 HD
ENDBRANCH   4   8
BRANCH   3  10
ATOM     10  O   LIG    1       19.141   0.265  11.415  0.00  0.00    -0.383 OA
ATOM     11  H   LIG    1       19.090  -0.703  11.488  0.00  0.00    +0.210 HD
ENDBRANCH   3  10
BRANCH  29  30
ATOM     30  C   LIG    1       16.508   0.784  16.340  0.00  0.00    +0.190 C 
BRANCH  30  31
ATOM     31  O   LIG    1       17.284   1.822  16.913  0.00  0.00    -0.392 OA
ATOM     32  H   LIG    1       16.999   1.927  17.836  0.00  0.00    +0.210 HD
ENDBRANCH  30  31
ENDBRANCH  29  30
ENDBRANCH  12   2
TORSDOF 9
ENDMDL
MODEL 9
REMARK VINA RESULT:      -7.4      4.620      7.180
REMARK  Name = 3035727
REMARK                            x       y       z     vdW  Elec       q    Type
REMARK                         _______ _______ _______ _____ _____    ______ ____
ROOT
ATOM     12  O   LIG    1       15.918  -0.571  13.347  0.00  0.00    -0.459 OA
ENDROOT
BRANCH  12  13
ATOM     13  C   LIG    1       15.554  -0.527  12.029  0.00  0.00    +0.148 A 
ATOM     14  C   LIG    1       15.180   0.696  11.474  0.00  0.00    +0.048 A 
ATOM     15  C   LIG    1       14.804   0.769  10.133  0.00  0.00    +0.004 A 
ATOM     16  C   LIG    1       14.800  -0.379   9.340  0.00  0.00    +0.014 A 
ATOM     17  C   LIG    1       15.177  -1.602   9.901  0.00  0.00    +0.049 A 
ATOM     18  C   LIG    1       15.178  -2.838   9.073  0.00  0.00    +0.190 A 
ATOM     19  C   LIG    1       15.591  -4.108   9.735  0.00  0.00    +0.084 A 
ATOM     20  CA  LIG    1       15.931  -4.059  11.029  0.00  0.00    +0.128 A 
ATOM     25  N   LIG    1       15.930  -2.924  11.795  0.00  0.00    -0.346 N 
ATOM     26  H   LIG    1       16.204  -2.984  12.766  0.00  0.00    +0.166 HD
ATOM     27  O   LIG    1       14.857  -2.823   7.892  0.00  0.00    -0.287 OA
ATOM     28  C   LIG    1       15.557  -1.688  11.254  0.00  0.00    +0.093 A 
BRANCH  20  21
ATOM     21  C   LIG    1       16.331  -5.318  11.663  0.00  0.00    +0.353 C 
ATOM     22  OXT LIG    1       17.187  -5.416  12.523  0.00  0.00    -0.243 OA
BRANCH  21  23
ATOM     23  O   LIG    1       15.609  -6.335  11.146  0.00  0.00    -0.476 OA
ATOM     24  H   LIG    1       15.992  -7.210  11.368  0.00  0.00    +0.295 HD
ENDBRANCH  21  23
ENDBRANCH  20  21
ENDBRANCH  12  13
BRANCH  12   2
ATOM      1  O   LIG    1       18.193  -0.394  13.835  0.00  0.00    -0.331 OA
ATOM      2  C   LIG    1       16.959   0.316  13.753  0.00  0.00    +0.339 C 
ATOM      3  C   LIG    1       16.581   0.894  15.116  0.00  0.00    +0.214 C 
ATOM      4  C   LIG    1       17.714   1.741  15.695  0.00  0.00    +0.180 C 
ATOM      5  C   LIG    1       19.051   1.004  15.620  0.00  0.00    +0.177 C 
ATOM     29  C   LIG    1       19.285   0.445  14.215  0.00  0.00    +0.179 C 
BRANCH   5   6
ATOM      6  O   LIG    1       20.106   1.904  15.950  0.00  0.00    -0.386 OA
ATOM      7  H   LIG    1       19.734   2.801  15.989  0.00  0.00    +0.210 HD
ENDBRANCH   5   6
BRANCH   4   8
ATOM      8  O   LIG    1       17.443   2.025  17.068  0.00  0.00    -0.386 OA
ATOM      9  H   LIG    1       17.778   1.277  17.593  0.00  0.00    +0.210 HD
ENDBRANCH   4   8
BRANCH   3  10
ATOM     10  O   LIG    1       15.419   1.706  14.951  0.00  0.00    -0.383 OA
ATOM     11  H   LIG    1       15.181   2.073  15.819  0.00  0.00    +0.210 HD
ENDBRANCH   3  10
BRANCH  29  30
ATOM     30  C   LIG    1       20.556  -0.395  14.145  0.00  0.00    +0.190 C 
BRANCH  30  31
ATOM     31  O   LIG    1       20.769  -0.997  15.409  0.00  0.00    -0.392 OA
ATOM     32  H   LIG    1       19.918  -1.002  15.879  0.00  0.00    +0.210 HD
ENDBRANCH  30  31
ENDBRANCH  29  30
ENDBRANCH  12   2
TORSDOF 9
ENDMDL
