MODEL 1
REMARK VINA RESULT:      -7.3      0.000      0.000
REMARK  13 active torsions:
REMARK  status: ('A' for Active; 'I' for Inactive)
REMARK    1  A    between atoms: O_1  and  C_19 
REMARK    2  A    between atoms: O_2  and  C_23 
REMARK    3  A    between atoms: O_3  and  C_27 
REMARK    4  A    between atoms: O_4  and  C_30 
REMARK    5  A    between atoms: N_5  and  C_12 
REMARK    6  A    between atoms: N_5  and  C_18 
REMARK    7  A    between atoms: C_7  and  C_8 
REMARK    8  A    between atoms: C_7  and  C_9 
REMARK    9  A    between atoms: C_7  and  C_11 
REMARK   10  A    between atoms: C_9  and  C_10 
REMARK   11  A    between atoms: C_10  and  C_12 
REMARK   12  A    between atoms: C_18  and  C_22 
REMARK   13  A    between atoms: C_22  and  C_24 
ROOT
HETATM    1  O   UNK     0     179.621 188.581 157.800  0.00  0.00    -0.353 OA
HETATM    2  C   UNK     0     178.317 189.018 157.424  0.00  0.00     0.210 C 
ENDROOT
BRANCH   1   3
HETATM    3  C   UNK     0     179.749 187.990 159.020  0.00  0.00     0.102 A 
HETATM    4  C   UNK     0     178.603 187.646 159.738  0.00  0.00     0.048 A 
HETATM    5  C   UNK     0     178.720 187.040 160.990  0.00  0.00    -0.032 A 
HETATM    6  C   UNK     0     179.983 186.778 161.523  0.00  0.00     0.012 A 
HETATM    7  C   UNK     0     181.127 187.123 160.804  0.00  0.00     0.040 A 
HETATM    8  C   UNK     0     181.011 187.728 159.553  0.00  0.00     0.101 A 
BRANCH   5   9
HETATM    9  C   UNK     0     177.450 186.658 161.786  0.00  0.00     0.079 C 
HETATM   10  C   UNK     0     176.244 187.431 161.367  0.00  0.00     0.074 C 
HETATM   11  N   UNK     0     175.296 188.021 161.051  0.00  0.00    -0.196 NA
BRANCH   9  12
HETATM   12  C   UNK     0     177.707 186.928 163.330  0.00  0.00     0.004 C 
HETATM   13  C   UNK     0     177.114 185.861 164.265  0.00  0.00     0.011 C 
HETATM   14  C   UNK     0     177.212 188.312 163.794  0.00  0.00     0.011 C 
ENDBRANCH   9  12
BRANCH   9  15
HETATM   15  C   UNK     0     177.121 185.139 161.555  0.00  0.00     0.032 C 
BRANCH  15  16
HETATM   16  C   UNK     0     175.905 184.862 160.647  0.00  0.00     0.032 C 
BRANCH  16  17
HETATM   17  C   UNK     0     176.308 184.465 159.223  0.00  0.00     0.272 C 
BRANCH  17  18
HETATM   18  N   UNK     0     175.335 184.914 158.236  0.00  0.00     0.084 N 
HETATM   19  C   UNK     0     175.986 185.714 157.197  0.00  0.00     0.309 C 
BRANCH  18  20
HETATM   20  C   UNK     0     174.644 183.771 157.636  0.00  0.00     0.276 C 
BRANCH  20  21
HETATM   21  C   UNK     0     175.526 182.523 157.659  0.00  0.00     0.068 C 
BRANCH  21  22
HETATM   22  C   UNK     0     176.026 182.171 156.280  0.00  0.00    -0.054 A 
HETATM   23  C   UNK     0     177.231 181.486 156.129  0.00  0.00     0.046 A 
HETATM   24  C   UNK     0     177.692 181.159 154.853  0.00  0.00     0.102 A 
HETATM   25  C   UNK     0     176.948 181.518 153.729  0.00  0.00     0.101 A 
HETATM   26  C   UNK     0     175.743 182.203 153.881  0.00  0.00     0.040 A 
HETATM   27  C   UNK     0     175.281 182.529 155.156  0.00  0.00     0.010 A 
BRANCH  24  28
HETATM   28  O   UNK     0     178.871 180.490 154.718  0.00  0.00    -0.353 OA
HETATM   29  C   UNK     0     179.701 180.399 155.875  0.00  0.00     0.210 C 
ENDBRANCH  24  28
BRANCH  25  30
HETATM   30  O   UNK     0     177.387 181.205 152.479  0.00  0.00    -0.353 OA
HETATM   31  C   UNK     0     176.715 180.146 151.802  0.00  0.00     0.210 C 
ENDBRANCH  25  30
ENDBRANCH  21  22
ENDBRANCH  20  21
ENDBRANCH  18  20
ENDBRANCH  17  18
ENDBRANCH  16  17
ENDBRANCH  15  16
ENDBRANCH   9  15
ENDBRANCH   5   9
BRANCH   8  32
HETATM   32  O   UNK     0     182.137 188.060 158.862  0.00  0.00    -0.353 OA
HETATM   33  C   UNK     0     183.375 187.980 159.564  0.00  0.00     0.210 C 
ENDBRANCH   8  32
ENDBRANCH   1   3
TORSDOF 13
ENDMDL
MODEL 2
REMARK VINA RESULT:      -7.0     15.374     17.651
REMARK  13 active torsions:
REMARK  status: ('A' for Active; 'I' for Inactive)
REMARK    1  A    between atoms: O_1  and  C_19 
REMARK    2  A    between atoms: O_2  and  C_23 
REMARK    3  A    between atoms: O_3  and  C_27 
REMARK    4  A    between atoms: O_4  and  C_30 
REMARK    5  A    between atoms: N_5  and  C_12 
REMARK    6  A    between atoms: N_5  and  C_18 
REMARK    7  A    between atoms: C_7  and  C_8 
REMARK    8  A    between atoms: C_7  and  C_9 
REMARK    9  A    between atoms: C_7  and  C_11 
REMARK   10  A    between atoms: C_9  and  C_10 
REMARK   11  A    between atoms: C_10  and  C_12 
REMARK   12  A    between atoms: C_18  and  C_22 
REMARK   13  A    between atoms: C_22  and  C_24 
ROOT
HETATM    1  O   UNK     0     162.692 184.848 168.060  0.00  0.00    -0.353 OA
HETATM    2  C   UNK     0     162.032 183.698 167.535  0.00  0.00     0.210 C 
ENDROOT
BRANCH   1   3
HETATM    3  C   UNK     0     163.373 185.628 167.177  0.00  0.00     0.102 A 
HETATM    4  C   UNK     0     162.843 185.848 165.905  0.00  0.00     0.048 A 
HETATM    5  C   UNK     0     163.533 186.646 164.991  0.00  0.00    -0.032 A 
HETATM    6  C   UNK     0     164.752 187.223 165.348  0.00  0.00     0.012 A 
HETATM    7  C   UNK     0     165.280 187.003 166.620  0.00  0.00     0.040 A 
HETATM    8  C   UNK     0     164.592 186.206 167.534  0.00  0.00     0.101 A 
BRANCH   5   9
HETATM    9  C   UNK     0     162.945 186.890 163.580  0.00  0.00     0.079 C 
HETATM   10  C   UNK     0     162.612 188.321 163.326  0.00  0.00     0.074 C 
HETATM   11  N   UNK     0     162.351 189.431 163.111  0.00  0.00    -0.196 NA
BRANCH   9  12
HETATM   12  C   UNK     0     161.620 186.030 163.417  0.00  0.00     0.004 C 
HETATM   13  C   UNK     0     161.855 184.592 162.924  0.00  0.00     0.011 C 
HETATM   14  C   UNK     0     160.575 186.694 162.499  0.00  0.00     0.011 C 
ENDBRANCH   9  12
BRANCH   9  15
HETATM   15  C   UNK     0     163.996 186.464 162.492  0.00  0.00     0.032 C 
BRANCH  15  16
HETATM   16  C   UNK     0     163.708 186.979 161.066  0.00  0.00     0.032 C 
BRANCH  16  17
HETATM   17  C   UNK     0     163.837 185.882 160.004  0.00  0.00     0.272 C 
BRANCH  17  18
HETATM   18  N   UNK     0     162.967 186.125 158.860  0.00  0.00     0.084 N 
HETATM   19  C   UNK     0     162.126 184.957 158.594  0.00  0.00     0.309 C 
BRANCH  18  20
HETATM   20  C   UNK     0     162.135 187.308 159.087  0.00  0.00     0.276 C 
BRANCH  20  21
HETATM   21  C   UNK     0     161.495 187.787 157.784  0.00  0.00     0.068 C 
BRANCH  21  22
HETATM   22  C   UNK     0     159.998 187.593 157.798  0.00  0.00    -0.054 A 
HETATM   23  C   UNK     0     159.287 187.740 158.988  0.00  0.00     0.046 A 
HETATM   24  C   UNK     0     157.903 187.563 159.000  0.00  0.00     0.102 A 
HETATM   25  C   UNK     0     157.231 187.238 157.822  0.00  0.00     0.101 A 
HETATM   26  C   UNK     0     157.943 187.091 156.631  0.00  0.00     0.040 A 
HETATM   27  C   UNK     0     159.327 187.269 156.619  0.00  0.00     0.010 A 
BRANCH  24  28
HETATM   28  O   UNK     0     157.219 187.709 160.169  0.00  0.00    -0.353 OA
HETATM   29  C   UNK     0     157.192 189.014 160.746  0.00  0.00     0.210 C 
ENDBRANCH  24  28
BRANCH  25  30
HETATM   30  O   UNK     0     155.881 187.063 157.820  0.00  0.00    -0.353 OA
HETATM   31  C   UNK     0     155.402 185.720 157.776  0.00  0.00     0.210 C 
ENDBRANCH  25  30
ENDBRANCH  21  22
ENDBRANCH  20  21
ENDBRANCH  18  20
ENDBRANCH  17  18
ENDBRANCH  16  17
ENDBRANCH  15  16
ENDBRANCH   9  15
ENDBRANCH   5   9
BRANCH   8  32
HETATM   32  O   UNK     0     165.120 185.998 168.773  0.00  0.00    -0.353 OA
HETATM   33  C   UNK     0     166.375 185.324 168.837  0.00  0.00     0.210 C 
ENDBRANCH   8  32
ENDBRANCH   1   3
TORSDOF 13
ENDMDL
MODEL 3
REMARK VINA RESULT:      -6.8      8.335     13.054
REMARK  13 active torsions:
REMARK  status: ('A' for Active; 'I' for Inactive)
REMARK    1  A    between atoms: O_1  and  C_19 
REMARK    2  A    between atoms: O_2  and  C_23 
REMARK    3  A    between atoms: O_3  and  C_27 
REMARK    4  A    between atoms: O_4  and  C_30 
REMARK    5  A    between atoms: N_5  and  C_12 
REMARK    6  A    between atoms: N_5  and  C_18 
REMARK    7  A    between atoms: C_7  and  C_8 
REMARK    8  A    between atoms: C_7  and  C_9 
REMARK    9  A    between atoms: C_7  and  C_11 
REMARK   10  A    between atoms: C_9  and  C_10 
REMARK   11  A    between atoms: C_10  and  C_12 
REMARK   12  A    between atoms: C_18  and  C_22 
REMARK   13  A    between atoms: C_22  and  C_24 
ROOT
HETATM    1  O   UNK     0     192.334 181.676 164.799  0.00  0.00    -0.353 OA
HETATM    2  C   UNK     0     191.463 182.052 165.864  0.00  0.00     0.210 C 
ENDROOT
BRANCH   1   3
HETATM    3  C   UNK     0     192.369 182.491 163.709  0.00  0.00     0.102 A 
HETATM    4  C   UNK     0     191.287 183.334 163.450  0.00  0.00     0.048 A 
HETATM    5  C   UNK     0     191.310 184.175 162.336  0.00  0.00    -0.032 A 
HETATM    6  C   UNK     0     192.414 184.173 161.482  0.00  0.00     0.012 A 
HETATM    7  C   UNK     0     193.494 183.330 161.743  0.00  0.00     0.040 A 
HETATM    8  C   UNK     0     193.472 182.489 162.856  0.00  0.00     0.101 A 
BRANCH   5   9
HETATM    9  C   UNK     0     190.111 185.109 162.048  0.00  0.00     0.079 C 
HETATM   10  C   UNK     0     189.125 185.157 163.167  0.00  0.00     0.074 C 
HETATM   11  N   UNK     0     188.352 185.207 164.030  0.00  0.00    -0.196 NA
BRANCH   9  12
HETATM   12  C   UNK     0     189.363 184.601 160.742  0.00  0.00     0.004 C 
HETATM   13  C   UNK     0     189.896 185.206 159.432  0.00  0.00     0.011 C 
HETATM   14  C   UNK     0     187.838 184.820 160.793  0.00  0.00     0.011 C 
ENDBRANCH   9  12
BRANCH   9  15
HETATM   15  C   UNK     0     190.629 186.577 161.832  0.00  0.00     0.032 C 
BRANCH  15  16
HETATM   16  C   UNK     0     189.583 187.684 162.084  0.00  0.00     0.032 C 
BRANCH  16  17
HETATM   17  C   UNK     0     189.457 188.657 160.907  0.00  0.00     0.272 C 
BRANCH  17  18
HETATM   18  N   UNK     0     188.217 189.421 160.962  0.00  0.00     0.084 N 
HETATM   19  C   UNK     0     188.334 190.653 160.179  0.00  0.00     0.309 C 
BRANCH  18  20
HETATM   20  C   UNK     0     187.094 188.617 160.476  0.00  0.00     0.276 C 
BRANCH  20  21
HETATM   21  C   UNK     0     185.867 189.491 160.213  0.00  0.00     0.068 C 
BRANCH  21  22
HETATM   22  C   UNK     0     184.609 188.857 160.753  0.00  0.00    -0.054 A 
HETATM   23  C   UNK     0     184.684 187.672 161.484  0.00  0.00     0.046 A 
HETATM   24  C   UNK     0     183.520 187.087 161.985  0.00  0.00     0.102 A 
HETATM   25  C   UNK     0     182.282 187.686 161.753  0.00  0.00     0.101 A 
HETATM   26  C   UNK     0     182.208 188.872 161.021  0.00  0.00     0.040 A 
HETATM   27  C   UNK     0     183.371 189.457 160.521  0.00  0.00     0.010 A 
BRANCH  24  28
HETATM   28  O   UNK     0     183.605 185.929 162.698  0.00  0.00    -0.353 OA
HETATM   29  C   UNK     0     183.723 184.717 161.955  0.00  0.00     0.210 C 
ENDBRANCH  24  28
BRANCH  25  30
HETATM   30  O   UNK     0     181.139 187.125 162.235  0.00  0.00    -0.353 OA
HETATM   31  C   UNK     0     180.250 186.546 161.284  0.00  0.00     0.210 C 
ENDBRANCH  25  30
ENDBRANCH  21  22
ENDBRANCH  20  21
ENDBRANCH  18  20
ENDBRANCH  17  18
ENDBRANCH  16  17
ENDBRANCH  15  16
ENDBRANCH   9  15
ENDBRANCH   5   9
BRANCH   8  32
HETATM   32  O   UNK     0     194.534 181.671 163.098  0.00  0.00    -0.353 OA
HETATM   33  C   UNK     0     195.760 182.294 163.472  0.00  0.00     0.210 C 
ENDBRANCH   8  32
ENDBRANCH   1   3
TORSDOF 13
ENDMDL
MODEL 4
REMARK VINA RESULT:      -6.8     38.421     42.389
REMARK  13 active torsions:
REMARK  status: ('A' for Active; 'I' for Inactive)
REMARK    1  A    between atoms: O_1  and  C_19 
REMARK    2  A    between atoms: O_2  and  C_23 
REMARK    3  A    between atoms: O_3  and  C_27 
REMARK    4  A    between atoms: O_4  and  C_30 
REMARK    5  A    between atoms: N_5  and  C_12 
REMARK    6  A    between atoms: N_5  and  C_18 
REMARK    7  A    between atoms: C_7  and  C_8 
REMARK    8  A    between atoms: C_7  and  C_9 
REMARK    9  A    between atoms: C_7  and  C_11 
REMARK   10  A    between atoms: C_9  and  C_10 
REMARK   11  A    between atoms: C_10  and  C_12 
REMARK   12  A    between atoms: C_18  and  C_22 
REMARK   13  A    between atoms: C_22  and  C_24 
ROOT
HETATM    1  O   UNK     0     147.942 193.761 181.149  0.00  0.00    -0.353 OA
HETATM    2  C   UNK     0     146.756 193.153 180.638  0.00  0.00     0.210 C 
ENDROOT
BRANCH   1   3
HETATM    3  C   UNK     0     147.906 195.104 181.364  0.00  0.00     0.102 A 
HETATM    4  C   UNK     0     146.674 195.756 181.426  0.00  0.00     0.048 A 
HETATM    5  C   UNK     0     146.624 197.133 181.646  0.00  0.00    -0.032 A 
HETATM    6  C   UNK     0     147.805 197.858 181.804  0.00  0.00     0.012 A 
HETATM    7  C   UNK     0     149.036 197.206 181.741  0.00  0.00     0.040 A 
HETATM    8  C   UNK     0     149.088 195.829 181.522  0.00  0.00     0.101 A 
BRANCH   5   9
HETATM    9  C   UNK     0     145.258 197.856 181.715  0.00  0.00     0.079 C 
HETATM   10  C   UNK     0     144.154 196.974 182.195  0.00  0.00     0.074 C 
HETATM   11  N   UNK     0     143.286 196.302 182.570  0.00  0.00    -0.196 NA
BRANCH   9  12
HETATM   12  C   UNK     0     144.881 198.388 180.267  0.00  0.00     0.004 C 
HETATM   13  C   UNK     0     144.099 199.712 180.263  0.00  0.00     0.011 C 
HETATM   14  C   UNK     0     144.098 197.359 179.427  0.00  0.00     0.011 C 
ENDBRANCH   9  12
BRANCH   9  15
HETATM   15  C   UNK     0     145.350 199.060 182.720  0.00  0.00     0.032 C 
BRANCH  15  16
HETATM   16  C   UNK     0     144.121 199.246 183.635  0.00  0.00     0.032 C 
BRANCH  16  17
HETATM   17  C   UNK     0     144.257 200.450 184.572  0.00  0.00     0.272 C 
BRANCH  17  18
HETATM   18  N   UNK     0     144.104 200.072 185.971  0.00  0.00     0.084 N 
HETATM   19  C   UNK     0     142.973 199.157 186.138  0.00  0.00     0.309 C 
BRANCH  18  20
HETATM   20  C   UNK     0     145.333 199.457 186.477  0.00  0.00     0.276 C 
BRANCH  20  21
HETATM   21  C   UNK     0     145.053 198.070 187.056  0.00  0.00     0.068 C 
BRANCH  21  22
HETATM   22  C   UNK     0     146.156 197.096 186.721  0.00  0.00    -0.054 A 
HETATM   23  C   UNK     0     146.770 196.363 187.736  0.00  0.00     0.046 A 
HETATM   24  C   UNK     0     147.789 195.461 187.427  0.00  0.00     0.102 A 
HETATM   25  C   UNK     0     148.194 195.294 186.103  0.00  0.00     0.101 A 
HETATM   26  C   UNK     0     147.579 196.028 185.088  0.00  0.00     0.040 A 
HETATM   27  C   UNK     0     146.560 196.928 185.397  0.00  0.00     0.010 A 
BRANCH  24  28
HETATM   28  O   UNK     0     148.382 194.751 188.427  0.00  0.00    -0.353 OA
HETATM   29  C   UNK     0     147.528 193.971 189.262  0.00  0.00     0.210 C 
ENDBRANCH  24  28
BRANCH  25  30
HETATM   30  O   UNK     0     149.187 194.417 185.788  0.00  0.00    -0.353 OA
HETATM   31  C   UNK     0     148.792 193.110 185.379  0.00  0.00     0.210 C 
ENDBRANCH  25  30
ENDBRANCH  21  22
ENDBRANCH  20  21
ENDBRANCH  18  20
ENDBRANCH  17  18
ENDBRANCH  16  17
ENDBRANCH  15  16
ENDBRANCH   9  15
ENDBRANCH   5   9
BRANCH   8  32
HETATM   32  O   UNK     0     150.297 195.205 181.462  0.00  0.00    -0.353 OA
HETATM   33  C   UNK     0     151.074 195.184 182.657  0.00  0.00     0.210 C 
ENDBRANCH   8  32
ENDBRANCH   1   3
TORSDOF 13
ENDMDL
MODEL 5
REMARK VINA RESULT:      -6.8     17.289     20.106
REMARK  13 active torsions:
REMARK  status: ('A' for Active; 'I' for Inactive)
REMARK    1  A    between atoms: O_1  and  C_19 
REMARK    2  A    between atoms: O_2  and  C_23 
REMARK    3  A    between atoms: O_3  and  C_27 
REMARK    4  A    between atoms: O_4  and  C_30 
REMARK    5  A    between atoms: N_5  and  C_12 
REMARK    6  A    between atoms: N_5  and  C_18 
REMARK    7  A    between atoms: C_7  and  C_8 
REMARK    8  A    between atoms: C_7  and  C_9 
REMARK    9  A    between atoms: C_7  and  C_11 
REMARK   10  A    between atoms: C_9  and  C_10 
REMARK   11  A    between atoms: C_10  and  C_12 
REMARK   12  A    between atoms: C_18  and  C_22 
REMARK   13  A    between atoms: C_22  and  C_24 
ROOT
HETATM    1  O   UNK     0     167.643 170.899 165.011  0.00  0.00    -0.353 OA
HETATM    2  C   UNK     0     167.389 171.619 166.216  0.00  0.00     0.210 C 
ENDROOT
BRANCH   1   3
HETATM    3  C   UNK     0     167.191 171.452 163.852  0.00  0.00     0.102 A 
HETATM    4  C   UNK     0     165.823 171.455 163.580  0.00  0.00     0.048 A 
HETATM    5  C   UNK     0     165.348 172.018 162.395  0.00  0.00    -0.032 A 
HETATM    6  C   UNK     0     166.241 172.580 161.482  0.00  0.00     0.012 A 
HETATM    7  C   UNK     0     167.609 172.576 161.755  0.00  0.00     0.040 A 
HETATM    8  C   UNK     0     168.085 172.013 162.939  0.00  0.00     0.101 A 
BRANCH   5   9
HETATM    9  C   UNK     0     163.830 172.021 162.095  0.00  0.00     0.079 C 
HETATM   10  C   UNK     0     163.522 171.874 160.642  0.00  0.00     0.074 C 
HETATM   11  N   UNK     0     163.266 171.756 159.517  0.00  0.00    -0.196 NA
BRANCH   9  12
HETATM   12  C   UNK     0     163.206 173.390 162.603  0.00  0.00     0.004 C 
HETATM   13  C   UNK     0     162.857 173.408 164.101  0.00  0.00     0.011 C 
HETATM   14  C   UNK     0     161.957 173.819 161.808  0.00  0.00     0.011 C 
ENDBRANCH   9  12
BRANCH   9  15
HETATM   15  C   UNK     0     163.146 170.814 162.832  0.00  0.00     0.032 C 
BRANCH  15  16
HETATM   16  C   UNK     0     161.751 170.424 162.297  0.00  0.00     0.032 C 
BRANCH  16  17
HETATM   17  C   UNK     0     161.382 168.971 162.609  0.00  0.00     0.272 C 
BRANCH  17  18
HETATM   18  N   UNK     0     161.307 168.156 161.404  0.00  0.00     0.084 N 
HETATM   19  C   UNK     0     161.031 168.990 160.233  0.00  0.00     0.309 C 
BRANCH  18  20
HETATM   20  C   UNK     0     162.549 167.405 161.210  0.00  0.00     0.276 C 
BRANCH  20  21
HETATM   21  C   UNK     0     163.479 168.127 160.236  0.00  0.00     0.068 C 
BRANCH  21  22
HETATM   22  C   UNK     0     164.877 168.251 160.792  0.00  0.00    -0.054 A 
HETATM   23  C   UNK     0     165.199 167.647 162.006  0.00  0.00     0.046 A 
HETATM   24  C   UNK     0     166.492 167.760 162.519  0.00  0.00     0.102 A 
HETATM   25  C   UNK     0     167.461 168.478 161.818  0.00  0.00     0.101 A 
HETATM   26  C   UNK     0     167.137 169.082 160.603  0.00  0.00     0.040 A 
HETATM   27  C   UNK     0     165.845 168.968 160.089  0.00  0.00     0.010 A 
BRANCH  24  28
HETATM   28  O   UNK     0     166.797 167.166 163.707  0.00  0.00    -0.353 OA
HETATM   29  C   UNK     0     166.650 165.749 163.779  0.00  0.00     0.210 C 
ENDBRANCH  24  28
BRANCH  25  30
HETATM   30  O   UNK     0     168.726 168.596 162.308  0.00  0.00    -0.353 OA
HETATM   31  C   UNK     0     169.675 167.615 161.895  0.00  0.00     0.210 C 
ENDBRANCH  25  30
ENDBRANCH  21  22
ENDBRANCH  20  21
ENDBRANCH  18  20
ENDBRANCH  17  18
ENDBRANCH  16  17
ENDBRANCH  15  16
ENDBRANCH   9  15
ENDBRANCH   5   9
BRANCH   8  32
HETATM   32  O   UNK     0     169.423 172.016 163.192  0.00  0.00    -0.353 OA
HETATM   33  C   UNK     0     170.270 172.587 162.197  0.00  0.00     0.210 C 
ENDBRANCH   8  32
ENDBRANCH   1   3
TORSDOF 13
ENDMDL
MODEL 6
REMARK VINA RESULT:      -6.7     16.188     19.591
REMARK  13 active torsions:
REMARK  status: ('A' for Active; 'I' for Inactive)
REMARK    1  A    between atoms: O_1  and  C_19 
REMARK    2  A    between atoms: O_2  and  C_23 
REMARK    3  A    between atoms: O_3  and  C_27 
REMARK    4  A    between atoms: O_4  and  C_30 
REMARK    5  A    between atoms: N_5  and  C_12 
REMARK    6  A    between atoms: N_5  and  C_18 
REMARK    7  A    between atoms: C_7  and  C_8 
REMARK    8  A    between atoms: C_7  and  C_9 
REMARK    9  A    between atoms: C_7  and  C_11 
REMARK   10  A    between atoms: C_9  and  C_10 
REMARK   11  A    between atoms: C_10  and  C_12 
REMARK   12  A    between atoms: C_18  and  C_22 
REMARK   13  A    between atoms: C_22  and  C_24 
ROOT
HETATM    1  O   UNK     0     169.246 171.353 164.237  0.00  0.00    -0.353 OA
HETATM    2  C   UNK     0     169.177 170.105 164.925  0.00  0.00     0.210 C 
ENDROOT
BRANCH   1   3
HETATM    3  C   UNK     0     168.563 171.452 163.063  0.00  0.00     0.102 A 
HETATM    4  C   UNK     0     167.944 170.319 162.533  0.00  0.00     0.048 A 
HETATM    5  C   UNK     0     167.241 170.407 161.331  0.00  0.00    -0.032 A 
HETATM    6  C   UNK     0     167.157 171.627 160.659  0.00  0.00     0.012 A 
HETATM    7  C   UNK     0     167.777 172.758 161.190  0.00  0.00     0.040 A 
HETATM    8  C   UNK     0     168.479 172.672 162.391  0.00  0.00     0.101 A 
BRANCH   5   9
HETATM    9  C   UNK     0     166.555 169.151 160.743  0.00  0.00     0.079 C 
HETATM   10  C   UNK     0     165.480 168.607 161.623  0.00  0.00     0.074 C 
HETATM   11  N   UNK     0     164.639 168.174 162.294  0.00  0.00    -0.196 NA
BRANCH   9  12
HETATM   12  C   UNK     0     167.647 168.019 160.527  0.00  0.00     0.004 C 
HETATM   13  C   UNK     0     167.398 167.127 159.299  0.00  0.00     0.011 C 
HETATM   14  C   UNK     0     167.831 167.111 161.758  0.00  0.00     0.011 C 
ENDBRANCH   9  12
BRANCH   9  15
HETATM   15  C   UNK     0     165.881 169.515 159.370  0.00  0.00     0.032 C 
BRANCH  15  16
HETATM   16  C   UNK     0     164.348 169.336 159.325  0.00  0.00     0.032 C 
BRANCH  16  17
HETATM   17  C   UNK     0     163.597 170.671 159.327  0.00  0.00     0.272 C 
BRANCH  17  18
HETATM   18  N   UNK     0     162.293 170.562 159.969  0.00  0.00     0.084 N 
HETATM   19  C   UNK     0     161.854 169.166 160.011  0.00  0.00     0.309 C 
BRANCH  18  20
HETATM   20  C   UNK     0     162.336 171.121 161.321  0.00  0.00     0.276 C 
BRANCH  20  21
HETATM   21  C   UNK     0     162.990 172.502 161.323  0.00  0.00     0.068 C 
BRANCH  21  22
HETATM   22  C   UNK     0     163.953 172.658 162.474  0.00  0.00    -0.054 A 
HETATM   23  C   UNK     0     164.591 173.879 162.688  0.00  0.00     0.046 A 
HETATM   24  C   UNK     0     165.481 174.024 163.754  0.00  0.00     0.102 A 
HETATM   25  C   UNK     0     165.732 172.947 164.604  0.00  0.00     0.101 A 
HETATM   26  C   UNK     0     165.093 171.726 164.389  0.00  0.00     0.040 A 
HETATM   27  C   UNK     0     164.203 171.581 163.325  0.00  0.00     0.010 A 
BRANCH  24  28
HETATM   28  O   UNK     0     166.099 175.222 163.953  0.00  0.00    -0.353 OA
HETATM   29  C   UNK     0     165.432 176.164 164.791  0.00  0.00     0.210 C 
ENDBRANCH  24  28
BRANCH  25  30
HETATM   30  O   UNK     0     166.598 173.075 165.647  0.00  0.00    -0.353 OA
HETATM   31  C   UNK     0     166.034 173.123 166.956  0.00  0.00     0.210 C 
ENDBRANCH  25  30
ENDBRANCH  21  22
ENDBRANCH  20  21
ENDBRANCH  18  20
ENDBRANCH  17  18
ENDBRANCH  16  17
ENDBRANCH  15  16
ENDBRANCH   9  15
ENDBRANCH   5   9
BRANCH   8  32
HETATM   32  O   UNK     0     169.080 173.784 162.898  0.00  0.00    -0.353 OA
HETATM   33  C   UNK     0     170.428 174.030 162.503  0.00  0.00     0.210 C 
ENDBRANCH   8  32
ENDBRANCH   1   3
TORSDOF 13
ENDMDL
MODEL 7
REMARK VINA RESULT:      -6.7      3.083      8.688
REMARK  13 active torsions:
REMARK  status: ('A' for Active; 'I' for Inactive)
REMARK    1  A    between atoms: O_1  and  C_19 
REMARK    2  A    between atoms: O_2  and  C_23 
REMARK    3  A    between atoms: O_3  and  C_27 
REMARK    4  A    between atoms: O_4  and  C_30 
REMARK    5  A    between atoms: N_5  and  C_12 
REMARK    6  A    between atoms: N_5  and  C_18 
REMARK    7  A    between atoms: C_7  and  C_8 
REMARK    8  A    between atoms: C_7  and  C_9 
REMARK    9  A    between atoms: C_7  and  C_11 
REMARK   10  A    between atoms: C_9  and  C_10 
REMARK   11  A    between atoms: C_10  and  C_12 
REMARK   12  A    between atoms: C_18  and  C_22 
REMARK   13  A    between atoms: C_22  and  C_24 
ROOT
HETATM    1  O   UNK     0     176.204 186.390 156.148  0.00  0.00    -0.353 OA
HETATM    2  C   UNK     0     175.978 187.365 155.131  0.00  0.00     0.210 C 
ENDROOT
BRANCH   1   3
HETATM    3  C   UNK     0     175.959 185.090 155.824  0.00  0.00     0.102 A 
HETATM    4  C   UNK     0     176.492 184.565 154.646  0.00  0.00     0.048 A 
HETATM    5  C   UNK     0     176.249 183.234 154.303  0.00  0.00    -0.032 A 
HETATM    6  C   UNK     0     175.473 182.429 155.137  0.00  0.00     0.012 A 
HETATM    7  C   UNK     0     174.940 182.955 156.314  0.00  0.00     0.040 A 
HETATM    8  C   UNK     0     175.183 184.285 156.658  0.00  0.00     0.101 A 
BRANCH   5   9
HETATM    9  C   UNK     0     176.840 182.652 152.997  0.00  0.00     0.079 C 
HETATM   10  C   UNK     0     177.212 183.703 152.005  0.00  0.00     0.074 C 
HETATM   11  N   UNK     0     177.510 184.508 151.225  0.00  0.00    -0.196 NA
BRANCH   9  12
HETATM   12  C   UNK     0     175.768 181.689 152.329  0.00  0.00     0.004 C 
HETATM   13  C   UNK     0     176.156 180.201 152.349  0.00  0.00     0.011 C 
HETATM   14  C   UNK     0     175.420 182.081 150.880  0.00  0.00     0.011 C 
ENDBRANCH   9  12
BRANCH   9  15
HETATM   15  C   UNK     0     178.150 181.849 153.326  0.00  0.00     0.032 C 
BRANCH  15  16
HETATM   16  C   UNK     0     179.418 182.710 153.508  0.00  0.00     0.032 C 
BRANCH  16  17
HETATM   17  C   UNK     0     179.899 182.756 154.962  0.00  0.00     0.272 C 
BRANCH  17  18
HETATM   18  N   UNK     0     180.283 184.102 155.367  0.00  0.00     0.084 N 
HETATM   19  C   UNK     0     180.068 185.052 154.273  0.00  0.00     0.309 C 
BRANCH  18  20
HETATM   20  C   UNK     0     179.531 184.518 156.553  0.00  0.00     0.276 C 
BRANCH  20  21
HETATM   21  C   UNK     0     180.359 185.464 157.423  0.00  0.00     0.068 C 
BRANCH  21  22
HETATM   22  C   UNK     0     179.627 185.838 158.688  0.00  0.00    -0.054 A 
HETATM   23  C   UNK     0     180.344 186.206 159.825  0.00  0.00     0.046 A 
HETATM   24  C   UNK     0     179.667 186.553 160.995  0.00  0.00     0.102 A 
HETATM   25  C   UNK     0     178.272 186.532 161.026  0.00  0.00     0.101 A 
HETATM   26  C   UNK     0     177.556 186.164 159.887  0.00  0.00     0.040 A 
HETATM   27  C   UNK     0     178.232 185.817 158.718  0.00  0.00     0.010 A 
BRANCH  24  28
HETATM   28  O   UNK     0     180.378 186.911 162.100  0.00  0.00    -0.353 OA
HETATM   29  C   UNK     0     181.767 187.180 161.918  0.00  0.00     0.210 C 
ENDBRANCH  24  28
BRANCH  25  30
HETATM   30  O   UNK     0     177.599 186.869 162.161  0.00  0.00    -0.353 OA
HETATM   31  C   UNK     0     177.295 185.814 163.071  0.00  0.00     0.210 C 
ENDBRANCH  25  30
ENDBRANCH  21  22
ENDBRANCH  20  21
ENDBRANCH  18  20
ENDBRANCH  17  18
ENDBRANCH  16  17
ENDBRANCH  15  16
ENDBRANCH   9  15
ENDBRANCH   5   9
BRANCH   8  32
HETATM   32  O   UNK     0     174.657 184.786 157.810  0.00  0.00    -0.353 OA
HETATM   33  C   UNK     0     173.621 184.030 158.432  0.00  0.00     0.210 C 
ENDBRANCH   8  32
ENDBRANCH   1   3
TORSDOF 13
ENDMDL
MODEL 8
REMARK VINA RESULT:      -6.7     38.004     41.741
REMARK  13 active torsions:
REMARK  status: ('A' for Active; 'I' for Inactive)
REMARK    1  A    between atoms: O_1  and  C_19 
REMARK    2  A    between atoms: O_2  and  C_23 
REMARK    3  A    between atoms: O_3  and  C_27 
REMARK    4  A    between atoms: O_4  and  C_30 
REMARK    5  A    between atoms: N_5  and  C_12 
REMARK    6  A    between atoms: N_5  and  C_18 
REMARK    7  A    between atoms: C_7  and  C_8 
REMARK    8  A    between atoms: C_7  and  C_9 
REMARK    9  A    between atoms: C_7  and  C_11 
REMARK   10  A    between atoms: C_9  and  C_10 
REMARK   11  A    between atoms: C_10  and  C_12 
REMARK   12  A    between atoms: C_18  and  C_22 
REMARK   13  A    between atoms: C_22  and  C_24 
ROOT
HETATM    1  O   UNK     0     145.191 195.810 181.628  0.00  0.00    -0.353 OA
HETATM    2  C   UNK     0     143.768 195.720 181.583  0.00  0.00     0.210 C 
ENDROOT
BRANCH   1   3
HETATM    3  C   UNK     0     145.726 196.766 182.437  0.00  0.00     0.102 A 
HETATM    4  C   UNK     0     145.046 197.142 183.596  0.00  0.00     0.048 A 
HETATM    5  C   UNK     0     145.583 198.121 184.433  0.00  0.00    -0.032 A 
HETATM    6  C   UNK     0     146.800 198.723 184.112  0.00  0.00     0.012 A 
HETATM    7  C   UNK     0     147.479 198.346 182.953  0.00  0.00     0.040 A 
HETATM    8  C   UNK     0     146.943 197.368 182.116  0.00  0.00     0.101 A 
BRANCH   5   9
HETATM    9  C   UNK     0     144.829 198.538 185.718  0.00  0.00     0.079 C 
HETATM   10  C   UNK     0     143.476 197.918 185.829  0.00  0.00     0.074 C 
HETATM   11  N   UNK     0     142.424 197.440 185.932  0.00  0.00    -0.196 NA
BRANCH   9  12
HETATM   12  C   UNK     0     144.658 200.117 185.727  0.00  0.00     0.004 C 
HETATM   13  C   UNK     0     144.454 200.722 187.126  0.00  0.00     0.011 C 
HETATM   14  C   UNK     0     143.519 200.610 184.813  0.00  0.00     0.011 C 
ENDBRANCH   9  12
BRANCH   9  15
HETATM   15  C   UNK     0     145.646 198.080 186.980  0.00  0.00     0.032 C 
BRANCH  15  16
HETATM   16  C   UNK     0     145.442 196.607 187.394  0.00  0.00     0.032 C 
BRANCH  16  17
HETATM   17  C   UNK     0     146.743 195.931 187.837  0.00  0.00     0.272 C 
BRANCH  17  18
HETATM   18  N   UNK     0     146.902 194.611 187.242  0.00  0.00     0.084 N 
HETATM   19  C   UNK     0     145.854 193.703 187.712  0.00  0.00     0.309 C 
BRANCH  18  20
HETATM   20  C   UNK     0     146.880 194.697 185.781  0.00  0.00     0.276 C 
BRANCH  20  21
HETATM   21  C   UNK     0     148.129 195.403 185.254  0.00  0.00     0.068 C 
BRANCH  21  22
HETATM   22  C   UNK     0     148.701 194.695 184.051  0.00  0.00    -0.054 A 
HETATM   23  C   UNK     0     150.066 194.772 183.781  0.00  0.00     0.046 A 
HETATM   24  C   UNK     0     150.596 194.116 182.668  0.00  0.00     0.102 A 
HETATM   25  C   UNK     0     149.758 193.383 181.827  0.00  0.00     0.101 A 
HETATM   26  C   UNK     0     148.392 193.306 182.098  0.00  0.00     0.040 A 
HETATM   27  C   UNK     0     147.863 193.961 183.210  0.00  0.00     0.010 A 
BRANCH  24  28
HETATM   28  O   UNK     0     151.931 194.199 182.414  0.00  0.00    -0.353 OA
HETATM   29  C   UNK     0     152.556 195.462 182.635  0.00  0.00     0.210 C 
ENDBRANCH  24  28
BRANCH  25  30
HETATM   30  O   UNK     0     150.262 192.738 180.739  0.00  0.00    -0.353 OA
HETATM   31  C   UNK     0     150.255 193.449 179.503  0.00  0.00     0.210 C 
ENDBRANCH  25  30
ENDBRANCH  21  22
ENDBRANCH  20  21
ENDBRANCH  18  20
ENDBRANCH  17  18
ENDBRANCH  16  17
ENDBRANCH  15  16
ENDBRANCH   9  15
ENDBRANCH   5   9
BRANCH   8  32
HETATM   32  O   UNK     0     147.616 197.010 180.987  0.00  0.00    -0.353 OA
HETATM   33  C   UNK     0     149.040 197.008 181.055  0.00  0.00     0.210 C 
ENDBRANCH   8  32
ENDBRANCH   1   3
TORSDOF 13
ENDMDL
MODEL 9
REMARK VINA RESULT:      -6.6     15.627     19.077
REMARK  13 active torsions:
REMARK  status: ('A' for Active; 'I' for Inactive)
REMARK    1  A    between atoms: O_1  and  C_19 
REMARK    2  A    between atoms: O_2  and  C_23 
REMARK    3  A    between atoms: O_3  and  C_27 
REMARK    4  A    between atoms: O_4  and  C_30 
REMARK    5  A    between atoms: N_5  and  C_12 
REMARK    6  A    between atoms: N_5  and  C_18 
REMARK    7  A    between atoms: C_7  and  C_8 
REMARK    8  A    between atoms: C_7  and  C_9 
REMARK    9  A    between atoms: C_7  and  C_11 
REMARK   10  A    between atoms: C_9  and  C_10 
REMARK   11  A    between atoms: C_10  and  C_12 
REMARK   12  A    between atoms: C_18  and  C_22 
REMARK   13  A    between atoms: C_22  and  C_24 
ROOT
HETATM    1  O   UNK     0     166.520 172.669 164.893  0.00  0.00    -0.353 OA
HETATM    2  C   UNK     0     166.055 171.954 166.037  0.00  0.00     0.210 C 
ENDROOT
BRANCH   1   3
HETATM    3  C   UNK     0     165.778 172.570 163.756  0.00  0.00     0.102 A 
HETATM    4  C   UNK     0     165.986 171.494 162.893  0.00  0.00     0.048 A 
HETATM    5  C   UNK     0     165.231 171.382 161.724  0.00  0.00    -0.032 A 
HETATM    6  C   UNK     0     164.269 172.345 161.420  0.00  0.00     0.012 A 
HETATM    7  C   UNK     0     164.062 173.421 162.284  0.00  0.00     0.040 A 
HETATM    8  C   UNK     0     164.815 173.534 163.452  0.00  0.00     0.101 A 
BRANCH   5   9
HETATM    9  C   UNK     0     165.462 170.189 160.767  0.00  0.00     0.079 C 
HETATM   10  C   UNK     0     165.125 170.504 159.348  0.00  0.00     0.074 C 
HETATM   11  N   UNK     0     164.871 170.736 158.240  0.00  0.00    -0.196 NA
BRANCH   9  12
HETATM   12  C   UNK     0     164.561 168.968 161.236  0.00  0.00     0.004 C 
HETATM   13  C   UNK     0     163.944 168.158 160.084  0.00  0.00     0.011 C 
HETATM   14  C   UNK     0     163.431 169.383 162.199  0.00  0.00     0.011 C 
ENDBRANCH   9  12
BRANCH   9  15
HETATM   15  C   UNK     0     166.978 169.778 160.795  0.00  0.00     0.032 C 
BRANCH  15  16
HETATM   16  C   UNK     0     167.255 168.321 161.225  0.00  0.00     0.032 C 
BRANCH  16  17
HETATM   17  C   UNK     0     167.712 168.211 162.683  0.00  0.00     0.272 C 
BRANCH  17  18
HETATM   18  N   UNK     0     169.071 167.697 162.791  0.00  0.00     0.084 N 
HETATM   19  C   UNK     0     169.552 167.232 161.489  0.00  0.00     0.309 C 
BRANCH  18  20
HETATM   20  C   UNK     0     169.969 168.722 163.327  0.00  0.00     0.276 C 
BRANCH  20  21
HETATM   21  C   UNK     0     169.223 169.668 164.266  0.00  0.00     0.068 C 
BRANCH  21  22
HETATM   22  C   UNK     0     169.569 171.111 163.991  0.00  0.00    -0.054 A 
HETATM   23  C   UNK     0     169.883 171.965 165.047  0.00  0.00     0.046 A 
HETATM   24  C   UNK     0     170.205 173.299 164.792  0.00  0.00     0.102 A 
HETATM   25  C   UNK     0     170.212 173.777 163.482  0.00  0.00     0.101 A 
HETATM   26  C   UNK     0     169.897 172.921 162.426  0.00  0.00     0.040 A 
HETATM   27  C   UNK     0     169.576 171.588 162.680  0.00  0.00     0.010 A 
BRANCH  24  28
HETATM   28  O   UNK     0     170.510 174.125 165.832  0.00  0.00    -0.353 OA
HETATM   29  C   UNK     0     169.438 174.506 166.693  0.00  0.00     0.210 C 
ENDBRANCH  24  28
BRANCH  25  30
HETATM   30  O   UNK     0     170.524 175.077 163.220  0.00  0.00    -0.353 OA
HETATM   31  C   UNK     0     169.436 175.975 163.010  0.00  0.00     0.210 C 
ENDBRANCH  25  30
ENDBRANCH  21  22
ENDBRANCH  20  21
ENDBRANCH  18  20
ENDBRANCH  17  18
ENDBRANCH  16  17
ENDBRANCH  15  16
ENDBRANCH   9  15
ENDBRANCH   5   9
BRANCH   8  32
HETATM   32  O   UNK     0     164.604 174.589 164.286  0.00  0.00    -0.353 OA
HETATM   33  C   UNK     0     165.452 175.723 164.125  0.00  0.00     0.210 C 
ENDBRANCH   8  32
ENDBRANCH   1   3
TORSDOF 13
ENDMDL
