REMARK VINA RESULT:      -7.6      1.261      2.084
REMARK  13 active torsions:
REMARK  status: ('A' for Active; 'I' for Inactive)
REMARK    1  A    between atoms: O_2  and  C_16 
REMARK    2  A    between atoms: O_2  and  C_17 
REMARK    3  A    between atoms: O_4  and  C_12 
REMARK    4  A    between atoms: O_5  and  C_13 
REMARK    5  A    between atoms: O_6  and  C_15 
REMARK    6  A    between atoms: O_6  and  C_22 
REMARK    7  A    between atoms: O_7  and  C_14 
REMARK    8  A    between atoms: O_8  and  C_18 
REMARK    9  A    between atoms: O_9  and  C_19 
REMARK   10  A    between atoms: O_10  and  C_20 
REMARK   11  A    between atoms: C_11  and  C_16 
REMARK   12  A    between atoms: C_22  and  C_23 
REMARK   13  A    between atoms: C_24  and  C_25 
ROOT
HETATM    1  O   UNK     0     182.993 182.052 172.299  0.00  0.00    -0.348 OA
HETATM    2  C   UNK     0     182.917 183.383 171.787  0.00  0.00     0.180 C 
HETATM    3  C   UNK     0     181.942 184.211 172.629  0.00  0.00     0.180 C 
HETATM    4  C   UNK     0     180.569 183.542 172.682  0.00  0.00     0.183 C 
HETATM    5  C   UNK     0     180.687 182.064 173.056  0.00  0.00     0.204 C 
HETATM    6  C   UNK     0     181.750 181.361 172.214  0.00  0.00     0.291 C 
ENDROOT
BRANCH   2   7
HETATM    7  C   UNK     0     184.325 183.970 171.815  0.00  0.00     0.205 C 
BRANCH   7   8
HETATM    8  O   UNK     0     184.528 184.595 173.068  0.00  0.00    -0.356 OA
BRANCH   8   9
HETATM    9  C   UNK     0     185.685 185.426 173.063  0.00  0.00     0.290 C 
HETATM   10  O   UNK     0     186.875 184.686 172.771  0.00  0.00    -0.356 OA
HETATM   11  C   UNK     0     187.232 183.748 173.784  0.00  0.00     0.205 C 
HETATM   12  C   UNK     0     187.487 184.458 175.107  0.00  0.00     0.173 C 
HETATM   13  C   UNK     0     186.255 185.256 175.538  0.00  0.00     0.182 C 
HETATM   14  C   UNK     0     185.797 186.174 174.400  0.00  0.00     0.204 C 
BRANCH  12  15
HETATM   15  O   UNK     0     187.829 183.518 176.116  0.00  0.00    -0.391 OA
HETATM   16  H   UNK     0     187.796 182.632 175.715  0.00  0.00     0.210 HD
ENDBRANCH  12  15
BRANCH  13  17
HETATM   17  O   UNK     0     185.203 184.353 175.875  0.00  0.00    -0.390 OA
HETATM   18  H   UNK     0     184.722 184.733 176.631  0.00  0.00     0.210 HD
ENDBRANCH  13  17
BRANCH  14  19
HETATM   19  O   UNK     0     186.742 187.231 174.236  0.00  0.00    -0.388 OA
HETATM   20  H   UNK     0     186.494 187.959 174.829  0.00  0.00     0.210 HD
ENDBRANCH  14  19
ENDBRANCH   8   9
ENDBRANCH   7   8
ENDBRANCH   2   7
BRANCH   6  21
HETATM   21  O   UNK     0     181.900 180.034 172.715  0.00  0.00    -0.355 OA
BRANCH  21  22
HETATM   22  C   UNK     0     182.936 179.340 172.037  0.00  0.00     0.198 C 
BRANCH  22  23
HETATM   23  C   UNK     0     182.638 177.875 172.075  0.00  0.00     0.000 C 
HETATM   24  C   UNK     0     182.267 177.170 170.995  0.00  0.00     0.009 C 
BRANCH  24  25
HETATM   25  C   UNK     0     181.978 175.726 170.981  0.00  0.00    -0.036 A 
HETATM   26  C   UNK     0     182.815 174.873 170.280  0.00  0.00     0.011 A 
HETATM   27  C   UNK     0     182.542 173.504 170.267  0.00  0.00     0.001 A 
HETATM   28  C   UNK     0     181.436 173.008 170.956  0.00  0.00     0.000 A 
HETATM   29  C   UNK     0     180.603 173.879 171.658  0.00  0.00     0.001 A 
HETATM   30  C   UNK     0     180.875 175.247 171.671  0.00  0.00     0.011 A 
ENDBRANCH  24  25
ENDBRANCH  22  23
ENDBRANCH  21  22
ENDBRANCH   6  21
BRANCH   3  31
HETATM   31  O   UNK     0     181.812 185.511 172.058  0.00  0.00    -0.390 OA
HETATM   32  H   UNK     0     181.868 185.420 171.091  0.00  0.00     0.210 HD
ENDBRANCH   3  31
BRANCH   5  33
HETATM   33  O   UNK     0     179.434 181.418 172.830  0.00  0.00    -0.388 OA
HETATM   34  H   UNK     0     178.844 182.050 172.387  0.00  0.00     0.210 HD
ENDBRANCH   5  33
BRANCH   4  35
HETATM   35  O   UNK     0     179.785 184.221 173.665  0.00  0.00    -0.390 OA
HETATM   36  H   UNK     0     178.866 184.234 173.347  0.00  0.00     0.210 HD
ENDBRANCH   4  35
TORSDOF 13
