REMARK VINA RESULT:      -7.5      5.524      7.254
REMARK  13 active torsions:
REMARK  status: ('A' for Active; 'I' for Inactive)
REMARK    1  A    between atoms: O_2  and  C_16 
REMARK    2  A    between atoms: O_2  and  C_17 
REMARK    3  A    between atoms: O_4  and  C_12 
REMARK    4  A    between atoms: O_5  and  C_13 
REMARK    5  A    between atoms: O_6  and  C_15 
REMARK    6  A    between atoms: O_6  and  C_22 
REMARK    7  A    between atoms: O_7  and  C_14 
REMARK    8  A    between atoms: O_8  and  C_18 
REMARK    9  A    between atoms: O_9  and  C_19 
REMARK   10  A    between atoms: O_10  and  C_20 
REMARK   11  A    between atoms: C_11  and  C_16 
REMARK   12  A    between atoms: C_22  and  C_23 
REMARK   13  A    between atoms: C_24  and  C_25 
ROOT
HETATM    1  O   UNK     0     182.176 184.852 170.106  0.00  0.00    -0.348 OA
HETATM    2  C   UNK     0     182.716 185.022 171.417  0.00  0.00     0.180 C 
HETATM    3  C   UNK     0     181.831 184.311 172.444  0.00  0.00     0.180 C 
HETATM    4  C   UNK     0     180.389 184.809 172.354  0.00  0.00     0.183 C 
HETATM    5  C   UNK     0     179.886 184.790 170.910  0.00  0.00     0.204 C 
HETATM    6  C   UNK     0     180.889 185.447 169.963  0.00  0.00     0.291 C 
ENDROOT
BRANCH   2   7
HETATM    7  C   UNK     0     184.135 184.460 171.408  0.00  0.00     0.205 C 
BRANCH   7   8
HETATM    8  O   UNK     0     184.899 185.149 172.381  0.00  0.00    -0.356 OA
BRANCH   8   9
HETATM    9  C   UNK     0     185.777 184.273 173.080  0.00  0.00     0.290 C 
HETATM   10  O   UNK     0     185.203 183.803 174.305  0.00  0.00    -0.356 OA
HETATM   11  C   UNK     0     185.018 184.824 175.282  0.00  0.00     0.205 C 
HETATM   12  C   UNK     0     186.353 185.457 175.655  0.00  0.00     0.173 C 
HETATM   13  C   UNK     0     187.042 186.032 174.416  0.00  0.00     0.182 C 
HETATM   14  C   UNK     0     187.127 184.967 173.318  0.00  0.00     0.204 C 
BRANCH  12  15
HETATM   15  O   UNK     0     186.162 186.482 176.620  0.00  0.00    -0.391 OA
HETATM   16  H   UNK     0     185.924 187.296 176.141  0.00  0.00     0.210 HD
ENDBRANCH  12  15
BRANCH  13  17
HETATM   17  O   UNK     0     186.296 187.151 173.939  0.00  0.00    -0.390 OA
HETATM   18  H   UNK     0     186.136 187.741 174.696  0.00  0.00     0.210 HD
ENDBRANCH  13  17
BRANCH  14  19
HETATM   19  O   UNK     0     188.074 183.971 173.699  0.00  0.00    -0.388 OA
HETATM   20  H   UNK     0     188.340 183.480 172.903  0.00  0.00     0.210 HD
ENDBRANCH  14  19
ENDBRANCH   8   9
ENDBRANCH   7   8
ENDBRANCH   2   7
BRANCH   6  21
HETATM   21  O   UNK     0     180.419 185.265 168.628  0.00  0.00    -0.355 OA
BRANCH  21  22
HETATM   22  C   UNK     0     180.407 183.893 168.268  0.00  0.00     0.198 C 
BRANCH  22  23
HETATM   23  C   UNK     0     179.945 183.772 166.851  0.00  0.00     0.000 C 
HETATM   24  C   UNK     0     179.826 184.822 166.023  0.00  0.00     0.009 C 
BRANCH  24  25
HETATM   25  C   UNK     0     179.390 184.751 164.618  0.00  0.00    -0.036 A 
HETATM   26  C   UNK     0     179.930 185.630 163.693  0.00  0.00     0.011 A 
HETATM   27  C   UNK     0     179.518 185.563 162.362  0.00  0.00     0.001 A 
HETATM   28  C   UNK     0     178.570 184.616 161.974  0.00  0.00     0.000 A 
HETATM   29  C   UNK     0     178.035 183.737 162.915  0.00  0.00     0.001 A 
HETATM   30  C   UNK     0     178.447 183.805 164.246  0.00  0.00     0.011 A 
ENDBRANCH  24  25
ENDBRANCH  22  23
ENDBRANCH  21  22
ENDBRANCH   6  21
BRANCH   3  31
HETATM   31  O   UNK     0     182.335 184.558 173.754  0.00  0.00    -0.390 OA
HETATM   32  H   UNK     0     181.911 183.928 174.362  0.00  0.00     0.210 HD
ENDBRANCH   3  31
BRANCH   5  33
HETATM   33  O   UNK     0     178.655 185.509 170.828  0.00  0.00    -0.388 OA
HETATM   34  H   UNK     0     178.034 185.116 171.463  0.00  0.00     0.210 HD
ENDBRANCH   5  33
BRANCH   4  35
HETATM   35  O   UNK     0     179.574 183.949 173.153  0.00  0.00    -0.390 OA
HETATM   36  H   UNK     0     178.656 184.058 172.854  0.00  0.00     0.210 HD
ENDBRANCH   4  35
TORSDOF 13
