REMARK VINA RESULT:      -7.5      5.560      7.555
REMARK  13 active torsions:
REMARK  status: ('A' for Active; 'I' for Inactive)
REMARK    1  A    between atoms: O_2  and  C_16 
REMARK    2  A    between atoms: O_2  and  C_17 
REMARK    3  A    between atoms: O_4  and  C_12 
REMARK    4  A    between atoms: O_5  and  C_13 
REMARK    5  A    between atoms: O_6  and  C_15 
REMARK    6  A    between atoms: O_6  and  C_22 
REMARK    7  A    between atoms: O_7  and  C_14 
REMARK    8  A    between atoms: O_8  and  C_18 
REMARK    9  A    between atoms: O_9  and  C_19 
REMARK   10  A    between atoms: O_10  and  C_20 
REMARK   11  A    between atoms: C_11  and  C_16 
REMARK   12  A    between atoms: C_22  and  C_23 
REMARK   13  A    between atoms: C_24  and  C_25 
ROOT
HETATM    1  O   UNK     0     181.906 186.164 170.436  0.00  0.00    -0.348 OA
HETATM    2  C   UNK     0     182.386 185.976 171.768  0.00  0.00     0.180 C 
HETATM    3  C   UNK     0     181.807 184.686 172.354  0.00  0.00     0.180 C 
HETATM    4  C   UNK     0     180.281 184.700 172.296  0.00  0.00     0.183 C 
HETATM    5  C   UNK     0     179.783 185.083 170.901  0.00  0.00     0.204 C 
HETATM    6  C   UNK     0     180.492 186.332 170.382  0.00  0.00     0.291 C 
ENDROOT
BRANCH   2   7
HETATM    7  C   UNK     0     183.910 185.937 171.708  0.00  0.00     0.205 C 
BRANCH   7   8
HETATM    8  O   UNK     0     184.413 185.974 173.031  0.00  0.00    -0.356 OA
BRANCH   8   9
HETATM    9  C   UNK     0     185.805 185.677 173.075  0.00  0.00     0.290 C 
HETATM   10  O   UNK     0     186.093 184.378 172.545  0.00  0.00    -0.356 OA
HETATM   11  C   UNK     0     185.572 183.308 173.330  0.00  0.00     0.205 C 
HETATM   12  C   UNK     0     186.164 183.334 174.733  0.00  0.00     0.173 C 
HETATM   13  C   UNK     0     185.880 184.674 175.414  0.00  0.00     0.182 C 
HETATM   14  C   UNK     0     186.328 185.829 174.512  0.00  0.00     0.204 C 
BRANCH  12  15
HETATM   15  O   UNK     0     185.632 182.274 175.515  0.00  0.00    -0.391 OA
HETATM   16  H   UNK     0     185.303 182.659 176.347  0.00  0.00     0.210 HD
ENDBRANCH  12  15
BRANCH  13  17
HETATM   17  O   UNK     0     184.481 184.785 175.671  0.00  0.00    -0.390 OA
HETATM   18  H   UNK     0     184.039 184.950 174.821  0.00  0.00     0.210 HD
ENDBRANCH  13  17
BRANCH  14  19
HETATM   19  O   UNK     0     187.753 185.865 174.461  0.00  0.00    -0.388 OA
HETATM   20  H   UNK     0     188.028 186.762 174.211  0.00  0.00     0.210 HD
ENDBRANCH  14  19
ENDBRANCH   8   9
ENDBRANCH   7   8
ENDBRANCH   2   7
BRANCH   6  21
HETATM   21  O   UNK     0     180.083 186.541 169.031  0.00  0.00    -0.355 OA
BRANCH  21  22
HETATM   22  C   UNK     0     180.826 185.730 168.134  0.00  0.00     0.198 C 
BRANCH  22  23
HETATM   23  C   UNK     0     180.000 185.481 166.913  0.00  0.00     0.000 C 
HETATM   24  C   UNK     0     180.523 185.132 165.728  0.00  0.00     0.009 C 
BRANCH  24  25
HETATM   25  C   UNK     0     179.749 184.862 164.504  0.00  0.00    -0.036 A 
HETATM   26  C   UNK     0     180.065 185.541 163.338  0.00  0.00     0.011 A 
HETATM   27  C   UNK     0     179.332 185.285 162.178  0.00  0.00     0.001 A 
HETATM   28  C   UNK     0     178.294 184.354 162.201  0.00  0.00     0.000 A 
HETATM   29  C   UNK     0     177.988 183.678 163.382  0.00  0.00     0.001 A 
HETATM   30  C   UNK     0     178.721 183.934 164.542  0.00  0.00     0.011 A 
ENDBRANCH  24  25
ENDBRANCH  22  23
ENDBRANCH  21  22
ENDBRANCH   6  21
BRANCH   3  31
HETATM   31  O   UNK     0     182.227 184.554 173.710  0.00  0.00    -0.390 OA
HETATM   32  H   UNK     0     182.080 183.632 173.981  0.00  0.00     0.210 HD
ENDBRANCH   3  31
BRANCH   5  33
HETATM   33  O   UNK     0     178.382 185.352 170.956  0.00  0.00    -0.388 OA
HETATM   34  H   UNK     0     178.254 186.183 171.444  0.00  0.00     0.210 HD
ENDBRANCH   5  33
BRANCH   4  35
HETATM   35  O   UNK     0     179.814 183.391 172.625  0.00  0.00    -0.390 OA
HETATM   36  H   UNK     0     179.970 182.823 171.852  0.00  0.00     0.210 HD
ENDBRANCH   4  35
TORSDOF 13
