MODEL 1
REMARK VINA RESULT:      -3.7      0.000      0.000
REMARK  10 active torsions:
REMARK  status: ('A' for Active; 'I' for Inactive)
REMARK    1  A    between atoms: O_2  and  C_12 
REMARK    2  A    between atoms: O_2  and  C_14 
REMARK    3  A    between atoms: O_3  and  C_8 
REMARK    4  A    between atoms: O_4  and  C_9 
REMARK    5  A    between atoms: O_5  and  C_10 
REMARK    6  A    between atoms: O_6  and  C_13 
REMARK    7  A    between atoms: O_7  and  C_21 
REMARK    8  A    between atoms: C_11  and  C_13 
REMARK    9  A    between atoms: C_14  and  C_15 
REMARK   10  A    between atoms: C_15  and  C_16 
ROOT
HETATM    1  O   UNK     0     -11.638   5.265   2.015  0.00  0.00    -0.348 OA
HETATM    2  C   UNK     0     -11.557   7.215  -0.092  0.00  0.00     0.183 C 
HETATM    3  C   UNK     0     -10.323   6.847   0.733  0.00  0.00     0.180 C 
HETATM    4  C   UNK     0     -12.845   6.877   0.658  0.00  0.00     0.204 C 
HETATM    5  C   UNK     0     -10.432   5.416   1.264  0.00  0.00     0.179 C 
HETATM    6  C   UNK     0     -12.806   5.456   1.219  0.00  0.00     0.291 C 
ENDROOT
BRANCH   5   7
HETATM    7  C   UNK     0      -9.270   5.066   2.186  0.00  0.00     0.198 C 
BRANCH   7   8
HETATM    8  O   UNK     0      -8.824   6.250   2.822  0.00  0.00    -0.398 OA
HETATM    9  H   UNK     0      -8.225   6.706   2.207  0.00  0.00     0.209 HD
ENDBRANCH   7   8
ENDBRANCH   5   7
BRANCH   6  10
HETATM   10  O   UNK     0     -13.971   5.268   2.020  0.00  0.00    -0.358 OA
BRANCH  10  11
HETATM   11  C   UNK     0     -13.921   6.060   3.198  0.00  0.00     0.175 C 
BRANCH  11  12
HETATM   12  C   UNK     0     -14.556   5.300   4.357  0.00  0.00     0.065 C 
BRANCH  12  13
HETATM   13  C   UNK     0     -13.592   5.086   5.499  0.00  0.00    -0.056 A 
HETATM   14  C   UNK     0     -12.245   4.912   5.227  0.00  0.00     0.010 A 
HETATM   15  C   UNK     0     -11.354   4.714   6.282  0.00  0.00     0.037 A 
HETATM   16  C   UNK     0     -11.824   4.693   7.596  0.00  0.00     0.065 A 
HETATM   17  C   UNK     0     -13.183   4.869   7.854  0.00  0.00     0.037 A 
HETATM   18  C   UNK     0     -14.073   5.067   6.799  0.00  0.00     0.010 A 
BRANCH  16  19
HETATM   19  O   UNK     0     -10.955   4.500   8.626  0.00  0.00    -0.361 OA
HETATM   20  H   UNK     0     -10.221   3.940   8.318  0.00  0.00     0.217 HD
ENDBRANCH  16  19
ENDBRANCH  12  13
ENDBRANCH  11  12
ENDBRANCH  10  11
ENDBRANCH   6  10
BRANCH   3  21
HETATM   21  O   UNK     0      -9.160   6.959  -0.083  0.00  0.00    -0.390 OA
HETATM   22  H   UNK     0      -8.948   6.075  -0.428  0.00  0.00     0.210 HD
ENDBRANCH   3  21
BRANCH   4  23
HETATM   23  O   UNK     0     -13.954   6.974  -0.237  0.00  0.00    -0.388 OA
HETATM   24  H   UNK     0     -13.628   7.325  -1.083  0.00  0.00     0.210 HD
ENDBRANCH   4  23
BRANCH   2  25
HETATM   25  O   UNK     0     -11.511   8.619  -0.352  0.00  0.00    -0.390 OA
HETATM   26  H   UNK     0     -11.187   8.737  -1.261  0.00  0.00     0.210 HD
ENDBRANCH   2  25
TORSDOF 10
ENDMDL
MODEL 2
REMARK VINA RESULT:      -3.6     13.375     17.413
REMARK  10 active torsions:
REMARK  status: ('A' for Active; 'I' for Inactive)
REMARK    1  A    between atoms: O_2  and  C_12 
REMARK    2  A    between atoms: O_2  and  C_14 
REMARK    3  A    between atoms: O_3  and  C_8 
REMARK    4  A    between atoms: O_4  and  C_9 
REMARK    5  A    between atoms: O_5  and  C_10 
REMARK    6  A    between atoms: O_6  and  C_13 
REMARK    7  A    between atoms: O_7  and  C_21 
REMARK    8  A    between atoms: C_11  and  C_13 
REMARK    9  A    between atoms: C_14  and  C_15 
REMARK   10  A    between atoms: C_15  and  C_16 
ROOT
HETATM    1  O   UNK     0     -13.493  14.241  18.726  0.00  0.00    -0.348 OA
HETATM    2  C   UNK     0     -11.393  13.305  20.447  0.00  0.00     0.183 C 
HETATM    3  C   UNK     0     -11.195  14.459  19.463  0.00  0.00     0.180 C 
HETATM    4  C   UNK     0     -12.562  12.414  20.026  0.00  0.00     0.204 C 
HETATM    5  C   UNK     0     -12.519  15.176  19.193  0.00  0.00     0.179 C 
HETATM    6  C   UNK     0     -13.803  13.242  19.696  0.00  0.00     0.291 C 
ENDROOT
BRANCH   5   7
HETATM    7  C   UNK     0     -12.370  16.254  18.126  0.00  0.00     0.198 C 
BRANCH   7   8
HETATM    8  O   UNK     0     -11.259  15.933  17.310  0.00  0.00    -0.398 OA
HETATM    9  H   UNK     0     -11.295  16.504  16.525  0.00  0.00     0.209 HD
ENDBRANCH   7   8
ENDBRANCH   5   7
BRANCH   6  10
HETATM   10  O   UNK     0     -14.796  12.358  19.178  0.00  0.00    -0.358 OA
BRANCH  10  11
HETATM   11  C   UNK     0     -14.434  11.871  17.895  0.00  0.00     0.175 C 
BRANCH  11  12
HETATM   12  C   UNK     0     -15.682  11.705  17.036  0.00  0.00     0.065 C 
BRANCH  12  13
HETATM   13  C   UNK     0     -15.588  12.463  15.734  0.00  0.00    -0.056 A 
HETATM   14  C   UNK     0     -16.175  11.935  14.596  0.00  0.00     0.010 A 
HETATM   15  C   UNK     0     -16.088  12.636  13.393  0.00  0.00     0.037 A 
HETATM   16  C   UNK     0     -15.414  13.857  13.345  0.00  0.00     0.065 A 
HETATM   17  C   UNK     0     -14.828  14.376  14.499  0.00  0.00     0.037 A 
HETATM   18  C   UNK     0     -14.916  13.675  15.701  0.00  0.00     0.010 A 
BRANCH  16  19
HETATM   19  O   UNK     0     -15.330  14.540  12.171  0.00  0.00    -0.361 OA
HETATM   20  H   UNK     0     -14.845  13.999  11.525  0.00  0.00     0.217 HD
ENDBRANCH  16  19
ENDBRANCH  12  13
ENDBRANCH  11  12
ENDBRANCH  10  11
ENDBRANCH   6  10
BRANCH   3  21
HETATM   21  O   UNK     0     -10.260  15.386  20.008  0.00  0.00    -0.390 OA
HETATM   22  H   UNK     0     -10.739  15.978  20.612  0.00  0.00     0.210 HD
ENDBRANCH   3  21
BRANCH   4  23
HETATM   23  O   UNK     0     -12.888  11.525  21.095  0.00  0.00    -0.388 OA
HETATM   24  H   UNK     0     -13.560  11.956  21.651  0.00  0.00     0.210 HD
ENDBRANCH   4  23
BRANCH   2  25
HETATM   25  O   UNK     0     -10.191  12.534  20.472  0.00  0.00    -0.390 OA
HETATM   26  H   UNK     0     -10.447  11.598  20.532  0.00  0.00     0.210 HD
ENDBRANCH   2  25
TORSDOF 10
ENDMDL
MODEL 3
REMARK VINA RESULT:      -3.6      1.718      2.242
REMARK  10 active torsions:
REMARK  status: ('A' for Active; 'I' for Inactive)
REMARK    1  A    between atoms: O_2  and  C_12 
REMARK    2  A    between atoms: O_2  and  C_14 
REMARK    3  A    between atoms: O_3  and  C_8 
REMARK    4  A    between atoms: O_4  and  C_9 
REMARK    5  A    between atoms: O_5  and  C_10 
REMARK    6  A    between atoms: O_6  and  C_13 
REMARK    7  A    between atoms: O_7  and  C_21 
REMARK    8  A    between atoms: C_11  and  C_13 
REMARK    9  A    between atoms: C_14  and  C_15 
REMARK   10  A    between atoms: C_15  and  C_16 
ROOT
HETATM    1  O   UNK     0     -11.430   5.253   2.088  0.00  0.00    -0.348 OA
HETATM    2  C   UNK     0     -11.600   7.158  -0.056  0.00  0.00     0.183 C 
HETATM    3  C   UNK     0     -10.292   6.866   0.681  0.00  0.00     0.180 C 
HETATM    4  C   UNK     0     -12.812   6.777   0.797  0.00  0.00     0.204 C 
HETATM    5  C   UNK     0     -10.292   5.443   1.245  0.00  0.00     0.179 C 
HETATM    6  C   UNK     0     -12.662   5.372   1.380  0.00  0.00     0.291 C 
ENDROOT
BRANCH   5   7
HETATM    7  C   UNK     0      -9.049   5.168   2.084  0.00  0.00     0.198 C 
BRANCH   7   8
HETATM    8  O   UNK     0      -8.601   6.389   2.642  0.00  0.00    -0.398 OA
HETATM    9  H   UNK     0      -8.918   7.108   2.070  0.00  0.00     0.209 HD
ENDBRANCH   7   8
ENDBRANCH   5   7
BRANCH   6  10
HETATM   10  O   UNK     0     -13.754   5.148   2.270  0.00  0.00    -0.358 OA
BRANCH  10  11
HETATM   11  C   UNK     0     -13.890   6.214   3.199  0.00  0.00     0.175 C 
BRANCH  11  12
HETATM   12  C   UNK     0     -15.245   6.125   3.891  0.00  0.00     0.065 C 
BRANCH  12  13
HETATM   13  C   UNK     0     -15.174   6.522   5.345  0.00  0.00    -0.056 A 
HETATM   14  C   UNK     0     -15.800   7.684   5.764  0.00  0.00     0.010 A 
HETATM   15  C   UNK     0     -15.734   8.051   7.108  0.00  0.00     0.037 A 
HETATM   16  C   UNK     0     -15.041   7.249   8.016  0.00  0.00     0.065 A 
HETATM   17  C   UNK     0     -14.416   6.082   7.580  0.00  0.00     0.037 A 
HETATM   18  C   UNK     0     -14.482   5.716   6.236  0.00  0.00     0.010 A 
BRANCH  16  19
HETATM   19  O   UNK     0     -14.977   7.608   9.328  0.00  0.00    -0.361 OA
HETATM   20  H   UNK     0     -15.395   8.479   9.437  0.00  0.00     0.217 HD
ENDBRANCH  16  19
ENDBRANCH  12  13
ENDBRANCH  11  12
ENDBRANCH  10  11
ENDBRANCH   6  10
BRANCH   3  21
HETATM   21  O   UNK     0      -9.200   7.014  -0.223  0.00  0.00    -0.390 OA
HETATM   22  H   UNK     0      -8.471   6.453   0.093  0.00  0.00     0.210 HD
ENDBRANCH   3  21
BRANCH   4  23
HETATM   23  O   UNK     0     -13.987   6.802  -0.013  0.00  0.00    -0.388 OA
HETATM   24  H   UNK     0     -14.198   7.732  -0.209  0.00  0.00     0.210 HD
ENDBRANCH   4  23
BRANCH   2  25
HETATM   25  O   UNK     0     -11.642   8.555  -0.344  0.00  0.00    -0.390 OA
HETATM   26  H   UNK     0     -12.100   8.664  -1.195  0.00  0.00     0.210 HD
ENDBRANCH   2  25
TORSDOF 10
ENDMDL
MODEL 4
REMARK VINA RESULT:      -3.6      8.915     11.529
REMARK  10 active torsions:
REMARK  status: ('A' for Active; 'I' for Inactive)
REMARK    1  A    between atoms: O_2  and  C_12 
REMARK    2  A    between atoms: O_2  and  C_14 
REMARK    3  A    between atoms: O_3  and  C_8 
REMARK    4  A    between atoms: O_4  and  C_9 
REMARK    5  A    between atoms: O_5  and  C_10 
REMARK    6  A    between atoms: O_6  and  C_13 
REMARK    7  A    between atoms: O_7  and  C_21 
REMARK    8  A    between atoms: C_11  and  C_13 
REMARK    9  A    between atoms: C_14  and  C_15 
REMARK   10  A    between atoms: C_15  and  C_16 
ROOT
HETATM    1  O   UNK     0     -15.302   8.617  10.769  0.00  0.00    -0.348 OA
HETATM    2  C   UNK     0     -17.604   9.779   9.504  0.00  0.00     0.183 C 
HETATM    3  C   UNK     0     -16.724   8.738   8.810  0.00  0.00     0.180 C 
HETATM    4  C   UNK     0     -16.843  10.488  10.625  0.00  0.00     0.204 C 
HETATM    5  C   UNK     0     -16.045   7.829   9.837  0.00  0.00     0.179 C 
HETATM    6  C   UNK     0     -16.133   9.487  11.535  0.00  0.00     0.291 C 
ENDROOT
BRANCH   5   7
HETATM    7  C   UNK     0     -15.071   6.859   9.177  0.00  0.00     0.198 C 
BRANCH   7   8
HETATM    8  O   UNK     0     -14.423   7.526   8.110  0.00  0.00    -0.398 OA
HETATM    9  H   UNK     0     -13.539   7.786   8.419  0.00  0.00     0.209 HD
ENDBRANCH   7   8
ENDBRANCH   5   7
BRANCH   6  10
HETATM   10  O   UNK     0     -15.335  10.224  12.460  0.00  0.00    -0.358 OA
BRANCH  10  11
HETATM   11  C   UNK     0     -15.599   9.830  13.799  0.00  0.00     0.175 C 
BRANCH  11  12
HETATM   12  C   UNK     0     -16.524  10.844  14.462  0.00  0.00     0.065 C 
BRANCH  12  13
HETATM   13  C   UNK     0     -15.857  12.183  14.662  0.00  0.00    -0.056 A 
HETATM   14  C   UNK     0     -15.286  12.482  15.887  0.00  0.00     0.010 A 
HETATM   15  C   UNK     0     -14.670  13.719  16.072  0.00  0.00     0.037 A 
HETATM   16  C   UNK     0     -14.635  14.643  15.026  0.00  0.00     0.065 A 
HETATM   17  C   UNK     0     -15.214  14.329  13.798  0.00  0.00     0.037 A 
HETATM   18  C   UNK     0     -15.830  13.091  13.614  0.00  0.00     0.010 A 
BRANCH  16  19
HETATM   19  O   UNK     0     -14.033  15.851  15.207  0.00  0.00    -0.361 OA
HETATM   20  H   UNK     0     -14.300  16.210  16.071  0.00  0.00     0.217 HD
ENDBRANCH  16  19
ENDBRANCH  12  13
ENDBRANCH  11  12
ENDBRANCH  10  11
ENDBRANCH   6  10
BRANCH   3  21
HETATM   21  O   UNK     0     -17.528   7.947   7.939  0.00  0.00    -0.390 OA
HETATM   22  H   UNK     0     -18.062   7.346   8.486  0.00  0.00     0.210 HD
ENDBRANCH   3  21
BRANCH   4  23
HETATM   23  O   UNK     0     -17.761  11.241  11.418  0.00  0.00    -0.388 OA
HETATM   24  H   UNK     0     -17.461  11.204  12.343  0.00  0.00     0.210 HD
ENDBRANCH   4  23
BRANCH   2  25
HETATM   25  O   UNK     0     -18.011  10.736   8.526  0.00  0.00    -0.390 OA
HETATM   26  H   UNK     0     -18.942  10.955   8.703  0.00  0.00     0.210 HD
ENDBRANCH   2  25
TORSDOF 10
ENDMDL
MODEL 5
REMARK VINA RESULT:      -3.6      8.921     11.580
REMARK  10 active torsions:
REMARK  status: ('A' for Active; 'I' for Inactive)
REMARK    1  A    between atoms: O_2  and  C_12 
REMARK    2  A    between atoms: O_2  and  C_14 
REMARK    3  A    between atoms: O_3  and  C_8 
REMARK    4  A    between atoms: O_4  and  C_9 
REMARK    5  A    between atoms: O_5  and  C_10 
REMARK    6  A    between atoms: O_6  and  C_13 
REMARK    7  A    between atoms: O_7  and  C_21 
REMARK    8  A    between atoms: C_11  and  C_13 
REMARK    9  A    between atoms: C_14  and  C_15 
REMARK   10  A    between atoms: C_15  and  C_16 
ROOT
HETATM    1  O   UNK     0     -15.287   7.437  12.976  0.00  0.00    -0.348 OA
HETATM    2  C   UNK     0     -15.925  10.211  13.362  0.00  0.00     0.183 C 
HETATM    3  C   UNK     0     -15.804   9.582  11.973  0.00  0.00     0.180 C 
HETATM    4  C   UNK     0     -15.162   9.395  14.406  0.00  0.00     0.204 C 
HETATM    5  C   UNK     0     -16.129   8.088  12.023  0.00  0.00     0.179 C 
HETATM    6  C   UNK     0     -15.498   7.908  14.305  0.00  0.00     0.291 C 
ENDROOT
BRANCH   5   7
HETATM    7  C   UNK     0     -15.902   7.415  10.674  0.00  0.00     0.198 C 
BRANCH   7   8
HETATM    8  O   UNK     0     -14.778   8.012  10.055  0.00  0.00    -0.398 OA
HETATM    9  H   UNK     0     -14.949   8.041   9.099  0.00  0.00     0.209 HD
ENDBRANCH   7   8
ENDBRANCH   5   7
BRANCH   6  10
HETATM   10  O   UNK     0     -14.647   7.203  15.207  0.00  0.00    -0.358 OA
BRANCH  10  11
HETATM   11  C   UNK     0     -14.749   5.799  15.023  0.00  0.00     0.175 C 
BRANCH  11  12
HETATM   12  C   UNK     0     -13.629   5.097  15.781  0.00  0.00     0.065 C 
BRANCH  12  13
HETATM   13  C   UNK     0     -12.309   5.170  15.052  0.00  0.00    -0.056 A 
HETATM   14  C   UNK     0     -11.179   5.592  15.732  0.00  0.00     0.010 A 
HETATM   15  C   UNK     0      -9.960   5.660  15.059  0.00  0.00     0.037 A 
HETATM   16  C   UNK     0      -9.887   5.304  13.711  0.00  0.00     0.065 A 
HETATM   17  C   UNK     0     -11.033   4.881  13.039  0.00  0.00     0.037 A 
HETATM   18  C   UNK     0     -12.252   4.813  13.714  0.00  0.00     0.010 A 
BRANCH  16  19
HETATM   19  O   UNK     0      -8.697   5.370  13.054  0.00  0.00    -0.361 OA
HETATM   20  H   UNK     0      -8.635   4.621  12.437  0.00  0.00     0.217 HD
ENDBRANCH  16  19
ENDBRANCH  12  13
ENDBRANCH  11  12
ENDBRANCH  10  11
ENDBRANCH   6  10
BRANCH   3  21
HETATM   21  O   UNK     0     -16.707  10.232  11.082  0.00  0.00    -0.390 OA
HETATM   22  H   UNK     0     -16.853  11.137  11.408  0.00  0.00     0.210 HD
ENDBRANCH   3  21
BRANCH   4  23
HETATM   23  O   UNK     0     -15.519   9.847  15.713  0.00  0.00    -0.388 OA
HETATM   24  H   UNK     0     -15.771  10.784  15.650  0.00  0.00     0.210 HD
ENDBRANCH   4  23
BRANCH   2  25
HETATM   25  O   UNK     0     -15.382  11.530  13.298  0.00  0.00    -0.390 OA
HETATM   26  H   UNK     0     -15.812  12.056  13.994  0.00  0.00     0.210 HD
ENDBRANCH   2  25
TORSDOF 10
ENDMDL
MODEL 6
REMARK VINA RESULT:      -3.5      9.105     13.069
REMARK  10 active torsions:
REMARK  status: ('A' for Active; 'I' for Inactive)
REMARK    1  A    between atoms: O_2  and  C_12 
REMARK    2  A    between atoms: O_2  and  C_14 
REMARK    3  A    between atoms: O_3  and  C_8 
REMARK    4  A    between atoms: O_4  and  C_9 
REMARK    5  A    between atoms: O_5  and  C_10 
REMARK    6  A    between atoms: O_6  and  C_13 
REMARK    7  A    between atoms: O_7  and  C_21 
REMARK    8  A    between atoms: C_11  and  C_13 
REMARK    9  A    between atoms: C_14  and  C_15 
REMARK   10  A    between atoms: C_15  and  C_16 
ROOT
HETATM    1  O   UNK     0     -15.361  12.033  13.358  0.00  0.00    -0.348 OA
HETATM    2  C   UNK     0     -15.767  10.761  15.901  0.00  0.00     0.183 C 
HETATM    3  C   UNK     0     -15.310  12.214  15.774  0.00  0.00     0.180 C 
HETATM    4  C   UNK     0     -15.446   9.968  14.633  0.00  0.00     0.204 C 
HETATM    5  C   UNK     0     -15.803  12.826  14.461  0.00  0.00     0.179 C 
HETATM    6  C   UNK     0     -15.903  10.714  13.380  0.00  0.00     0.291 C 
ENDROOT
BRANCH   5   7
HETATM    7  C   UNK     0     -15.262  14.237  14.257  0.00  0.00     0.198 C 
BRANCH   7   8
HETATM    8  O   UNK     0     -13.957  14.304  14.801  0.00  0.00    -0.398 OA
HETATM    9  H   UNK     0     -13.985  14.910  15.560  0.00  0.00     0.209 HD
ENDBRANCH   7   8
ENDBRANCH   5   7
BRANCH   6  10
HETATM   10  O   UNK     0     -15.444   9.985  12.243  0.00  0.00    -0.358 OA
BRANCH  10  11
HETATM   11  C   UNK     0     -16.530   9.469  11.488  0.00  0.00     0.175 C 
BRANCH  11  12
HETATM   12  C   UNK     0     -17.363  10.618  10.931  0.00  0.00     0.065 C 
BRANCH  12  13
HETATM   13  C   UNK     0     -17.081  10.875   9.470  0.00  0.00    -0.056 A 
HETATM   14  C   UNK     0     -17.138   9.822   8.572  0.00  0.00     0.010 A 
HETATM   15  C   UNK     0     -16.879  10.060   7.222  0.00  0.00     0.037 A 
HETATM   16  C   UNK     0     -16.564  11.349   6.789  0.00  0.00     0.065 A 
HETATM   17  C   UNK     0     -16.511  12.399   7.705  0.00  0.00     0.037 A 
HETATM   18  C   UNK     0     -16.771  12.160   9.055  0.00  0.00     0.010 A 
BRANCH  16  19
HETATM   19  O   UNK     0     -16.311  11.580   5.472  0.00  0.00    -0.361 OA
HETATM   20  H   UNK     0     -15.697  12.331   5.396  0.00  0.00     0.217 HD
ENDBRANCH  16  19
ENDBRANCH  12  13
ENDBRANCH  11  12
ENDBRANCH  10  11
ENDBRANCH   6  10
BRANCH   3  21
HETATM   21  O   UNK     0     -15.828  12.968  16.868  0.00  0.00    -0.390 OA
HETATM   22  H   UNK     0     -16.717  12.630  17.071  0.00  0.00     0.210 HD
ENDBRANCH   3  21
BRANCH   4  23
HETATM   23  O   UNK     0     -16.122   8.711  14.677  0.00  0.00    -0.388 OA
HETATM   24  H   UNK     0     -15.472   8.027  14.913  0.00  0.00     0.210 HD
ENDBRANCH   4  23
BRANCH   2  25
HETATM   25  O   UNK     0     -15.083  10.178  17.012  0.00  0.00    -0.390 OA
HETATM   26  H   UNK     0     -15.713   9.593  17.467  0.00  0.00     0.210 HD
ENDBRANCH   2  25
TORSDOF 10
ENDMDL
MODEL 7
REMARK VINA RESULT:      -3.5      2.693      4.339
REMARK  10 active torsions:
REMARK  status: ('A' for Active; 'I' for Inactive)
REMARK    1  A    between atoms: O_2  and  C_12 
REMARK    2  A    between atoms: O_2  and  C_14 
REMARK    3  A    between atoms: O_3  and  C_8 
REMARK    4  A    between atoms: O_4  and  C_9 
REMARK    5  A    between atoms: O_5  and  C_10 
REMARK    6  A    between atoms: O_6  and  C_13 
REMARK    7  A    between atoms: O_7  and  C_21 
REMARK    8  A    between atoms: C_11  and  C_13 
REMARK    9  A    between atoms: C_14  and  C_15 
REMARK   10  A    between atoms: C_15  and  C_16 
ROOT
HETATM    1  O   UNK     0     -13.140   4.286   5.644  0.00  0.00    -0.348 OA
HETATM    2  C   UNK     0     -10.961   4.307   3.772  0.00  0.00     0.183 C 
HETATM    3  C   UNK     0     -10.758   4.537   5.270  0.00  0.00     0.180 C 
HETATM    4  C   UNK     0     -12.399   4.617   3.355  0.00  0.00     0.204 C 
HETATM    5  C   UNK     0     -11.854   3.841   6.080  0.00  0.00     0.179 C 
HETATM    6  C   UNK     0     -13.407   3.942   4.286  0.00  0.00     0.291 C 
ENDROOT
BRANCH   5   7
HETATM    7  C   UNK     0     -11.741   4.152   7.568  0.00  0.00     0.198 C 
BRANCH   7   8
HETATM    8  O   UNK     0     -11.246   5.469   7.718  0.00  0.00    -0.398 OA
HETATM    9  H   UNK     0     -10.297   5.406   7.918  0.00  0.00     0.209 HD
ENDBRANCH   7   8
ENDBRANCH   5   7
BRANCH   6  10
HETATM   10  O   UNK     0     -14.710   4.392   3.922  0.00  0.00    -0.358 OA
BRANCH  10  11
HETATM   11  C   UNK     0     -15.703   3.845   4.777  0.00  0.00     0.175 C 
BRANCH  11  12
HETATM   12  C   UNK     0     -16.650   4.946   5.238  0.00  0.00     0.065 C 
BRANCH  12  13
HETATM   13  C   UNK     0     -16.126   5.686   6.445  0.00  0.00    -0.056 A 
HETATM   14  C   UNK     0     -15.867   7.043   6.350  0.00  0.00     0.010 A 
HETATM   15  C   UNK     0     -15.383   7.728   7.464  0.00  0.00     0.037 A 
HETATM   16  C   UNK     0     -15.164   7.043   8.661  0.00  0.00     0.065 A 
HETATM   17  C   UNK     0     -15.429   5.677   8.742  0.00  0.00     0.037 A 
HETATM   18  C   UNK     0     -15.913   4.994   7.626  0.00  0.00     0.010 A 
BRANCH  16  19
HETATM   19  O   UNK     0     -14.691   7.711   9.749  0.00  0.00    -0.361 OA
HETATM   20  H   UNK     0     -13.923   7.232  10.104  0.00  0.00     0.217 HD
ENDBRANCH  16  19
ENDBRANCH  12  13
ENDBRANCH  11  12
ENDBRANCH  10  11
ENDBRANCH   6  10
BRANCH   3  21
HETATM   21  O   UNK     0      -9.487   4.021   5.658  0.00  0.00    -0.390 OA
HETATM   22  H   UNK     0      -9.566   3.055   5.737  0.00  0.00     0.210 HD
ENDBRANCH   3  21
BRANCH   4  23
HETATM   23  O   UNK     0     -12.623   4.135   2.030  0.00  0.00    -0.388 OA
HETATM   24  H   UNK     0     -11.914   4.482   1.460  0.00  0.00     0.210 HD
ENDBRANCH   4  23
BRANCH   2  25
HETATM   25  O   UNK     0     -10.066   5.168   3.068  0.00  0.00    -0.390 OA
HETATM   26  H   UNK     0      -9.936   4.791   2.181  0.00  0.00     0.210 HD
ENDBRANCH   2  25
TORSDOF 10
ENDMDL
MODEL 8
REMARK VINA RESULT:      -3.5     13.272     16.237
REMARK  10 active torsions:
REMARK  status: ('A' for Active; 'I' for Inactive)
REMARK    1  A    between atoms: O_2  and  C_12 
REMARK    2  A    between atoms: O_2  and  C_14 
REMARK    3  A    between atoms: O_3  and  C_8 
REMARK    4  A    between atoms: O_4  and  C_9 
REMARK    5  A    between atoms: O_5  and  C_10 
REMARK    6  A    between atoms: O_6  and  C_13 
REMARK    7  A    between atoms: O_7  and  C_21 
REMARK    8  A    between atoms: C_11  and  C_13 
REMARK    9  A    between atoms: C_14  and  C_15 
REMARK   10  A    between atoms: C_15  and  C_16 
ROOT
HETATM    1  O   UNK     0     -15.016  12.088  15.472  0.00  0.00    -0.348 OA
HETATM    2  C   UNK     0     -15.692  14.172  13.614  0.00  0.00     0.183 C 
HETATM    3  C   UNK     0     -15.683  12.694  13.222  0.00  0.00     0.180 C 
HETATM    4  C   UNK     0     -14.813  14.424  14.840  0.00  0.00     0.204 C 
HETATM    5  C   UNK     0     -15.961  11.808  14.438  0.00  0.00     0.179 C 
HETATM    6  C   UNK     0     -15.116  13.426  15.957  0.00  0.00     0.291 C 
ENDROOT
BRANCH   5   7
HETATM    7  C   UNK     0     -15.841  10.326  14.097  0.00  0.00     0.198 C 
BRANCH   7   8
HETATM    8  O   UNK     0     -14.790  10.161  13.164  0.00  0.00    -0.398 OA
HETATM    9  H   UNK     0     -15.141   9.656  12.411  0.00  0.00     0.209 HD
ENDBRANCH   7   8
ENDBRANCH   5   7
BRANCH   6  10
HETATM   10  O   UNK     0     -14.166  13.632  17.000  0.00  0.00    -0.358 OA
BRANCH  10  11
HETATM   11  C   UNK     0     -14.805  13.768  18.261  0.00  0.00     0.175 C 
BRANCH  11  12
HETATM   12  C   UNK     0     -14.623  15.190  18.781  0.00  0.00     0.065 C 
BRANCH  12  13
HETATM   13  C   UNK     0     -13.180  15.507  19.091  0.00  0.00    -0.056 A 
HETATM   14  C   UNK     0     -12.474  14.685  19.953  0.00  0.00     0.010 A 
HETATM   15  C   UNK     0     -11.141  14.978  20.239  0.00  0.00     0.037 A 
HETATM   16  C   UNK     0     -10.532  16.091  19.659  0.00  0.00     0.065 A 
HETATM   17  C   UNK     0     -11.255  16.910  18.793  0.00  0.00     0.037 A 
HETATM   18  C   UNK     0     -12.588  16.616  18.507  0.00  0.00     0.010 A 
BRANCH  16  19
HETATM   19  O   UNK     0      -9.230  16.377  19.939  0.00  0.00    -0.361 OA
HETATM   20  H   UNK     0      -9.197  16.992  20.692  0.00  0.00     0.217 HD
ENDBRANCH  16  19
ENDBRANCH  12  13
ENDBRANCH  11  12
ENDBRANCH  10  11
ENDBRANCH   6  10
BRANCH   3  21
HETATM   21  O   UNK     0     -16.682  12.463  12.233  0.00  0.00    -0.390 OA
HETATM   22  H   UNK     0     -16.345  11.793  11.614  0.00  0.00     0.210 HD
ENDBRANCH   3  21
BRANCH   4  23
HETATM   23  O   UNK     0     -15.060  15.739  15.337  0.00  0.00    -0.388 OA
HETATM   24  H   UNK     0     -15.799  15.690  15.967  0.00  0.00     0.210 HD
ENDBRANCH   4  23
BRANCH   2  25
HETATM   25  O   UNK     0     -15.193  14.925  12.508  0.00  0.00    -0.390 OA
HETATM   26  H   UNK     0     -14.418  14.453  12.160  0.00  0.00     0.210 HD
ENDBRANCH   2  25
TORSDOF 10
ENDMDL
MODEL 9
REMARK VINA RESULT:      -3.5     13.595     16.095
REMARK  10 active torsions:
REMARK  status: ('A' for Active; 'I' for Inactive)
REMARK    1  A    between atoms: O_2  and  C_12 
REMARK    2  A    between atoms: O_2  and  C_14 
REMARK    3  A    between atoms: O_3  and  C_8 
REMARK    4  A    between atoms: O_4  and  C_9 
REMARK    5  A    between atoms: O_5  and  C_10 
REMARK    6  A    between atoms: O_6  and  C_13 
REMARK    7  A    between atoms: O_7  and  C_21 
REMARK    8  A    between atoms: C_11  and  C_13 
REMARK    9  A    between atoms: C_14  and  C_15 
REMARK   10  A    between atoms: C_15  and  C_16 
ROOT
HETATM    1  O   UNK     0     -15.194  17.098  15.452  0.00  0.00    -0.348 OA
HETATM    2  C   UNK     0     -15.392  14.616  14.020  0.00  0.00     0.183 C 
HETATM    3  C   UNK     0     -14.430  14.813  15.193  0.00  0.00     0.180 C 
HETATM    4  C   UNK     0     -15.777  15.956  13.390  0.00  0.00     0.204 C 
HETATM    5  C   UNK     0     -14.959  15.877  16.156  0.00  0.00     0.179 C 
HETATM    6  C   UNK     0     -16.203  16.968  14.453  0.00  0.00     0.291 C 
ENDROOT
BRANCH   5   7
HETATM    7  C   UNK     0     -13.962  16.175  17.271  0.00  0.00     0.198 C 
BRANCH   7   8
HETATM    8  O   UNK     0     -12.675  15.767  16.847  0.00  0.00    -0.398 OA
HETATM    9  H   UNK     0     -12.430  14.980  17.364  0.00  0.00     0.209 HD
ENDBRANCH   7   8
ENDBRANCH   5   7
BRANCH   6  10
HETATM   10  O   UNK     0     -16.406  18.223  13.807  0.00  0.00    -0.358 OA
BRANCH  10  11
HETATM   11  C   UNK     0     -15.174  18.797  13.395  0.00  0.00     0.175 C 
BRANCH  11  12
HETATM   12  C   UNK     0     -15.309  19.347  11.979  0.00  0.00     0.065 C 
BRANCH  12  13
HETATM   13  C   UNK     0     -14.313  18.731  11.027  0.00  0.00    -0.056 A 
HETATM   14  C   UNK     0     -14.738  17.763  10.132  0.00  0.00     0.010 A 
HETATM   15  C   UNK     0     -13.817  17.194   9.252  0.00  0.00     0.037 A 
HETATM   16  C   UNK     0     -12.483  17.601   9.280  0.00  0.00     0.065 A 
HETATM   17  C   UNK     0     -12.070  18.576  10.187  0.00  0.00     0.037 A 
HETATM   18  C   UNK     0     -12.991  19.145  11.067  0.00  0.00     0.010 A 
BRANCH  16  19
HETATM   19  O   UNK     0     -11.585  17.045   8.421  0.00  0.00    -0.361 OA
HETATM   20  H   UNK     0     -11.345  16.160   8.745  0.00  0.00     0.217 HD
ENDBRANCH  16  19
ENDBRANCH  12  13
ENDBRANCH  11  12
ENDBRANCH  10  11
ENDBRANCH   6  10
BRANCH   3  21
HETATM   21  O   UNK     0     -14.281  13.579  15.890  0.00  0.00    -0.390 OA
HETATM   22  H   UNK     0     -15.113  13.083  15.808  0.00  0.00     0.210 HD
ENDBRANCH   3  21
BRANCH   4  23
HETATM   23  O   UNK     0     -16.871  15.760  12.494  0.00  0.00    -0.388 OA
HETATM   24  H   UNK     0     -16.671  14.988  11.938  0.00  0.00     0.210 HD
ENDBRANCH   4  23
BRANCH   2  25
HETATM   25  O   UNK     0     -14.739  13.802  13.045  0.00  0.00    -0.390 OA
HETATM   26  H   UNK     0     -15.368  13.659  12.317  0.00  0.00     0.210 HD
ENDBRANCH   2  25
TORSDOF 10
ENDMDL
MODEL 10
REMARK VINA RESULT:      -3.5     12.932     17.084
REMARK  10 active torsions:
REMARK  status: ('A' for Active; 'I' for Inactive)
REMARK    1  A    between atoms: O_2  and  C_12 
REMARK    2  A    between atoms: O_2  and  C_14 
REMARK    3  A    between atoms: O_3  and  C_8 
REMARK    4  A    between atoms: O_4  and  C_9 
REMARK    5  A    between atoms: O_5  and  C_10 
REMARK    6  A    between atoms: O_6  and  C_13 
REMARK    7  A    between atoms: O_7  and  C_21 
REMARK    8  A    between atoms: C_11  and  C_13 
REMARK    9  A    between atoms: C_14  and  C_15 
REMARK   10  A    between atoms: C_15  and  C_16 
ROOT
HETATM    1  O   UNK     0     -13.502  14.429  18.787  0.00  0.00    -0.348 OA
HETATM    2  C   UNK     0     -11.401  13.388  20.447  0.00  0.00     0.183 C 
HETATM    3  C   UNK     0     -11.182  14.551  19.478  0.00  0.00     0.180 C 
HETATM    4  C   UNK     0     -12.610  12.547  20.036  0.00  0.00     0.204 C 
HETATM    5  C   UNK     0     -12.485  15.320  19.248  0.00  0.00     0.179 C 
HETATM    6  C   UNK     0     -13.827  13.426  19.746  0.00  0.00     0.291 C 
ENDROOT
BRANCH   5   7
HETATM    7  C   UNK     0     -12.319  16.411  18.196  0.00  0.00     0.198 C 
BRANCH   7   8
HETATM    8  O   UNK     0     -11.206  16.090  17.383  0.00  0.00    -0.398 OA
HETATM    9  H   UNK     0     -11.542  15.867  16.499  0.00  0.00     0.209 HD
ENDBRANCH   7   8
ENDBRANCH   5   7
BRANCH   6  10
HETATM   10  O   UNK     0     -14.862  12.587  19.235  0.00  0.00    -0.358 OA
BRANCH  10  11
HETATM   11  C   UNK     0     -14.510  12.045  17.971  0.00  0.00     0.175 C 
BRANCH  11  12
HETATM   12  C   UNK     0     -15.460  10.907  17.616  0.00  0.00     0.065 C 
BRANCH  12  13
HETATM   13  C   UNK     0     -15.467  10.606  16.137  0.00  0.00    -0.056 A 
HETATM   14  C   UNK     0     -15.099   9.345  15.698  0.00  0.00     0.010 A 
HETATM   15  C   UNK     0     -15.106   9.067  14.331  0.00  0.00     0.037 A 
HETATM   16  C   UNK     0     -15.481  10.056  13.421  0.00  0.00     0.065 A 
HETATM   17  C   UNK     0     -15.850  11.321  13.877  0.00  0.00     0.037 A 
HETATM   18  C   UNK     0     -15.843  11.598  15.244  0.00  0.00     0.010 A 
BRANCH  16  19
HETATM   19  O   UNK     0     -15.487   9.785  12.087  0.00  0.00    -0.361 OA
HETATM   20  H   UNK     0     -15.878  10.539  11.614  0.00  0.00     0.217 HD
ENDBRANCH  16  19
ENDBRANCH  12  13
ENDBRANCH  11  12
ENDBRANCH  10  11
ENDBRANCH   6  10
BRANCH   3  21
HETATM   21  O   UNK     0     -10.202  15.435  20.017  0.00  0.00    -0.390 OA
HETATM   22  H   UNK     0      -9.884  15.056  20.854  0.00  0.00     0.210 HD
ENDBRANCH   3  21
BRANCH   4  23
HETATM   23  O   UNK     0     -12.947  11.652  21.096  0.00  0.00    -0.388 OA
HETATM   24  H   UNK     0     -13.466  12.146  21.755  0.00  0.00     0.210 HD
ENDBRANCH   4  23
BRANCH   2  25
HETATM   25  O   UNK     0     -10.228  12.574  20.432  0.00  0.00    -0.390 OA
HETATM   26  H   UNK     0      -9.876  12.587  19.526  0.00  0.00     0.210 HD
ENDBRANCH   2  25
TORSDOF 10
ENDMDL
