MODEL 1
REMARK VINA RESULT:      -8.4      0.000      0.000
REMARK  Name = 5280637
REMARK                            x       y       z     vdW  Elec       q    Type
REMARK                         _______ _______ _______ _____ _____    ______ ____
ROOT
ATOM     13  C   LIG    1      182.382 182.967 172.868  0.00  0.00    +0.131 A 
ATOM     14  C   LIG    1      183.474 182.101 172.819  0.00  0.00    +0.092 A 
ATOM     15  C   LIG    1      183.281 180.744 172.559  0.00  0.00    +0.135 A 
ATOM     16  C   LIG    1      181.988 180.259 172.349  0.00  0.00    +0.105 A 
ATOM     17  C   LIG    1      181.753 178.834 172.075  0.00  0.00    +0.197 A 
ATOM     18  C   LIG    1      180.347 178.432 171.866  0.00  0.00    +0.098 A 
ATOM     19  C   LIG    1      179.381 179.362 171.932  0.00  0.00    +0.139 A 
ATOM     30  O   LIG    1      179.605 180.704 172.199  0.00  0.00    -0.454 OA
ATOM     31  O   LIG    1      182.664 178.020 172.021  0.00  0.00    -0.287 OA
ATOM     32  C   LIG    1      180.896 181.124 172.397  0.00  0.00    +0.146 A 
ATOM     35  C   LIG    1      181.091 182.480 172.658  0.00  0.00    +0.093 A 
ENDROOT
BRANCH  19  20
ATOM     20  C   LIG    1      177.957 179.018 171.741  0.00  0.00    +0.021 A 
ATOM     21  C   LIG    1      177.308 178.185 172.655  0.00  0.00    +0.015 A 
ATOM     22  C   LIG    1      175.964 177.859 172.474  0.00  0.00    +0.050 A 
ATOM     23  C   LIG    1      175.265 178.366 171.378  0.00  0.00    +0.158 A 
ATOM     24  C   LIG    1      175.911 179.198 170.463  0.00  0.00    +0.159 A 
ATOM     29  C   LIG    1      177.255 179.524 170.645  0.00  0.00    +0.060 A 
BRANCH  24  25
ATOM     25  O   LIG    1      175.237 179.700 169.391  0.00  0.00    -0.503 OA
ATOM     26  H   LIG    1      175.660 180.535 169.127  0.00  0.00    +0.292 HD
ENDBRANCH  24  25
BRANCH  23  27
ATOM     27  O   LIG    1      173.953 178.040 171.212  0.00  0.00    -0.503 OA
ATOM     28  H   LIG    1      173.409 178.618 171.773  0.00  0.00    +0.292 HD
ENDBRANCH  23  27
ENDBRANCH  19  20
BRANCH  15  33
ATOM     33  O   LIG    1      184.380 179.939 172.522  0.00  0.00    -0.506 OA
ATOM     34  H   LIG    1      185.039 180.233 173.169  0.00  0.00    +0.292 HD
ENDBRANCH  15  33
BRANCH  13  12
ATOM     12  O   LIG    1      182.576 184.294 173.123  0.00  0.00    -0.461 OA
BRANCH  12   2
ATOM      1  O   LIG    1      184.083 185.177 174.669  0.00  0.00    -0.331 OA
ATOM      2  C   LIG    1      183.923 184.713 173.331  0.00  0.00    +0.339 C 
ATOM      3  C   LIG    1      184.226 185.833 172.335  0.00  0.00    +0.214 C 
ATOM      4  C   LIG    1      185.604 186.446 172.589  0.00  0.00    +0.180 C 
ATOM      5  C   LIG    1      185.796 186.783 174.067  0.00  0.00    +0.177 C 
ATOM     36  C   LIG    1      185.421 185.590 174.950  0.00  0.00    +0.179 C 
BRANCH   5   6
ATOM      6  O   LIG    1      187.158 187.131 174.299  0.00  0.00    -0.386 OA
ATOM      7  H   LIG    1      187.671 186.877 173.512  0.00  0.00    +0.210 HD
ENDBRANCH   5   6
BRANCH   4   8
ATOM      8  O   LIG    1      185.733 187.654 171.838  0.00  0.00    -0.386 OA
ATOM      9  H   LIG    1      186.458 188.167 172.235  0.00  0.00    +0.210 HD
ENDBRANCH   4   8
BRANCH   3  10
ATOM     10  O   LIG    1      184.187 185.285 171.018  0.00  0.00    -0.383 OA
ATOM     11  H   LIG    1      184.886 184.612 170.951  0.00  0.00    +0.210 HD
ENDBRANCH   3  10
BRANCH  36  37
ATOM     37  C   LIG    1      185.493 185.941 176.433  0.00  0.00    +0.190 C 
BRANCH  37  38
ATOM     38  O   LIG    1      186.790 185.631 176.907  0.00  0.00    -0.392 OA
ATOM     39  H   LIG    1      186.699 184.946 177.591  0.00  0.00    +0.210 HD
ENDBRANCH  37  38
ENDBRANCH  36  37
ENDBRANCH  12   2
ENDBRANCH  13  12
TORSDOF 11
ENDMDL
MODEL 2
REMARK VINA RESULT:      -8.1      2.731      4.411
REMARK  Name = 5280637
REMARK                            x       y       z     vdW  Elec       q    Type
REMARK                         _______ _______ _______ _____ _____    ______ ____
ROOT
ATOM     13  C   LIG    1      182.224 183.024 174.133  0.00  0.00    +0.131 A 
ATOM     14  C   LIG    1      181.297 183.774 173.409  0.00  0.00    +0.092 A 
ATOM     15  C   LIG    1      180.500 183.160 172.442  0.00  0.00    +0.135 A 
ATOM     16  C   LIG    1      180.637 181.791 172.204  0.00  0.00    +0.105 A 
ATOM     17  C   LIG    1      179.813 181.116 171.190  0.00  0.00    +0.197 A 
ATOM     18  C   LIG    1      180.041 179.666 171.023  0.00  0.00    +0.098 A 
ATOM     19  C   LIG    1      180.959 179.053 171.785  0.00  0.00    +0.139 A 
ATOM     30  O   LIG    1      181.741 179.693 172.735  0.00  0.00    -0.454 OA
ATOM     31  O   LIG    1      178.984 181.714 170.518  0.00  0.00    -0.287 OA
ATOM     32  C   LIG    1      181.563 181.040 172.927  0.00  0.00    +0.146 A 
ATOM     35  C   LIG    1      182.359 181.656 173.893  0.00  0.00    +0.093 A 
ENDROOT
BRANCH  19  20
ATOM     20  C   LIG    1      181.236 177.607 171.657  0.00  0.00    +0.021 A 
ATOM     21  C   LIG    1      180.336 176.673 172.173  0.00  0.00    +0.015 A 
ATOM     22  C   LIG    1      180.598 175.308 172.053  0.00  0.00    +0.050 A 
ATOM     23  C   LIG    1      181.760 174.874 171.414  0.00  0.00    +0.158 A 
ATOM     24  C   LIG    1      182.661 175.806 170.898  0.00  0.00    +0.159 A 
ATOM     29  C   LIG    1      182.399 177.170 171.019  0.00  0.00    +0.060 A 
BRANCH  24  25
ATOM     25  O   LIG    1      183.798 175.392 170.271  0.00  0.00    -0.503 OA
ATOM     26  H   LIG    1      183.740 175.646 169.334  0.00  0.00    +0.292 HD
ENDBRANCH  24  25
BRANCH  23  27
ATOM     27  O   LIG    1      182.004 173.539 171.304  0.00  0.00    -0.503 OA
ATOM     28  H   LIG    1      182.098 173.310 170.363  0.00  0.00    +0.292 HD
ENDBRANCH  23  27
ENDBRANCH  19  20
BRANCH  15  33
ATOM     33  O   LIG    1      179.611 183.937 171.762  0.00  0.00    -0.506 OA
ATOM     34  H   LIG    1      179.578 184.828 172.141  0.00  0.00    +0.292 HD
ENDBRANCH  15  33
BRANCH  13  12
ATOM     12  O   LIG    1      183.001 183.629 175.077  0.00  0.00    -0.461 OA
BRANCH  12   2
ATOM      1  O   LIG    1      185.201 183.408 174.333  0.00  0.00    -0.331 OA
ATOM      2  C   LIG    1      184.149 184.331 174.604  0.00  0.00    +0.339 C 
ATOM      3  C   LIG    1      184.572 185.323 175.688  0.00  0.00    +0.214 C 
ATOM      4  C   LIG    1      185.888 186.015 175.326  0.00  0.00    +0.180 C 
ATOM      5  C   LIG    1      186.943 185.001 174.886  0.00  0.00    +0.177 C 
ATOM     36  C   LIG    1      186.376 184.048 173.831  0.00  0.00    +0.179 C 
BRANCH   5   6
ATOM      6  O   LIG    1      188.064 185.693 174.342  0.00  0.00    -0.386 OA
ATOM      7  H   LIG    1      188.270 186.440 174.930  0.00  0.00    +0.210 HD
ENDBRANCH   5   6
BRANCH   4   8
ATOM      8  O   LIG    1      186.390 186.709 176.469  0.00  0.00    -0.386 OA
ATOM      9  H   LIG    1      186.604 187.615 176.187  0.00  0.00    +0.210 HD
ENDBRANCH   4   8
BRANCH   3  10
ATOM     10  O   LIG    1      183.544 186.304 175.824  0.00  0.00    -0.383 OA
ATOM     11  H   LIG    1      183.968 187.175 175.908  0.00  0.00    +0.210 HD
ENDBRANCH   3  10
BRANCH  36  37
ATOM     37  C   LIG    1      187.374 182.955 173.462  0.00  0.00    +0.190 C 
BRANCH  37  38
ATOM     38  O   LIG    1      188.443 182.991 174.389  0.00  0.00    -0.392 OA
ATOM     39  H   LIG    1      189.270 183.076 173.883  0.00  0.00    +0.210 HD
ENDBRANCH  37  38
ENDBRANCH  36  37
ENDBRANCH  12   2
ENDBRANCH  13  12
TORSDOF 11
ENDMDL
MODEL 3
REMARK VINA RESULT:      -8.1      5.579      7.717
REMARK  Name = 5280637
REMARK                            x       y       z     vdW  Elec       q    Type
REMARK                         _______ _______ _______ _____ _____    ______ ____
ROOT
ATOM     13  C   LIG    1      182.976 186.157 171.047  0.00  0.00    +0.131 A 
ATOM     14  C   LIG    1      183.959 187.012 170.549  0.00  0.00    +0.092 A 
ATOM     15  C   LIG    1      183.606 188.085 169.730  0.00  0.00    +0.135 A 
ATOM     16  C   LIG    1      182.262 188.296 169.412  0.00  0.00    +0.105 A 
ATOM     17  C   LIG    1      181.859 189.417 168.550  0.00  0.00    +0.197 A 
ATOM     18  C   LIG    1      180.412 189.546 168.281  0.00  0.00    +0.098 A 
ATOM     19  C   LIG    1      179.561 188.662 168.824  0.00  0.00    +0.139 A 
ATOM     30  O   LIG    1      179.945 187.601 169.630  0.00  0.00    -0.454 OA
ATOM     31  O   LIG    1      182.669 190.203 168.078  0.00  0.00    -0.287 OA
ATOM     32  C   LIG    1      181.279 187.442 169.909  0.00  0.00    +0.146 A 
ATOM     35  C   LIG    1      181.635 186.370 170.727  0.00  0.00    +0.093 A 
ENDROOT
BRANCH  19  20
ATOM     20  C   LIG    1      178.105 188.736 168.583  0.00  0.00    +0.021 A 
ATOM     21  C   LIG    1      177.369 189.818 169.069  0.00  0.00    +0.015 A 
ATOM     22  C   LIG    1      175.994 189.887 168.842  0.00  0.00    +0.050 A 
ATOM     23  C   LIG    1      175.353 188.875 168.128  0.00  0.00    +0.158 A 
ATOM     24  C   LIG    1      176.086 187.792 167.643  0.00  0.00    +0.159 A 
ATOM     29  C   LIG    1      177.461 187.723 167.869  0.00  0.00    +0.060 A 
BRANCH  24  25
ATOM     25  O   LIG    1      175.470 186.798 166.943  0.00  0.00    -0.503 OA
ATOM     26  H   LIG    1      175.118 187.177 166.120  0.00  0.00    +0.292 HD
ENDBRANCH  24  25
BRANCH  23  27
ATOM     27  O   LIG    1      174.010 188.953 167.915  0.00  0.00    -0.503 OA
ATOM     28  H   LIG    1      173.703 189.847 168.148  0.00  0.00    +0.292 HD
ENDBRANCH  23  27
ENDBRANCH  19  20
BRANCH  15  33
ATOM     33  O   LIG    1      184.603 188.891 169.269  0.00  0.00    -0.506 OA
ATOM     34  H   LIG    1      185.196 188.398 168.683  0.00  0.00    +0.292 HD
ENDBRANCH  15  33
BRANCH  13  12
ATOM     12  O   LIG    1      183.327 185.109 171.846  0.00  0.00    -0.461 OA
BRANCH  12   2
ATOM      1  O   LIG    1      185.383 185.583 172.842  0.00  0.00    -0.331 OA
ATOM      2  C   LIG    1      183.984 185.433 173.071  0.00  0.00    +0.339 C 
ATOM      3  C   LIG    1      183.722 184.296 174.060  0.00  0.00    +0.214 C 
ATOM      4  C   LIG    1      184.515 184.490 175.353  0.00  0.00    +0.180 C 
ATOM      5  C   LIG    1      185.981 184.809 175.060  0.00  0.00    +0.177 C 
ATOM     36  C   LIG    1      186.097 185.934 174.029  0.00  0.00    +0.179 C 
BRANCH   5   6
ATOM      6  O   LIG    1      186.627 185.206 176.267  0.00  0.00    -0.386 OA
ATOM      7  H   LIG    1      186.981 184.408 176.695  0.00  0.00    +0.210 HD
ENDBRANCH   5   6
BRANCH   4   8
ATOM      8  O   LIG    1      184.468 183.288 176.124  0.00  0.00    -0.386 OA
ATOM      9  H   LIG    1      185.252 182.762 175.888  0.00  0.00    +0.210 HD
ENDBRANCH   4   8
BRANCH   3  10
ATOM     10  O   LIG    1      182.326 184.276 174.359  0.00  0.00    -0.383 OA
ATOM     11  H   LIG    1      182.054 185.181 174.590  0.00  0.00    +0.210 HD
ENDBRANCH   3  10
BRANCH  36  37
ATOM     37  C   LIG    1      187.548 186.189 173.634  0.00  0.00    +0.190 C 
BRANCH  37  38
ATOM     38  O   LIG    1      188.252 184.962 173.686  0.00  0.00    -0.392 OA
ATOM     39  H   LIG    1      188.613 184.866 174.585  0.00  0.00    +0.210 HD
ENDBRANCH  37  38
ENDBRANCH  36  37
ENDBRANCH  12   2
ENDBRANCH  13  12
TORSDOF 11
ENDMDL
MODEL 4
REMARK VINA RESULT:      -8.1      2.500      4.470
REMARK  Name = 5280637
REMARK                            x       y       z     vdW  Elec       q    Type
REMARK                         _______ _______ _______ _____ _____    ______ ____
ROOT
ATOM     13  C   LIG    1      183.548 181.672 172.535  0.00  0.00    +0.131 A 
ATOM     14  C   LIG    1      182.405 182.451 172.717  0.00  0.00    +0.092 A 
ATOM     15  C   LIG    1      181.141 181.863 172.668  0.00  0.00    +0.135 A 
ATOM     16  C   LIG    1      181.028 180.490 172.436  0.00  0.00    +0.105 A 
ATOM     17  C   LIG    1      179.709 179.842 172.377  0.00  0.00    +0.197 A 
ATOM     18  C   LIG    1      179.708 178.386 172.127  0.00  0.00    +0.098 A 
ATOM     19  C   LIG    1      180.877 177.744 171.974  0.00  0.00    +0.139 A 
ATOM     30  O   LIG    1      182.119 178.359 172.022  0.00  0.00    -0.454 OA
ATOM     31  O   LIG    1      178.667 180.465 172.524  0.00  0.00    -0.287 OA
ATOM     32  C   LIG    1      182.170 179.711 172.254  0.00  0.00    +0.146 A 
ATOM     35  C   LIG    1      183.432 180.301 172.303  0.00  0.00    +0.093 A 
ENDROOT
BRANCH  19  20
ATOM     20  C   LIG    1      180.937 176.291 171.714  0.00  0.00    +0.021 A 
ATOM     21  C   LIG    1      180.064 175.424 172.374  0.00  0.00    +0.015 A 
ATOM     22  C   LIG    1      180.122 174.052 172.130  0.00  0.00    +0.050 A 
ATOM     23  C   LIG    1      181.053 173.544 171.223  0.00  0.00    +0.158 A 
ATOM     24  C   LIG    1      181.927 174.408 170.563  0.00  0.00    +0.159 A 
ATOM     29  C   LIG    1      181.869 175.780 170.808  0.00  0.00    +0.060 A 
BRANCH  24  25
ATOM     25  O   LIG    1      182.839 173.922 169.675  0.00  0.00    -0.503 OA
ATOM     26  H   LIG    1      182.402 173.248 169.126  0.00  0.00    +0.292 HD
ENDBRANCH  24  25
BRANCH  23  27
ATOM     27  O   LIG    1      181.100 172.202 170.994  0.00  0.00    -0.503 OA
ATOM     28  H   LIG    1      180.508 171.752 171.621  0.00  0.00    +0.292 HD
ENDBRANCH  23  27
ENDBRANCH  19  20
BRANCH  15  33
ATOM     33  O   LIG    1      180.056 182.666 172.851  0.00  0.00    -0.506 OA
ATOM     34  H   LIG    1      179.915 182.839 173.794  0.00  0.00    +0.292 HD
ENDBRANCH  15  33
BRANCH  13  12
ATOM     12  O   LIG    1      184.782 182.252 172.584  0.00  0.00    -0.461 OA
BRANCH  12   2
ATOM      1  O   LIG    1      185.145 184.557 172.544  0.00  0.00    -0.331 OA
ATOM      2  C   LIG    1      184.903 183.429 173.382  0.00  0.00    +0.339 C 
ATOM      3  C   LIG    1      186.067 183.222 174.351  0.00  0.00    +0.214 C 
ATOM      4  C   LIG    1      186.364 184.495 175.144  0.00  0.00    +0.180 C 
ATOM      5  C   LIG    1      186.457 185.712 174.223  0.00  0.00    +0.177 C 
ATOM     36  C   LIG    1      185.251 185.775 173.283  0.00  0.00    +0.179 C 
BRANCH   5   6
ATOM      6  O   LIG    1      186.503 186.898 175.012  0.00  0.00    -0.386 OA
ATOM      7  H   LIG    1      185.619 187.039 175.393  0.00  0.00    +0.210 HD
ENDBRANCH   5   6
BRANCH   4   8
ATOM      8  O   LIG    1      187.615 184.354 175.820  0.00  0.00    -0.386 OA
ATOM      9  H   LIG    1      188.018 185.238 175.871  0.00  0.00    +0.210 HD
ENDBRANCH   4   8
BRANCH   3  10
ATOM     10  O   LIG    1      185.718 182.173 175.254  0.00  0.00    -0.383 OA
ATOM     11  H   LIG    1      185.387 182.578 176.073  0.00  0.00    +0.210 HD
ENDBRANCH   3  10
BRANCH  36  37
ATOM     37  C   LIG    1      185.380 186.914 172.276  0.00  0.00    +0.190 C 
BRANCH  37  38
ATOM     38  O   LIG    1      186.737 187.312 172.218  0.00  0.00    -0.392 OA
ATOM     39  H   LIG    1      186.769 188.198 171.817  0.00  0.00    +0.210 HD
ENDBRANCH  37  38
ENDBRANCH  36  37
ENDBRANCH  12   2
ENDBRANCH  13  12
TORSDOF 11
ENDMDL
MODEL 5
REMARK VINA RESULT:      -8.0      2.024      3.564
REMARK  Name = 5280637
REMARK                            x       y       z     vdW  Elec       q    Type
REMARK                         _______ _______ _______ _____ _____    ______ ____
ROOT
ATOM     13  C   LIG    1      183.331 182.601 172.619  0.00  0.00    +0.131 A 
ATOM     14  C   LIG    1      182.836 183.593 171.772  0.00  0.00    +0.092 A 
ATOM     15  C   LIG    1      181.595 183.433 171.155  0.00  0.00    +0.135 A 
ATOM     16  C   LIG    1      180.853 182.274 171.390  0.00  0.00    +0.105 A 
ATOM     17  C   LIG    1      179.543 182.076 170.753  0.00  0.00    +0.197 A 
ATOM     18  C   LIG    1      178.845 180.814 171.074  0.00  0.00    +0.098 A 
ATOM     19  C   LIG    1      179.422 179.937 171.910  0.00  0.00    +0.139 A 
ATOM     30  O   LIG    1      180.661 180.123 172.504  0.00  0.00    -0.454 OA
ATOM     31  O   LIG    1      179.051 182.903 169.998  0.00  0.00    -0.287 OA
ATOM     32  C   LIG    1      181.347 181.281 172.237  0.00  0.00    +0.146 A 
ATOM     35  C   LIG    1      182.587 181.444 172.852  0.00  0.00    +0.093 A 
ENDROOT
BRANCH  19  20
ATOM     20  C   LIG    1      178.775 178.656 172.261  0.00  0.00    +0.021 A 
ATOM     21  C   LIG    1      177.427 178.627 172.622  0.00  0.00    +0.015 A 
ATOM     22  C   LIG    1      176.817 177.418 172.954  0.00  0.00    +0.050 A 
ATOM     23  C   LIG    1      177.553 176.233 172.925  0.00  0.00    +0.158 A 
ATOM     24  C   LIG    1      178.901 176.260 172.566  0.00  0.00    +0.159 A 
ATOM     29  C   LIG    1      179.511 177.469 172.233  0.00  0.00    +0.060 A 
BRANCH  24  25
ATOM     25  O   LIG    1      179.629 175.108 172.533  0.00  0.00    -0.503 OA
ATOM     26  H   LIG    1      179.127 174.443 172.033  0.00  0.00    +0.292 HD
ENDBRANCH  24  25
BRANCH  23  27
ATOM     27  O   LIG    1      176.946 175.059 173.253  0.00  0.00    -0.503 OA
ATOM     28  H   LIG    1      176.894 174.988 174.222  0.00  0.00    +0.292 HD
ENDBRANCH  23  27
ENDBRANCH  19  20
BRANCH  15  33
ATOM     33  O   LIG    1      181.157 184.430 170.337  0.00  0.00    -0.506 OA
ATOM     34  H   LIG    1      180.940 184.081 169.460  0.00  0.00    +0.292 HD
ENDBRANCH  15  33
BRANCH  13  12
ATOM     12  O   LIG    1      184.545 182.762 173.220  0.00  0.00    -0.461 OA
BRANCH  12   2
ATOM      1  O   LIG    1      185.962 184.492 172.552  0.00  0.00    -0.331 OA
ATOM      2  C   LIG    1      184.954 184.104 173.483  0.00  0.00    +0.339 C 
ATOM      3  C   LIG    1      185.495 184.158 174.912  0.00  0.00    +0.214 C 
ATOM      4  C   LIG    1      186.095 185.529 175.227  0.00  0.00    +0.180 C 
ATOM      5  C   LIG    1      187.051 185.982 174.123  0.00  0.00    +0.177 C 
ATOM     36  C   LIG    1      186.398 185.839 172.747  0.00  0.00    +0.179 C 
BRANCH   5   6
ATOM      6  O   LIG    1      187.406 187.346 174.337  0.00  0.00    -0.386 OA
ATOM      7  H   LIG    1      188.350 187.446 174.127  0.00  0.00    +0.210 HD
ENDBRANCH   5   6
BRANCH   4   8
ATOM      8  O   LIG    1      186.833 185.456 176.448  0.00  0.00    -0.386 OA
ATOM      9  H   LIG    1      187.037 184.518 176.609  0.00  0.00    +0.210 HD
ENDBRANCH   4   8
BRANCH   3  10
ATOM     10  O   LIG    1      184.417 183.896 175.809  0.00  0.00    -0.383 OA
ATOM     11  H   LIG    1      183.778 183.322 175.353  0.00  0.00    +0.210 HD
ENDBRANCH   3  10
BRANCH  36  37
ATOM     37  C   LIG    1      187.373 186.173 171.622  0.00  0.00    +0.190 C 
BRANCH  37  38
ATOM     38  O   LIG    1      187.560 187.576 171.590  0.00  0.00    -0.392 OA
ATOM     39  H   LIG    1      188.378 187.777 172.077  0.00  0.00    +0.210 HD
ENDBRANCH  37  38
ENDBRANCH  36  37
ENDBRANCH  12   2
ENDBRANCH  13  12
TORSDOF 11
ENDMDL
MODEL 6
REMARK VINA RESULT:      -7.9      5.774     10.205
REMARK  Name = 5280637
REMARK                            x       y       z     vdW  Elec       q    Type
REMARK                         _______ _______ _______ _____ _____    ______ ____
ROOT
ATOM     13  C   LIG    1      187.019 186.352 170.475  0.00  0.00    +0.131 A 
ATOM     14  C   LIG    1      188.170 185.611 170.208  0.00  0.00    +0.092 A 
ATOM     15  C   LIG    1      188.678 185.548 168.910  0.00  0.00    +0.135 A 
ATOM     16  C   LIG    1      188.027 186.232 167.881  0.00  0.00    +0.105 A 
ATOM     17  C   LIG    1      188.538 186.183 166.503  0.00  0.00    +0.197 A 
ATOM     18  C   LIG    1      187.771 186.945 165.495  0.00  0.00    +0.098 A 
ATOM     19  C   LIG    1      186.680 187.627 165.877  0.00  0.00    +0.139 A 
ATOM     30  O   LIG    1      186.197 187.665 167.176  0.00  0.00    -0.454 OA
ATOM     31  O   LIG    1      189.539 185.550 166.199  0.00  0.00    -0.287 OA
ATOM     32  C   LIG    1      186.877 186.974 168.147  0.00  0.00    +0.146 A 
ATOM     35  C   LIG    1      186.371 187.035 169.445  0.00  0.00    +0.093 A 
ENDROOT
BRANCH  19  20
ATOM     20  C   LIG    1      185.870 188.400 164.913  0.00  0.00    +0.021 A 
ATOM     21  C   LIG    1      186.423 189.502 164.258  0.00  0.00    +0.015 A 
ATOM     22  C   LIG    1      185.657 190.232 163.348  0.00  0.00    +0.050 A 
ATOM     23  C   LIG    1      184.337 189.861 163.091  0.00  0.00    +0.158 A 
ATOM     24  C   LIG    1      183.783 188.760 163.745  0.00  0.00    +0.159 A 
ATOM     29  C   LIG    1      184.548 188.030 164.654  0.00  0.00    +0.060 A 
BRANCH  24  25
ATOM     25  O   LIG    1      182.495 188.388 163.499  0.00  0.00    -0.503 OA
ATOM     26  H   LIG    1      182.338 188.444 162.541  0.00  0.00    +0.292 HD
ENDBRANCH  24  25
BRANCH  23  27
ATOM     27  O   LIG    1      183.600 190.582 162.201  0.00  0.00    -0.503 OA
ATOM     28  H   LIG    1      184.158 191.284 161.823  0.00  0.00    +0.292 HD
ENDBRANCH  23  27
ENDBRANCH  19  20
BRANCH  15  33
ATOM     33  O   LIG    1      189.804 184.809 168.701  0.00  0.00    -0.506 OA
ATOM     34  H   LIG    1      190.011 184.764 167.755  0.00  0.00    +0.292 HD
ENDBRANCH  15  33
BRANCH  13  12
ATOM     12  O   LIG    1      186.526 186.410 171.745  0.00  0.00    -0.461 OA
BRANCH  12   2
ATOM      1  O   LIG    1      185.379 184.535 172.528  0.00  0.00    -0.331 OA
ATOM      2  C   LIG    1      186.629 185.219 172.525  0.00  0.00    +0.339 C 
ATOM      3  C   LIG    1      187.024 185.621 173.946  0.00  0.00    +0.214 C 
ATOM      4  C   LIG    1      187.011 184.417 174.889  0.00  0.00    +0.180 C 
ATOM      5  C   LIG    1      185.717 183.616 174.745  0.00  0.00    +0.177 C 
ATOM     36  C   LIG    1      185.423 183.317 173.274  0.00  0.00    +0.179 C 
BRANCH   5   6
ATOM      6  O   LIG    1      185.840 182.389 175.461  0.00  0.00    -0.386 OA
ATOM      7  H   LIG    1      184.983 181.932 175.421  0.00  0.00    +0.210 HD
ENDBRANCH   5   6
BRANCH   4   8
ATOM      8  O   LIG    1      187.104 184.870 176.240  0.00  0.00    -0.386 OA
ATOM      9  H   LIG    1      187.756 185.592 176.260  0.00  0.00    +0.210 HD
ENDBRANCH   4   8
BRANCH   3  10
ATOM     10  O   LIG    1      188.338 186.177 173.907  0.00  0.00    -0.383 OA
ATOM     11  H   LIG    1      188.965 185.455 173.730  0.00  0.00    +0.210 HD
ENDBRANCH   3  10
BRANCH  36  37
ATOM     37  C   LIG    1      184.077 182.621 173.097  0.00  0.00    +0.190 C 
BRANCH  37  38
ATOM     38  O   LIG    1      184.251 181.237 173.339  0.00  0.00    -0.392 OA
ATOM     39  H   LIG    1      185.189 181.025 173.187  0.00  0.00    +0.210 HD
ENDBRANCH  37  38
ENDBRANCH  36  37
ENDBRANCH  12   2
ENDBRANCH  13  12
TORSDOF 11
ENDMDL
MODEL 7
REMARK VINA RESULT:      -7.9      5.999     10.183
REMARK  Name = 5280637
REMARK                            x       y       z     vdW  Elec       q    Type
REMARK                         _______ _______ _______ _____ _____    ______ ____
ROOT
ATOM     13  C   LIG    1      187.086 185.244 170.356  0.00  0.00    +0.131 A 
ATOM     14  C   LIG    1      187.248 186.317 169.480  0.00  0.00    +0.092 A 
ATOM     15  C   LIG    1      188.049 186.182 168.346  0.00  0.00    +0.135 A 
ATOM     16  C   LIG    1      188.687 184.966 168.093  0.00  0.00    +0.105 A 
ATOM     17  C   LIG    1      189.538 184.793 166.907  0.00  0.00    +0.197 A 
ATOM     18  C   LIG    1      190.162 183.465 166.738  0.00  0.00    +0.098 A 
ATOM     19  C   LIG    1      189.925 182.507 167.648  0.00  0.00    +0.139 A 
ATOM     30  O   LIG    1      189.128 182.675 168.770  0.00  0.00    -0.454 OA
ATOM     31  O   LIG    1      189.726 185.694 166.101  0.00  0.00    -0.287 OA
ATOM     32  C   LIG    1      188.525 183.892 168.968  0.00  0.00    +0.146 A 
ATOM     35  C   LIG    1      187.725 184.029 170.101  0.00  0.00    +0.093 A 
ENDROOT
BRANCH  19  20
ATOM     20  C   LIG    1      190.528 181.163 167.536  0.00  0.00    +0.021 A 
ATOM     21  C   LIG    1      191.789 181.006 166.958  0.00  0.00    +0.015 A 
ATOM     22  C   LIG    1      192.357 179.737 166.851  0.00  0.00    +0.050 A 
ATOM     23  C   LIG    1      191.666 178.621 167.324  0.00  0.00    +0.158 A 
ATOM     24  C   LIG    1      190.406 178.775 167.901  0.00  0.00    +0.159 A 
ATOM     29  C   LIG    1      189.837 180.044 168.008  0.00  0.00    +0.060 A 
BRANCH  24  25
ATOM     25  O   LIG    1      189.723 177.691 168.368  0.00  0.00    -0.503 OA
ATOM     26  H   LIG    1      188.830 177.705 167.986  0.00  0.00    +0.292 HD
ENDBRANCH  24  25
BRANCH  23  27
ATOM     27  O   LIG    1      192.232 177.387 167.213  0.00  0.00    -0.503 OA
ATOM     28  H   LIG    1      193.152 177.430 167.525  0.00  0.00    +0.292 HD
ENDBRANCH  23  27
ENDBRANCH  19  20
BRANCH  15  33
ATOM     33  O   LIG    1      188.175 187.260 167.522  0.00  0.00    -0.506 OA
ATOM     34  H   LIG    1      188.989 187.748 167.722  0.00  0.00    +0.292 HD
ENDBRANCH  15  33
BRANCH  13  12
ATOM     12  O   LIG    1      186.303 185.381 171.464  0.00  0.00    -0.461 OA
BRANCH  12   2
ATOM      1  O   LIG    1      184.959 183.853 172.605  0.00  0.00    -0.331 OA
ATOM      2  C   LIG    1      186.297 184.288 172.381  0.00  0.00    +0.339 C 
ATOM      3  C   LIG    1      186.931 184.768 173.688  0.00  0.00    +0.214 C 
ATOM      4  C   LIG    1      186.829 183.702 174.779  0.00  0.00    +0.180 C 
ATOM      5  C   LIG    1      185.410 183.145 174.879  0.00  0.00    +0.177 C 
ATOM     36  C   LIG    1      184.886 182.740 173.499  0.00  0.00    +0.179 C 
BRANCH   5   6
ATOM      6  O   LIG    1      185.409 182.005 175.736  0.00  0.00    -0.386 OA
ATOM      7  H   LIG    1      185.469 182.321 176.654  0.00  0.00    +0.210 HD
ENDBRANCH   5   6
BRANCH   4   8
ATOM      8  O   LIG    1      187.168 184.280 176.041  0.00  0.00    -0.386 OA
ATOM      9  H   LIG    1      186.769 185.167 176.071  0.00  0.00    +0.210 HD
ENDBRANCH   4   8
BRANCH   3  10
ATOM     10  O   LIG    1      188.305 185.062 173.439  0.00  0.00    -0.383 OA
ATOM     11  H   LIG    1      188.630 184.437 172.768  0.00  0.00    +0.210 HD
ENDBRANCH   3  10
BRANCH  36  37
ATOM     37  C   LIG    1      183.430 182.291 173.557  0.00  0.00    +0.190 C 
BRANCH  37  38
ATOM     38  O   LIG    1      183.398 180.897 173.799  0.00  0.00    -0.392 OA
ATOM     39  H   LIG    1      184.255 180.643 174.182  0.00  0.00    +0.210 HD
ENDBRANCH  37  38
ENDBRANCH  36  37
ENDBRANCH  12   2
ENDBRANCH  13  12
TORSDOF 11
ENDMDL
MODEL 8
REMARK VINA RESULT:      -7.9      2.524      4.714
REMARK  Name = 5280637
REMARK                            x       y       z     vdW  Elec       q    Type
REMARK                         _______ _______ _______ _____ _____    ______ ____
ROOT
ATOM     13  C   LIG    1      183.556 182.631 173.638  0.00  0.00    +0.131 A 
ATOM     14  C   LIG    1      182.306 183.251 173.633  0.00  0.00    +0.092 A 
ATOM     15  C   LIG    1      181.177 182.550 173.210  0.00  0.00    +0.135 A 
ATOM     16  C   LIG    1      181.305 181.223 172.793  0.00  0.00    +0.105 A 
ATOM     17  C   LIG    1      180.134 180.458 172.341  0.00  0.00    +0.197 A 
ATOM     18  C   LIG    1      180.386 179.064 171.924  0.00  0.00    +0.098 A 
ATOM     19  C   LIG    1      181.635 178.576 171.980  0.00  0.00    +0.139 A 
ATOM     30  O   LIG    1      182.739 179.302 172.399  0.00  0.00    -0.454 OA
ATOM     31  O   LIG    1      179.011 180.942 172.308  0.00  0.00    -0.287 OA
ATOM     32  C   LIG    1      182.554 180.602 172.798  0.00  0.00    +0.146 A 
ATOM     35  C   LIG    1      183.681 181.305 173.220  0.00  0.00    +0.093 A 
ENDROOT
BRANCH  19  20
ATOM     20  C   LIG    1      181.948 177.192 171.568  0.00  0.00    +0.021 A 
ATOM     21  C   LIG    1      183.010 176.944 170.697  0.00  0.00    +0.015 A 
ATOM     22  C   LIG    1      183.305 175.637 170.307  0.00  0.00    +0.050 A 
ATOM     23  C   LIG    1      182.538 174.576 170.788  0.00  0.00    +0.158 A 
ATOM     24  C   LIG    1      181.476 174.822 171.658  0.00  0.00    +0.159 A 
ATOM     29  C   LIG    1      181.181 176.128 172.048  0.00  0.00    +0.060 A 
BRANCH  24  25
ATOM     25  O   LIG    1      180.721 173.792 172.135  0.00  0.00    -0.503 OA
ATOM     26  H   LIG    1      180.522 173.966 173.071  0.00  0.00    +0.292 HD
ENDBRANCH  24  25
BRANCH  23  27
ATOM     27  O   LIG    1      182.835 173.305 170.399  0.00  0.00    -0.503 OA
ATOM     28  H   LIG    1      182.195 173.022 169.724  0.00  0.00    +0.292 HD
ENDBRANCH  23  27
ENDBRANCH  19  20
BRANCH  15  33
ATOM     33  O   LIG    1      179.980 183.201 173.223  0.00  0.00    -0.506 OA
ATOM     34  H   LIG    1      179.378 182.821 172.565  0.00  0.00    +0.292 HD
ENDBRANCH  15  33
BRANCH  13  12
ATOM     12  O   LIG    1      184.657 183.321 174.051  0.00  0.00    -0.461 OA
BRANCH  12   2
ATOM      1  O   LIG    1      185.852 184.098 172.205  0.00  0.00    -0.331 OA
ATOM      2  C   LIG    1      185.010 184.476 173.290  0.00  0.00    +0.339 C 
ATOM      3  C   LIG    1      185.736 185.448 174.220  0.00  0.00    +0.214 C 
ATOM      4  C   LIG    1      186.284 186.650 173.450  0.00  0.00    +0.180 C 
ATOM      5  C   LIG    1      187.047 186.207 172.202  0.00  0.00    +0.177 C 
ATOM     36  C   LIG    1      186.222 185.209 171.386  0.00  0.00    +0.179 C 
BRANCH   5   6
ATOM      6  O   LIG    1      187.338 187.347 171.398  0.00  0.00    -0.386 OA
ATOM      7  H   LIG    1      186.505 187.823 171.239  0.00  0.00    +0.210 HD
ENDBRANCH   5   6
BRANCH   4   8
ATOM      8  O   LIG    1      187.185 187.379 174.285  0.00  0.00    -0.386 OA
ATOM      9  H   LIG    1      186.896 187.251 175.205  0.00  0.00    +0.210 HD
ENDBRANCH   4   8
BRANCH   3  10
ATOM     10  O   LIG    1      184.811 185.900 175.208  0.00  0.00    -0.383 OA
ATOM     11  H   LIG    1      184.586 186.825 175.010  0.00  0.00    +0.210 HD
ENDBRANCH   3  10
BRANCH  36  37
ATOM     37  C   LIG    1      187.009 184.664 170.198  0.00  0.00    +0.190 C 
BRANCH  37  38
ATOM     38  O   LIG    1      188.355 184.478 170.597  0.00  0.00    -0.392 OA
ATOM     39  H   LIG    1      188.500 183.523 170.714  0.00  0.00    +0.210 HD
ENDBRANCH  37  38
ENDBRANCH  36  37
ENDBRANCH  12   2
ENDBRANCH  13  12
TORSDOF 11
ENDMDL
MODEL 9
REMARK VINA RESULT:      -7.7      2.492     10.013
REMARK  Name = 5280637
REMARK                            x       y       z     vdW  Elec       q    Type
REMARK                         _______ _______ _______ _____ _____    ______ ____
ROOT
ATOM     13  C   LIG    1      181.246 179.776 172.496  0.00  0.00    +0.131 A 
ATOM     14  C   LIG    1      180.095 180.224 171.849  0.00  0.00    +0.092 A 
ATOM     15  C   LIG    1      179.939 181.579 171.555  0.00  0.00    +0.135 A 
ATOM     16  C   LIG    1      180.943 182.482 171.911  0.00  0.00    +0.105 A 
ATOM     17  C   LIG    1      180.806 183.916 171.615  0.00  0.00    +0.197 A 
ATOM     18  C   LIG    1      181.929 184.779 172.036  0.00  0.00    +0.098 A 
ATOM     19  C   LIG    1      182.990 184.228 172.647  0.00  0.00    +0.139 A 
ATOM     30  O   LIG    1      183.112 182.876 172.932  0.00  0.00    -0.454 OA
ATOM     31  O   LIG    1      179.822 184.377 171.054  0.00  0.00    -0.287 OA
ATOM     32  C   LIG    1      182.095 182.035 172.558  0.00  0.00    +0.146 A 
ATOM     35  C   LIG    1      182.248 180.681 172.852  0.00  0.00    +0.093 A 
ENDROOT
BRANCH  19  20
ATOM     20  C   LIG    1      184.137 185.042 173.097  0.00  0.00    +0.021 A 
ATOM     21  C   LIG    1      184.544 186.152 172.354  0.00  0.00    +0.015 A 
ATOM     22  C   LIG    1      185.628 186.920 172.778  0.00  0.00    +0.050 A 
ATOM     23  C   LIG    1      186.308 186.580 173.948  0.00  0.00    +0.158 A 
ATOM     24  C   LIG    1      185.905 185.471 174.691  0.00  0.00    +0.159 A 
ATOM     29  C   LIG    1      184.821 184.703 174.267  0.00  0.00    +0.060 A 
BRANCH  24  25
ATOM     25  O   LIG    1      186.562 185.131 175.836  0.00  0.00    -0.503 OA
ATOM     26  H   LIG    1      185.912 184.783 176.470  0.00  0.00    +0.292 HD
ENDBRANCH  24  25
BRANCH  23  27
ATOM     27  O   LIG    1      187.366 187.337 174.351  0.00  0.00    -0.503 OA
ATOM     28  H   LIG    1      188.001 186.770 174.821  0.00  0.00    +0.292 HD
ENDBRANCH  23  27
ENDBRANCH  19  20
BRANCH  15  33
ATOM     33  O   LIG    1      178.796 181.967 170.922  0.00  0.00    -0.506 OA
ATOM     34  H   LIG    1      178.020 181.760 171.465  0.00  0.00    +0.292 HD
ENDBRANCH  15  33
BRANCH  13  12
ATOM     12  O   LIG    1      181.394 178.450 172.783  0.00  0.00    -0.461 OA
BRANCH  12   2
ATOM      1  O   LIG    1      180.094 176.824 171.729  0.00  0.00    -0.331 OA
ATOM      2  C   LIG    1      181.322 177.547 171.681  0.00  0.00    +0.339 C 
ATOM      3  C   LIG    1      182.511 176.592 171.778  0.00  0.00    +0.214 C 
ATOM      4  C   LIG    1      182.429 175.493 170.718  0.00  0.00    +0.180 C 
ATOM      5  C   LIG    1      181.043 174.849 170.693  0.00  0.00    +0.177 C 
ATOM     36  C   LIG    1      179.949 175.917 170.635  0.00  0.00    +0.179 C 
BRANCH   5   6
ATOM      6  O   LIG    1      180.936 174.002 169.552  0.00  0.00    -0.386 OA
ATOM      7  H   LIG    1      181.777 174.046 169.066  0.00  0.00    +0.210 HD
ENDBRANCH   5   6
BRANCH   4   8
ATOM      8  O   LIG    1      183.386 174.474 171.014  0.00  0.00    -0.386 OA
ATOM      9  H   LIG    1      184.255 174.903 171.086  0.00  0.00    +0.210 HD
ENDBRANCH   4   8
BRANCH   3  10
ATOM     10  O   LIG    1      183.708 177.345 171.587  0.00  0.00    -0.383 OA
ATOM     11  H   LIG    1      184.452 176.822 171.933  0.00  0.00    +0.210 HD
ENDBRANCH   3  10
BRANCH  36  37
ATOM     37  C   LIG    1      178.555 175.304 170.728  0.00  0.00    +0.190 C 
BRANCH  37  38
ATOM     38  O   LIG    1      178.208 174.781 169.459  0.00  0.00    -0.392 OA
ATOM     39  H   LIG    1      178.196 175.521 168.828  0.00  0.00    +0.210 HD
ENDBRANCH  37  38
ENDBRANCH  36  37
ENDBRANCH  12   2
ENDBRANCH  13  12
TORSDOF 11
ENDMDL
MODEL 10
REMARK VINA RESULT:      -7.7      2.970     10.040
REMARK  Name = 5280637
REMARK                            x       y       z     vdW  Elec       q    Type
REMARK                         _______ _______ _______ _____ _____    ______ ____
ROOT
ATOM     13  C   LIG    1      182.611 178.825 172.081  0.00  0.00    +0.131 A 
ATOM     14  C   LIG    1      181.238 179.048 172.175  0.00  0.00    +0.092 A 
ATOM     15  C   LIG    1      180.754 180.313 172.511  0.00  0.00    +0.135 A 
ATOM     16  C   LIG    1      181.654 181.353 172.752  0.00  0.00    +0.105 A 
ATOM     17  C   LIG    1      181.175 182.697 173.110  0.00  0.00    +0.197 A 
ATOM     18  C   LIG    1      182.214 183.721 173.341  0.00  0.00    +0.098 A 
ATOM     19  C   LIG    1      183.507 183.385 173.214  0.00  0.00    +0.139 A 
ATOM     30  O   LIG    1      183.957 182.116 172.884  0.00  0.00    -0.454 OA
ATOM     31  O   LIG    1      179.985 182.960 173.214  0.00  0.00    -0.287 OA
ATOM     32  C   LIG    1      183.028 181.132 172.658  0.00  0.00    +0.146 A 
ATOM     35  C   LIG    1      183.509 179.867 172.322  0.00  0.00    +0.093 A 
ENDROOT
BRANCH  19  20
ATOM     20  C   LIG    1      184.590 184.365 173.441  0.00  0.00    +0.021 A 
ATOM     21  C   LIG    1      184.303 185.731 173.475  0.00  0.00    +0.015 A 
ATOM     22  C   LIG    1      185.326 186.656 173.688  0.00  0.00    +0.050 A 
ATOM     23  C   LIG    1      186.638 186.216 173.869  0.00  0.00    +0.158 A 
ATOM     24  C   LIG    1      186.927 184.852 173.834  0.00  0.00    +0.159 A 
ATOM     29  C   LIG    1      185.904 183.927 173.621  0.00  0.00    +0.060 A 
BRANCH  24  25
ATOM     25  O   LIG    1      188.204 184.412 174.011  0.00  0.00    -0.503 OA
ATOM     26  H   LIG    1      188.557 184.815 174.822  0.00  0.00    +0.292 HD
ENDBRANCH  24  25
BRANCH  23  27
ATOM     27  O   LIG    1      187.627 187.129 174.075  0.00  0.00    -0.503 OA
ATOM     28  H   LIG    1      188.050 187.336 173.224  0.00  0.00    +0.292 HD
ENDBRANCH  23  27
ENDBRANCH  19  20
BRANCH  15  33
ATOM     33  O   LIG    1      179.404 180.479 172.591  0.00  0.00    -0.506 OA
ATOM     34  H   LIG    1      178.960 180.014 171.867  0.00  0.00    +0.292 HD
ENDBRANCH  15  33
BRANCH  13  12
ATOM     12  O   LIG    1      183.079 177.587 171.752  0.00  0.00    -0.461 OA
BRANCH  12   2
ATOM      1  O   LIG    1      181.551 176.123 172.734  0.00  0.00    -0.331 OA
ATOM      2  C   LIG    1      182.100 176.581 171.500  0.00  0.00    +0.339 C 
ATOM      3  C   LIG    1      182.786 175.432 170.760  0.00  0.00    +0.214 C 
ATOM      4  C   LIG    1      181.841 174.243 170.582  0.00  0.00    +0.180 C 
ATOM      5  C   LIG    1      181.149 173.884 171.897  0.00  0.00    +0.177 C 
ATOM     36  C   LIG    1      180.542 175.128 172.549  0.00  0.00    +0.179 C 
BRANCH   5   6
ATOM      6  O   LIG    1      180.117 172.934 171.643  0.00  0.00    -0.386 OA
ATOM      7  H   LIG    1      179.912 172.961 170.693  0.00  0.00    +0.210 HD
ENDBRANCH   5   6
BRANCH   4   8
ATOM      8  O   LIG    1      182.587 173.104 170.149  0.00  0.00    -0.386 OA
ATOM      9  H   LIG    1      182.249 172.333 170.637  0.00  0.00    +0.210 HD
ENDBRANCH   4   8
BRANCH   3  10
ATOM     10  O   LIG    1      183.196 175.907 169.478  0.00  0.00    -0.383 OA
ATOM     11  H   LIG    1      182.409 176.244 169.016  0.00  0.00    +0.210 HD
ENDBRANCH   3  10
BRANCH  36  37
ATOM     37  C   LIG    1      179.948 174.815 173.918  0.00  0.00    +0.190 C 
BRANCH  37  38
ATOM     38  O   LIG    1      180.267 175.876 174.801  0.00  0.00    -0.392 OA
ATOM     39  H   LIG    1      181.224 175.841 174.971  0.00  0.00    +0.210 HD
ENDBRANCH  37  38
ENDBRANCH  36  37
ENDBRANCH  12   2
ENDBRANCH  13  12
TORSDOF 11
ENDMDL
