MODEL 1
REMARK VINA RESULT:      -7.8      0.000      0.000
REMARK  Name = 9823887
REMARK                            x       y       z     vdW  Elec       q    Type
REMARK                         _______ _______ _______ _____ _____    ______ ____
ROOT
ATOM      1  O   LIG    1       17.907  68.282  10.057  0.00  0.00    -0.341 OA
ATOM      2  C   LIG    1       18.973  68.439  10.990  0.00  0.00    +0.282 C 
ATOM      3  C   LIG    1       18.599  69.463  12.062  0.00  0.00    +0.201 C 
ATOM      4  C   LIG    1       17.272  69.109  12.732  0.00  0.00    +0.179 C 
ATOM      5  C   LIG    1       16.195  68.791  11.696  0.00  0.00    +0.177 C 
ATOM     22  C   LIG    1       16.714  67.785  10.665  0.00  0.00    +0.178 C 
ENDROOT
BRANCH   5   6
ATOM      6  O   LIG    1       15.053  68.247  12.353  0.00  0.00    -0.386 OA
ATOM      7  H   LIG    1       14.892  68.771  13.156  0.00  0.00    +0.210 HD
ENDBRANCH   5   6
BRANCH   4   8
ATOM      8  O   LIG    1       16.821  70.218  13.512  0.00  0.00    -0.386 OA
ATOM      9  H   LIG    1       17.213  71.021  13.128  0.00  0.00    +0.210 HD
ENDBRANCH   4   8
BRANCH   3  10
ATOM     10  O   LIG    1       19.636  69.483  13.043  0.00  0.00    -0.384 OA
ATOM     11  H   LIG    1       19.577  70.324  13.526  0.00  0.00    +0.210 HD
ENDBRANCH   3  10
BRANCH   2  12
ATOM     12  O   LIG    1       20.138  68.911  10.317  0.00  0.00    -0.345 OA
BRANCH  12  13
ATOM     13  C   LIG    1       21.102  67.881  10.169  0.00  0.00    +0.190 C 
BRANCH  13  14
ATOM     14  C   LIG    1       22.248  68.157  11.089  0.00  0.00    +0.001 C 
ATOM     15  C   LIG    1       23.226  67.272  11.334  0.00  0.00    +0.006 C 
BRANCH  15  16
ATOM     16  C   LIG    1       24.380  67.506  12.219  0.00  0.00    -0.025 A 
ATOM     17  C   LIG    1       24.686  66.571  13.196  0.00  0.00    +0.008 A 
ATOM     18  C   LIG    1       25.779  66.793  14.034  0.00  0.00    +0.001 A 
ATOM     19  C   LIG    1       26.550  67.945  13.886  0.00  0.00    +0.000 A 
ATOM     20  C   LIG    1       26.230  68.877  12.899  0.00  0.00    +0.001 A 
ATOM     21  C   LIG    1       25.137  68.655  12.060  0.00  0.00    +0.008 A 
ENDBRANCH  15  16
ENDBRANCH  13  14
ENDBRANCH  12  13
ENDBRANCH   2  12
BRANCH  22  23
ATOM     23  C   LIG    1       15.697  67.541   9.553  0.00  0.00    +0.197 C 
BRANCH  23  24
ATOM     24  O   LIG    1       14.849  68.671   9.462  0.00  0.00    -0.346 OA
BRANCH  24  25
ATOM     25  C   LIG    1       14.855  69.231   8.153  0.00  0.00    +0.281 C 
ATOM     26  C   LIG    1       13.692  68.653   7.332  0.00  0.00    +0.201 C 
ATOM     27  C   LIG    1       12.340  69.235   7.757  0.00  0.00    +0.178 C 
ATOM     28  C   LIG    1       12.423  70.761   7.826  0.00  0.00    +0.171 C 
ATOM     29  C   LIG    1       13.600  71.197   8.689  0.00  0.00    +0.197 C 
ATOM     36  O   LIG    1       14.820  70.662   8.181  0.00  0.00    -0.346 OA
BRANCH  28  30
ATOM     30  O   LIG    1       11.208  71.287   8.343  0.00  0.00    -0.387 OA
ATOM     31  H   LIG    1       11.135  71.002   9.270  0.00  0.00    +0.210 HD
ENDBRANCH  28  30
BRANCH  27  32
ATOM     32  O   LIG    1       11.983  68.725   9.041  0.00  0.00    -0.386 OA
ATOM     33  H   LIG    1       12.800  68.646   9.562  0.00  0.00    +0.210 HD
ENDBRANCH  27  32
BRANCH  26  34
ATOM     34  O   LIG    1       13.927  68.959   5.959  0.00  0.00    -0.384 OA
ATOM     35  H   LIG    1       13.339  68.409   5.416  0.00  0.00    +0.210 HD
ENDBRANCH  26  34
ENDBRANCH  24  25
ENDBRANCH  23  24
ENDBRANCH  22  23
TORSDOF 13
ENDMDL
MODEL 2
REMARK VINA RESULT:      -7.7     28.311     30.883
REMARK  Name = 9823887
REMARK                            x       y       z     vdW  Elec       q    Type
REMARK                         _______ _______ _______ _____ _____    ______ ____
ROOT
ATOM      1  O   LIG    1        7.130  44.331  21.444  0.00  0.00    -0.341 OA
ATOM      2  C   LIG    1        6.148  44.453  20.418  0.00  0.00    +0.282 C 
ATOM      3  C   LIG    1        6.133  45.875  19.857  0.00  0.00    +0.201 C 
ATOM      4  C   LIG    1        7.525  46.307  19.397  0.00  0.00    +0.179 C 
ATOM      5  C   LIG    1        8.577  46.013  20.466  0.00  0.00    +0.177 C 
ATOM     22  C   LIG    1        8.455  44.571  20.966  0.00  0.00    +0.178 C 
ENDROOT
BRANCH   5   6
ATOM      6  O   LIG    1        9.877  46.214  19.917  0.00  0.00    -0.386 OA
ATOM      7  H   LIG    1        9.866  47.049  19.418  0.00  0.00    +0.210 HD
ENDBRANCH   5   6
BRANCH   4   8
ATOM      8  O   LIG    1        7.529  47.714  19.150  0.00  0.00    -0.386 OA
ATOM      9  H   LIG    1        8.437  48.032  19.288  0.00  0.00    +0.210 HD
ENDBRANCH   4   8
BRANCH   3  10
ATOM     10  O   LIG    1        5.236  45.909  18.747  0.00  0.00    -0.384 OA
ATOM     11  H   LIG    1        5.764  45.900  17.932  0.00  0.00    +0.210 HD
ENDBRANCH   3  10
BRANCH   2  12
ATOM     12  O   LIG    1        4.855  44.177  20.953  0.00  0.00    -0.345 OA
BRANCH  12  13
ATOM     13  C   LIG    1        4.633  44.886  22.161  0.00  0.00    +0.190 C 
BRANCH  13  14
ATOM     14  C   LIG    1        4.093  43.939  23.184  0.00  0.00    +0.001 C 
ATOM     15  C   LIG    1        3.460  42.798  22.870  0.00  0.00    +0.006 C 
BRANCH  15  16
ATOM     16  C   LIG    1        2.924  41.829  23.841  0.00  0.00    -0.025 A 
ATOM     17  C   LIG    1        2.094  40.811  23.399  0.00  0.00    +0.008 A 
ATOM     18  C   LIG    1        1.588  39.894  24.319  0.00  0.00    +0.001 A 
ATOM     19  C   LIG    1        1.917  40.006  25.670  0.00  0.00    +0.000 A 
ATOM     20  C   LIG    1        2.754  41.035  26.101  0.00  0.00    +0.001 A 
ATOM     21  C   LIG    1        3.260  41.953  25.180  0.00  0.00    +0.008 A 
ENDBRANCH  15  16
ENDBRANCH  13  14
ENDBRANCH  12  13
ENDBRANCH   2  12
BRANCH  22  23
ATOM     23  C   LIG    1        9.418  44.289  22.115  0.00  0.00    +0.197 C 
BRANCH  23  24
ATOM     24  O   LIG    1       10.725  44.159  21.587  0.00  0.00    -0.346 OA
BRANCH  24  25
ATOM     25  C   LIG    1       11.386  43.004  22.090  0.00  0.00    +0.281 C 
ATOM     26  C   LIG    1       11.435  41.915  21.006  0.00  0.00    +0.201 C 
ATOM     27  C   LIG    1       12.461  42.234  19.914  0.00  0.00    +0.178 C 
ATOM     28  C   LIG    1       13.801  42.614  20.546  0.00  0.00    +0.171 C 
ATOM     29  C   LIG    1       13.614  43.717  21.581  0.00  0.00    +0.197 C 
ATOM     36  O   LIG    1       12.693  43.308  22.590  0.00  0.00    -0.346 OA
BRANCH  28  30
ATOM     30  O   LIG    1       14.710  43.031  19.537  0.00  0.00    -0.387 OA
ATOM     31  H   LIG    1       14.785  42.307  18.892  0.00  0.00    +0.210 HD
ENDBRANCH  28  30
BRANCH  27  32
ATOM     32  O   LIG    1       11.990  43.321  19.119  0.00  0.00    -0.386 OA
ATOM     33  H   LIG    1       11.653  42.949  18.286  0.00  0.00    +0.210 HD
ENDBRANCH  27  32
BRANCH  26  34
ATOM     34  O   LIG    1       11.780  40.683  21.634  0.00  0.00    -0.384 OA
ATOM     35  H   LIG    1       11.200  39.986  21.285  0.00  0.00    +0.210 HD
ENDBRANCH  26  34
ENDBRANCH  24  25
ENDBRANCH  23  24
ENDBRANCH  22  23
TORSDOF 13
ENDMDL
MODEL 3
REMARK VINA RESULT:      -7.7     27.870     29.417
REMARK  Name = 9823887
REMARK                            x       y       z     vdW  Elec       q    Type
REMARK                         _______ _______ _______ _____ _____    ______ ____
ROOT
ATOM      1  O   LIG    1        7.988  43.761  19.819  0.00  0.00    -0.341 OA
ATOM      2  C   LIG    1        8.771  44.679  20.580  0.00  0.00    +0.282 C 
ATOM      3  C   LIG    1        8.797  46.050  19.903  0.00  0.00    +0.201 C 
ATOM      4  C   LIG    1        7.384  46.563  19.629  0.00  0.00    +0.179 C 
ATOM      5  C   LIG    1        6.527  45.492  18.955  0.00  0.00    +0.177 C 
ATOM     22  C   LIG    1        6.622  44.164  19.711  0.00  0.00    +0.178 C 
ENDROOT
BRANCH   5   6
ATOM      6  O   LIG    1        5.169  45.923  18.927  0.00  0.00    -0.386 OA
ATOM      7  H   LIG    1        4.715  45.534  19.695  0.00  0.00    +0.210 HD
ENDBRANCH   5   6
BRANCH   4   8
ATOM      8  O   LIG    1        7.449  47.691  18.755  0.00  0.00    -0.386 OA
ATOM      9  H   LIG    1        6.581  47.776  18.325  0.00  0.00    +0.210 HD
ENDBRANCH   4   8
BRANCH   3  10
ATOM     10  O   LIG    1        9.474  46.962  20.767  0.00  0.00    -0.384 OA
ATOM     11  H   LIG    1       10.427  46.898  20.586  0.00  0.00    +0.210 HD
ENDBRANCH   3  10
BRANCH   2  12
ATOM     12  O   LIG    1       10.113  44.206  20.672  0.00  0.00    -0.345 OA
BRANCH  12  13
ATOM     13  C   LIG    1       10.471  43.440  19.532  0.00  0.00    +0.190 C 
BRANCH  13  14
ATOM     14  C   LIG    1       11.652  42.591  19.874  0.00  0.00    +0.001 C 
ATOM     15  C   LIG    1       12.526  42.900  20.845  0.00  0.00    +0.006 C 
BRANCH  15  16
ATOM     16  C   LIG    1       13.694  42.087  21.226  0.00  0.00    -0.025 A 
ATOM     17  C   LIG    1       14.920  42.340  20.632  0.00  0.00    +0.008 A 
ATOM     18  C   LIG    1       16.026  41.571  20.994  0.00  0.00    +0.001 A 
ATOM     19  C   LIG    1       15.891  40.558  21.943  0.00  0.00    +0.000 A 
ATOM     20  C   LIG    1       14.651  40.315  22.533  0.00  0.00    +0.001 A 
ATOM     21  C   LIG    1       13.545  41.085  22.171  0.00  0.00    +0.008 A 
ENDBRANCH  15  16
ENDBRANCH  13  14
ENDBRANCH  12  13
ENDBRANCH   2  12
BRANCH  22  23
ATOM     23  C   LIG    1        5.868  43.049  18.992  0.00  0.00    +0.197 C 
BRANCH  23  24
ATOM     24  O   LIG    1        4.619  42.864  19.633  0.00  0.00    -0.346 OA
BRANCH  24  25
ATOM     25  C   LIG    1        4.695  43.142  21.028  0.00  0.00    +0.281 C 
ATOM     26  C   LIG    1        3.403  43.830  21.495  0.00  0.00    +0.201 C 
ATOM     27  C   LIG    1        2.227  42.851  21.582  0.00  0.00    +0.178 C 
ATOM     28  C   LIG    1        2.641  41.599  22.357  0.00  0.00    +0.171 C 
ATOM     29  C   LIG    1        3.918  41.005  21.776  0.00  0.00    +0.197 C 
ATOM     36  O   LIG    1        4.972  41.965  21.795  0.00  0.00    -0.346 OA
BRANCH  28  30
ATOM     30  O   LIG    1        1.590  40.642  22.325  0.00  0.00    -0.387 OA
ATOM     31  H   LIG    1        1.997  39.759  22.303  0.00  0.00    +0.210 HD
ENDBRANCH  28  30
BRANCH  27  32
ATOM     32  O   LIG    1        1.818  42.477  20.267  0.00  0.00    -0.386 OA
ATOM     33  H   LIG    1        2.065  41.545  20.137  0.00  0.00    +0.210 HD
ENDBRANCH  27  32
BRANCH  26  34
ATOM     34  O   LIG    1        3.644  44.393  22.782  0.00  0.00    -0.384 OA
ATOM     35  H   LIG    1        3.427  43.727  23.455  0.00  0.00    +0.210 HD
ENDBRANCH  26  34
ENDBRANCH  24  25
ENDBRANCH  23  24
ENDBRANCH  22  23
TORSDOF 13
ENDMDL
MODEL 4
REMARK VINA RESULT:      -7.7     28.318     30.967
REMARK  Name = 9823887
REMARK                            x       y       z     vdW  Elec       q    Type
REMARK                         _______ _______ _______ _____ _____    ______ ____
ROOT
ATOM      1  O   LIG    1        6.954  44.074  21.152  0.00  0.00    -0.341 OA
ATOM      2  C   LIG    1        6.630  43.839  19.784  0.00  0.00    +0.282 C 
ATOM      3  C   LIG    1        6.469  45.163  19.037  0.00  0.00    +0.201 C 
ATOM      4  C   LIG    1        7.698  46.053  19.209  0.00  0.00    +0.179 C 
ATOM      5  C   LIG    1        8.109  46.152  20.677  0.00  0.00    +0.177 C 
ATOM     22  C   LIG    1        8.196  44.761  21.312  0.00  0.00    +0.178 C 
ENDROOT
BRANCH   5   6
ATOM      6  O   LIG    1        9.379  46.793  20.771  0.00  0.00    -0.386 OA
ATOM      7  H   LIG    1       10.003  46.305  20.206  0.00  0.00    +0.210 HD
ENDBRANCH   5   6
BRANCH   4   8
ATOM      8  O   LIG    1        7.400  47.371  18.745  0.00  0.00    -0.386 OA
ATOM      9  H   LIG    1        7.059  47.290  17.838  0.00  0.00    +0.210 HD
ENDBRANCH   4   8
BRANCH   3  10
ATOM     10  O   LIG    1        6.282  44.874  17.651  0.00  0.00    -0.384 OA
ATOM     11  H   LIG    1        6.423  45.695  17.151  0.00  0.00    +0.210 HD
ENDBRANCH   3  10
BRANCH   2  12
ATOM     12  O   LIG    1        5.397  43.129  19.696  0.00  0.00    -0.345 OA
BRANCH  12  13
ATOM     13  C   LIG    1        4.397  43.728  20.505  0.00  0.00    +0.190 C 
BRANCH  13  14
ATOM     14  C   LIG    1        3.829  42.689  21.418  0.00  0.00    +0.001 C 
ATOM     15  C   LIG    1        3.545  42.919  22.709  0.00  0.00    +0.006 C 
BRANCH  15  16
ATOM     16  C   LIG    1        2.972  41.932  23.641  0.00  0.00    -0.025 A 
ATOM     17  C   LIG    1        3.275  42.017  24.990  0.00  0.00    +0.008 A 
ATOM     18  C   LIG    1        2.733  41.082  25.872  0.00  0.00    +0.001 A 
ATOM     19  C   LIG    1        1.895  40.075  25.393  0.00  0.00    +0.000 A 
ATOM     20  C   LIG    1        1.599  40.002  24.033  0.00  0.00    +0.001 A 
ATOM     21  C   LIG    1        2.142  40.937  23.150  0.00  0.00    +0.008 A 
ENDBRANCH  15  16
ENDBRANCH  13  14
ENDBRANCH  12  13
ENDBRANCH   2  12
BRANCH  22  23
ATOM     23  C   LIG    1        8.491  44.839  22.807  0.00  0.00    +0.197 C 
BRANCH  23  24
ATOM     24  O   LIG    1        9.826  45.280  22.980  0.00  0.00    -0.346 OA
BRANCH  24  25
ATOM     25  C   LIG    1       10.757  44.214  22.833  0.00  0.00    +0.281 C 
ATOM     26  C   LIG    1       12.191  44.751  22.958  0.00  0.00    +0.201 C 
ATOM     27  C   LIG    1       12.554  45.093  24.407  0.00  0.00    +0.178 C 
ATOM     28  C   LIG    1       12.189  43.929  25.330  0.00  0.00    +0.171 C 
ATOM     29  C   LIG    1       10.739  43.513  25.122  0.00  0.00    +0.197 C 
ATOM     36  O   LIG    1       10.510  43.152  23.762  0.00  0.00    -0.346 OA
BRANCH  28  30
ATOM     30  O   LIG    1       12.409  44.299  26.684  0.00  0.00    -0.387 OA
ATOM     31  H   LIG    1       13.361  44.471  26.790  0.00  0.00    +0.210 HD
ENDBRANCH  28  30
BRANCH  27  32
ATOM     32  O   LIG    1       11.842  46.259  24.816  0.00  0.00    -0.386 OA
ATOM     33  H   LIG    1       11.595  46.140  25.749  0.00  0.00    +0.210 HD
ENDBRANCH  27  32
BRANCH  26  34
ATOM     34  O   LIG    1       13.081  43.750  22.472  0.00  0.00    -0.384 OA
ATOM     35  H   LIG    1       13.991  44.012  22.693  0.00  0.00    +0.210 HD
ENDBRANCH  26  34
ENDBRANCH  24  25
ENDBRANCH  23  24
ENDBRANCH  22  23
TORSDOF 13
ENDMDL
MODEL 5
REMARK VINA RESULT:      -7.6     28.141     30.739
REMARK  Name = 9823887
REMARK                            x       y       z     vdW  Elec       q    Type
REMARK                         _______ _______ _______ _____ _____    ______ ____
ROOT
ATOM      1  O   LIG    1        6.828  44.036  20.579  0.00  0.00    -0.341 OA
ATOM      2  C   LIG    1        5.780  44.754  19.932  0.00  0.00    +0.282 C 
ATOM      3  C   LIG    1        6.108  46.246  19.876  0.00  0.00    +0.201 C 
ATOM      4  C   LIG    1        7.475  46.493  19.240  0.00  0.00    +0.179 C 
ATOM      5  C   LIG    1        8.543  45.589  19.853  0.00  0.00    +0.177 C 
ATOM     22  C   LIG    1        8.071  44.133  19.882  0.00  0.00    +0.178 C 
ENDROOT
BRANCH   5   6
ATOM      6  O   LIG    1        9.739  45.682  19.084  0.00  0.00    -0.386 OA
ATOM      7  H   LIG    1        9.505  45.548  18.149  0.00  0.00    +0.210 HD
ENDBRANCH   5   6
BRANCH   4   8
ATOM      8  O   LIG    1        7.865  47.849  19.461  0.00  0.00    -0.386 OA
ATOM      9  H   LIG    1        8.469  48.099  18.741  0.00  0.00    +0.210 HD
ENDBRANCH   4   8
BRANCH   3  10
ATOM     10  O   LIG    1        5.100  46.897  19.103  0.00  0.00    -0.384 OA
ATOM     11  H   LIG    1        4.404  46.247  18.908  0.00  0.00    +0.210 HD
ENDBRANCH   3  10
BRANCH   2  12
ATOM     12  O   LIG    1        4.565  44.596  20.662  0.00  0.00    -0.345 OA
BRANCH  12  13
ATOM     13  C   LIG    1        4.634  45.238  21.926  0.00  0.00    +0.190 C 
BRANCH  13  14
ATOM     14  C   LIG    1        4.185  44.277  22.979  0.00  0.00    +0.001 C 
ATOM     15  C   LIG    1        3.478  43.168  22.712  0.00  0.00    +0.006 C 
BRANCH  15  16
ATOM     16  C   LIG    1        3.027  42.187  23.714  0.00  0.00    -0.025 A 
ATOM     17  C   LIG    1        2.206  41.142  23.320  0.00  0.00    +0.008 A 
ATOM     18  C   LIG    1        1.780  40.214  24.268  0.00  0.00    +0.001 A 
ATOM     19  C   LIG    1        2.178  40.341  25.599  0.00  0.00    +0.000 A 
ATOM     20  C   LIG    1        3.004  41.398  25.981  0.00  0.00    +0.001 A 
ATOM     21  C   LIG    1        3.431  42.327  25.032  0.00  0.00    +0.008 A 
ENDBRANCH  15  16
ENDBRANCH  13  14
ENDBRANCH  12  13
ENDBRANCH   2  12
BRANCH  22  23
ATOM     23  C   LIG    1        9.071  43.228  20.595  0.00  0.00    +0.197 C 
BRANCH  23  24
ATOM     24  O   LIG    1        9.779  44.002  21.547  0.00  0.00    -0.346 OA
BRANCH  24  25
ATOM     25  C   LIG    1        9.421  43.656  22.880  0.00  0.00    +0.281 C 
ATOM     26  C   LIG    1       10.611  42.988  23.586  0.00  0.00    +0.201 C 
ATOM     27  C   LIG    1       11.700  43.999  23.961  0.00  0.00    +0.178 C 
ATOM     28  C   LIG    1       11.079  45.199  24.679  0.00  0.00    +0.171 C 
ATOM     29  C   LIG    1        9.931  45.779  23.862  0.00  0.00    +0.197 C 
ATOM     36  O   LIG    1        8.938  44.786  23.617  0.00  0.00    -0.346 OA
BRANCH  28  30
ATOM     30  O   LIG    1       12.072  46.189  24.910  0.00  0.00    -0.387 OA
ATOM     31  H   LIG    1       12.653  46.211  24.130  0.00  0.00    +0.210 HD
ENDBRANCH  28  30
BRANCH  27  32
ATOM     32  O   LIG    1       12.363  44.448  22.780  0.00  0.00    -0.386 OA
ATOM     33  H   LIG    1       12.934  43.723  22.471  0.00  0.00    +0.210 HD
ENDBRANCH  27  32
BRANCH  26  34
ATOM     34  O   LIG    1       10.125  42.357  24.768  0.00  0.00    -0.384 OA
ATOM     35  H   LIG    1       10.845  41.830  25.153  0.00  0.00    +0.210 HD
ENDBRANCH  26  34
ENDBRANCH  24  25
ENDBRANCH  23  24
ENDBRANCH  22  23
TORSDOF 13
ENDMDL
MODEL 6
REMARK VINA RESULT:      -7.6     28.469     31.030
REMARK  Name = 9823887
REMARK                            x       y       z     vdW  Elec       q    Type
REMARK                         _______ _______ _______ _____ _____    ______ ____
ROOT
ATOM      1  O   LIG    1        7.188  44.488  21.207  0.00  0.00    -0.341 OA
ATOM      2  C   LIG    1        5.954  45.156  20.960  0.00  0.00    +0.282 C 
ATOM      3  C   LIG    1        6.206  46.589  20.488  0.00  0.00    +0.201 C 
ATOM      4  C   LIG    1        7.148  46.621  19.285  0.00  0.00    +0.179 C 
ATOM      5  C   LIG    1        8.388  45.762  19.529  0.00  0.00    +0.177 C 
ATOM     22  C   LIG    1        7.994  44.371  20.033  0.00  0.00    +0.178 C 
ENDROOT
BRANCH   5   6
ATOM      6  O   LIG    1        9.120  45.633  18.313  0.00  0.00    -0.386 OA
ATOM      7  H   LIG    1        9.934  45.135  18.505  0.00  0.00    +0.210 HD
ENDBRANCH   5   6
BRANCH   4   8
ATOM      8  O   LIG    1        7.580  47.963  19.055  0.00  0.00    -0.386 OA
ATOM      9  H   LIG    1        6.816  48.545  19.209  0.00  0.00    +0.210 HD
ENDBRANCH   4   8
BRANCH   3  10
ATOM     10  O   LIG    1        4.953  47.167  20.125  0.00  0.00    -0.384 OA
ATOM     11  H   LIG    1        4.250  46.539  20.364  0.00  0.00    +0.210 HD
ENDBRANCH   3  10
BRANCH   2  12
ATOM     12  O   LIG    1        5.188  45.217  22.162  0.00  0.00    -0.345 OA
BRANCH  12  13
ATOM     13  C   LIG    1        3.889  44.680  21.975  0.00  0.00    +0.190 C 
BRANCH  13  14
ATOM     14  C   LIG    1        3.577  43.765  23.115  0.00  0.00    +0.001 C 
ATOM     15  C   LIG    1        3.000  42.563  22.959  0.00  0.00    +0.006 C 
BRANCH  15  16
ATOM     16  C   LIG    1        2.688  41.623  24.049  0.00  0.00    -0.025 A 
ATOM     17  C   LIG    1        3.167  41.878  25.324  0.00  0.00    +0.008 A 
ATOM     18  C   LIG    1        2.870  40.988  26.356  0.00  0.00    +0.001 A 
ATOM     19  C   LIG    1        2.101  39.854  26.100  0.00  0.00    +0.000 A 
ATOM     20  C   LIG    1        1.626  39.609  24.811  0.00  0.00    +0.001 A 
ATOM     21  C   LIG    1        1.922  40.500  23.779  0.00  0.00    +0.008 A 
ENDBRANCH  15  16
ENDBRANCH  13  14
ENDBRANCH  12  13
ENDBRANCH   2  12
BRANCH  22  23
ATOM     23  C   LIG    1        9.217  43.533  20.395  0.00  0.00    +0.197 C 
BRANCH  23  24
ATOM     24  O   LIG    1        9.193  43.279  21.788  0.00  0.00    -0.346 OA
BRANCH  24  25
ATOM     25  C   LIG    1       10.350  43.792  22.439  0.00  0.00    +0.281 C 
ATOM     26  C   LIG    1       10.056  45.191  23.001  0.00  0.00    +0.201 C 
ATOM     27  C   LIG    1        9.172  45.136  24.251  0.00  0.00    +0.178 C 
ATOM     28  C   LIG    1        9.727  44.114  25.245  0.00  0.00    +0.171 C 
ATOM     29  C   LIG    1        9.948  42.769  24.565  0.00  0.00    +0.197 C 
ATOM     36  O   LIG    1       10.832  42.906  23.455  0.00  0.00    -0.346 OA
BRANCH  28  30
ATOM     30  O   LIG    1        8.836  43.975  26.342  0.00  0.00    -0.387 OA
ATOM     31  H   LIG    1        9.236  44.426  27.105  0.00  0.00    +0.210 HD
ENDBRANCH  28  30
BRANCH  27  32
ATOM     32  O   LIG    1        7.846  44.761  23.881  0.00  0.00    -0.386 OA
ATOM     33  H   LIG    1        7.291  45.559  23.931  0.00  0.00    +0.210 HD
ENDBRANCH  27  32
BRANCH  26  34
ATOM     34  O   LIG    1       11.301  45.804  23.330  0.00  0.00    -0.384 OA
ATOM     35  H   LIG    1       11.637  46.261  22.541  0.00  0.00    +0.210 HD
ENDBRANCH  26  34
ENDBRANCH  24  25
ENDBRANCH  23  24
ENDBRANCH  22  23
TORSDOF 13
ENDMDL
MODEL 7
REMARK VINA RESULT:      -7.6     27.845     29.512
REMARK  Name = 9823887
REMARK                            x       y       z     vdW  Elec       q    Type
REMARK                         _______ _______ _______ _____ _____    ______ ____
ROOT
ATOM      1  O   LIG    1        6.221  44.475  20.579  0.00  0.00    -0.341 OA
ATOM      2  C   LIG    1        7.619  44.700  20.407  0.00  0.00    +0.282 C 
ATOM      3  C   LIG    1        7.859  45.843  19.420  0.00  0.00    +0.201 C 
ATOM      4  C   LIG    1        7.102  47.104  19.833  0.00  0.00    +0.179 C 
ATOM      5  C   LIG    1        5.643  46.792  20.163  0.00  0.00    +0.177 C 
ATOM     22  C   LIG    1        5.546  45.607  21.128  0.00  0.00    +0.178 C 
ENDROOT
BRANCH   5   6
ATOM      6  O   LIG    1        5.038  47.936  20.760  0.00  0.00    -0.386 OA
ATOM      7  H   LIG    1        5.748  48.506  21.103  0.00  0.00    +0.210 HD
ENDBRANCH   5   6
BRANCH   4   8
ATOM      8  O   LIG    1        7.119  48.044  18.757  0.00  0.00    -0.386 OA
ATOM      9  H   LIG    1        6.220  48.080  18.388  0.00  0.00    +0.210 HD
ENDBRANCH   4   8
BRANCH   3  10
ATOM     10  O   LIG    1        9.259  46.119  19.388  0.00  0.00    -0.384 OA
ATOM     11  H   LIG    1        9.535  46.378  20.283  0.00  0.00    +0.210 HD
ENDBRANCH   3  10
BRANCH   2  12
ATOM     12  O   LIG    1        8.236  43.527  19.882  0.00  0.00    -0.345 OA
BRANCH  12  13
ATOM     13  C   LIG    1        8.538  42.597  20.910  0.00  0.00    +0.190 C 
BRANCH  13  14
ATOM     14  C   LIG    1        9.969  42.767  21.308  0.00  0.00    +0.001 C 
ATOM     15  C   LIG    1       10.919  43.212  20.471  0.00  0.00    +0.006 C 
BRANCH  15  16
ATOM     16  C   LIG    1       12.336  43.409  20.822  0.00  0.00    -0.025 A 
ATOM     17  C   LIG    1       13.310  43.204  19.857  0.00  0.00    +0.008 A 
ATOM     18  C   LIG    1       14.651  43.391  20.190  0.00  0.00    +0.001 A 
ATOM     19  C   LIG    1       15.002  43.778  21.483  0.00  0.00    +0.000 A 
ATOM     20  C   LIG    1       14.011  43.980  22.443  0.00  0.00    +0.001 A 
ATOM     21  C   LIG    1       12.669  43.794  22.110  0.00  0.00    +0.008 A 
ENDBRANCH  15  16
ENDBRANCH  13  14
ENDBRANCH  12  13
ENDBRANCH   2  12
BRANCH  22  23
ATOM     23  C   LIG    1        4.097  45.201  21.382  0.00  0.00    +0.197 C 
BRANCH  23  24
ATOM     24  O   LIG    1        3.991  43.796  21.240  0.00  0.00    -0.346 OA
BRANCH  24  25
ATOM     25  C   LIG    1        4.292  43.119  22.456  0.00  0.00    +0.281 C 
ATOM     26  C   LIG    1        3.032  43.031  23.331  0.00  0.00    +0.201 C 
ATOM     27  C   LIG    1        2.035  41.994  22.803  0.00  0.00    +0.178 C 
ATOM     28  C   LIG    1        2.750  40.673  22.519  0.00  0.00    +0.171 C 
ATOM     29  C   LIG    1        3.962  40.899  21.623  0.00  0.00    +0.197 C 
ATOM     36  O   LIG    1        4.863  41.827  22.223  0.00  0.00    -0.346 OA
BRANCH  28  30
ATOM     30  O   LIG    1        1.849  39.757  21.912  0.00  0.00    -0.387 OA
ATOM     31  H   LIG    1        2.162  38.859  22.115  0.00  0.00    +0.210 HD
ENDBRANCH  28  30
BRANCH  27  32
ATOM     32  O   LIG    1        1.438  42.475  21.600  0.00  0.00    -0.386 OA
ATOM     33  H   LIG    1        0.782  41.816  21.315  0.00  0.00    +0.210 HD
ENDBRANCH  27  32
BRANCH  26  34
ATOM     34  O   LIG    1        3.436  42.669  24.649  0.00  0.00    -0.384 OA
ATOM     35  H   LIG    1        4.367  42.394  24.622  0.00  0.00    +0.210 HD
ENDBRANCH  26  34
ENDBRANCH  24  25
ENDBRANCH  23  24
ENDBRANCH  22  23
TORSDOF 13
ENDMDL
MODEL 8
REMARK VINA RESULT:      -7.5      1.382      1.569
REMARK  Name = 9823887
REMARK                            x       y       z     vdW  Elec       q    Type
REMARK                         _______ _______ _______ _____ _____    ______ ____
ROOT
ATOM      1  O   LIG    1       18.893  68.150   9.023  0.00  0.00    -0.341 OA
ATOM      2  C   LIG    1       19.423  67.006   9.690  0.00  0.00    +0.282 C 
ATOM      3  C   LIG    1       19.539  67.269  11.192  0.00  0.00    +0.201 C 
ATOM      4  C   LIG    1       18.207  67.733  11.780  0.00  0.00    +0.179 C 
ATOM      5  C   LIG    1       17.593  68.854  10.944  0.00  0.00    +0.177 C 
ATOM     22  C   LIG    1       17.573  68.477   9.460  0.00  0.00    +0.178 C 
ENDROOT
BRANCH   5   6
ATOM      6  O   LIG    1       16.260  69.097  11.386  0.00  0.00    -0.386 OA
ATOM      7  H   LIG    1       15.676  69.070  10.607  0.00  0.00    +0.210 HD
ENDBRANCH   5   6
BRANCH   4   8
ATOM      8  O   LIG    1       18.419  68.233  13.102  0.00  0.00    -0.386 OA
ATOM      9  H   LIG    1       19.286  67.908  13.400  0.00  0.00    +0.210 HD
ENDBRANCH   4   8
BRANCH   3  10
ATOM     10  O   LIG    1       19.941  66.056  11.828  0.00  0.00    -0.384 OA
ATOM     11  H   LIG    1       19.151  65.505  11.956  0.00  0.00    +0.210 HD
ENDBRANCH   3  10
BRANCH   2  12
ATOM     12  O   LIG    1       20.728  66.719   9.191  0.00  0.00    -0.345 OA
BRANCH  12  13
ATOM     13  C   LIG    1       21.553  67.872   9.206  0.00  0.00    +0.190 C 
BRANCH  13  14
ATOM     14  C   LIG    1       22.759  67.592  10.044  0.00  0.00    +0.001 C 
ATOM     15  C   LIG    1       23.069  68.290  11.147  0.00  0.00    +0.006 C 
BRANCH  15  16
ATOM     16  C   LIG    1       24.236  68.040  12.011  0.00  0.00    -0.025 A 
ATOM     17  C   LIG    1       24.319  66.848  12.712  0.00  0.00    +0.008 A 
ATOM     18  C   LIG    1       25.425  66.613  13.529  0.00  0.00    +0.001 A 
ATOM     19  C   LIG    1       26.432  67.571  13.635  0.00  0.00    +0.000 A 
ATOM     20  C   LIG    1       26.334  68.767  12.923  0.00  0.00    +0.001 A 
ATOM     21  C   LIG    1       25.229  69.003  12.106  0.00  0.00    +0.008 A 
ENDBRANCH  15  16
ENDBRANCH  13  14
ENDBRANCH  12  13
ENDBRANCH   2  12
BRANCH  22  23
ATOM     23  C   LIG    1       17.072  69.626   8.591  0.00  0.00    +0.197 C 
BRANCH  23  24
ATOM     24  O   LIG    1       15.666  69.720   8.735  0.00  0.00    -0.346 OA
BRANCH  24  25
ATOM     25  C   LIG    1       14.992  69.478   7.504  0.00  0.00    +0.281 C 
ATOM     26  C   LIG    1       13.787  68.556   7.741  0.00  0.00    +0.201 C 
ATOM     27  C   LIG    1       12.627  69.287   8.427  0.00  0.00    +0.178 C 
ATOM     28  C   LIG    1       12.336  70.604   7.706  0.00  0.00    +0.171 C 
ATOM     29  C   LIG    1       13.608  71.430   7.561  0.00  0.00    +0.197 C 
ATOM     36  O   LIG    1       14.606  70.695   6.856  0.00  0.00    -0.346 OA
BRANCH  28  30
ATOM     30  O   LIG    1       11.349  71.336   8.419  0.00  0.00    -0.387 OA
ATOM     31  H   LIG    1       10.885  70.712   9.003  0.00  0.00    +0.210 HD
ENDBRANCH  28  30
BRANCH  27  32
ATOM     32  O   LIG    1       12.971  69.559   9.785  0.00  0.00    -0.386 OA
ATOM     33  H   LIG    1       13.643  70.262   9.782  0.00  0.00    +0.210 HD
ENDBRANCH  27  32
BRANCH  26  34
ATOM     34  O   LIG    1       13.352  68.065   6.475  0.00  0.00    -0.384 OA
ATOM     35  H   LIG    1       14.095  68.120   5.852  0.00  0.00    +0.210 HD
ENDBRANCH  26  34
ENDBRANCH  24  25
ENDBRANCH  23  24
ENDBRANCH  22  23
TORSDOF 13
ENDMDL
MODEL 9
REMARK VINA RESULT:      -7.4     29.093     31.619
REMARK  Name = 9823887
REMARK                            x       y       z     vdW  Elec       q    Type
REMARK                         _______ _______ _______ _____ _____    ______ ____
ROOT
ATOM      1  O   LIG    1        6.987  43.388  20.466  0.00  0.00    -0.341 OA
ATOM      2  C   LIG    1        6.234  43.540  19.265  0.00  0.00    +0.282 C 
ATOM      3  C   LIG    1        6.136  45.016  18.878  0.00  0.00    +0.201 C 
ATOM      4  C   LIG    1        7.518  45.663  18.795  0.00  0.00    +0.179 C 
ATOM      5  C   LIG    1        8.354  45.343  20.034  0.00  0.00    +0.177 C 
ATOM     22  C   LIG    1        8.335  43.841  20.329  0.00  0.00    +0.178 C 
ENDROOT
BRANCH   5   6
ATOM      6  O   LIG    1        9.699  45.763  19.818  0.00  0.00    -0.386 OA
ATOM      7  H   LIG    1        9.730  46.246  18.974  0.00  0.00    +0.210 HD
ENDBRANCH   5   6
BRANCH   4   8
ATOM      8  O   LIG    1        7.376  47.082  18.714  0.00  0.00    -0.386 OA
ATOM      9  H   LIG    1        6.424  47.279  18.716  0.00  0.00    +0.210 HD
ENDBRANCH   4   8
BRANCH   3  10
ATOM     10  O   LIG    1        5.495  45.103  17.605  0.00  0.00    -0.384 OA
ATOM     11  H   LIG    1        4.690  45.637  17.709  0.00  0.00    +0.210 HD
ENDBRANCH   3  10
BRANCH   2  12
ATOM     12  O   LIG    1        4.910  43.048  19.461  0.00  0.00    -0.345 OA
BRANCH  12  13
ATOM     13  C   LIG    1        4.216  43.804  20.440  0.00  0.00    +0.190 C 
BRANCH  13  14
ATOM     14  C   LIG    1        3.334  42.886  21.222  0.00  0.00    +0.001 C 
ATOM     15  C   LIG    1        3.785  41.791  21.855  0.00  0.00    +0.006 C 
BRANCH  15  16
ATOM     16  C   LIG    1        2.957  40.867  22.648  0.00  0.00    -0.025 A 
ATOM     17  C   LIG    1        2.679  41.170  23.972  0.00  0.00    +0.008 A 
ATOM     18  C   LIG    1        1.895  40.294  24.722  0.00  0.00    +0.001 A 
ATOM     19  C   LIG    1        1.400  39.127  24.141  0.00  0.00    +0.000 A 
ATOM     20  C   LIG    1        1.689  38.835  22.808  0.00  0.00    +0.001 A 
ATOM     21  C   LIG    1        2.473  39.711  22.057  0.00  0.00    +0.008 A 
ENDBRANCH  15  16
ENDBRANCH  13  14
ENDBRANCH  12  13
ENDBRANCH   2  12
BRANCH  22  23
ATOM     23  C   LIG    1        9.066  43.510  21.627  0.00  0.00    +0.197 C 
BRANCH  23  24
ATOM     24  O   LIG    1        8.203  42.744  22.448  0.00  0.00    -0.346 OA
BRANCH  24  25
ATOM     25  C   LIG    1        8.431  42.992  23.831  0.00  0.00    +0.281 C 
ATOM     26  C   LIG    1        8.175  44.474  24.146  0.00  0.00    +0.201 C 
ATOM     27  C   LIG    1        6.680  44.810  24.160  0.00  0.00    +0.178 C 
ATOM     28  C   LIG    1        5.921  43.798  25.020  0.00  0.00    +0.171 C 
ATOM     29  C   LIG    1        6.246  42.375  24.587  0.00  0.00    +0.197 C 
ATOM     36  O   LIG    1        7.649  42.133  24.667  0.00  0.00    -0.346 OA
BRANCH  28  30
ATOM     30  O   LIG    1        4.524  44.038  24.926  0.00  0.00    -0.387 OA
ATOM     31  H   LIG    1        4.316  44.204  23.991  0.00  0.00    +0.210 HD
ENDBRANCH  28  30
BRANCH  27  32
ATOM     32  O   LIG    1        6.170  44.773  22.828  0.00  0.00    -0.386 OA
ATOM     33  H   LIG    1        5.376  45.334  22.803  0.00  0.00    +0.210 HD
ENDBRANCH  27  32
BRANCH  26  34
ATOM     34  O   LIG    1        8.734  44.755  25.426  0.00  0.00    -0.384 OA
ATOM     35  H   LIG    1        9.232  45.588  25.369  0.00  0.00    +0.210 HD
ENDBRANCH  26  34
ENDBRANCH  24  25
ENDBRANCH  23  24
ENDBRANCH  22  23
TORSDOF 13
ENDMDL
