MODEL 1
REMARK VINA RESULT:    -5.210      0.000      0.000
REMARK INTER + INTRA:          -6.167
REMARK INTER:                  -6.119
REMARK INTRA:                  -0.048
REMARK UNBOUND:                -0.043
REMARK  Name = 8742
REMARK  5 active torsions:
REMARK  status: ('A' for Active; 'I' for Inactive)
REMARK    1  A    between atoms: O_1  and  C_6
REMARK    2  A    between atoms: O_2  and  C_7
REMARK    3  A    between atoms: O_3  and  C_8
REMARK    4  A    between atoms: O_4  and  C_12
REMARK    5  A    between atoms: C_10  and  C_12
REMARK                            x       y       z     vdW  Elec       q    Type
REMARK                         _______ _______ _______ _____ _____    ______ ____
ROOT
ATOM      1  C   UNL     1     -36.037  16.946  55.522  0.00  0.00    +0.000 C 
ATOM      2  C   UNL     1     -35.213  16.341  56.661  0.00  0.00    +0.000 C 
ATOM      3  C   UNL     1     -35.229  16.991  54.212  0.00  0.00    +0.000 C 
ATOM      4  C   UNL     1     -34.708  14.930  56.312  0.00  0.00    +0.000 C 
ATOM      5  C   UNL     1     -34.264  14.796  54.883  0.00  0.00    +0.000 C 
ATOM      6  C   UNL     1     -34.486  15.717  53.933  0.00  0.00    +0.000 C 
ENDROOT
BRANCH   1   7
ATOM      7  O   UNL     1     -37.216  16.159  55.352  0.00  0.00    +0.000 OA
ATOM      8  H   UNL     1     -37.051  15.542  54.619  0.00  0.00    +0.000 HD
ENDBRANCH   1   7
BRANCH   2   9
ATOM      9  O   UNL     1     -34.109  17.197  56.939  0.00  0.00    +0.000 OA
ATOM     10  H   UNL     1     -33.325  16.636  57.065  0.00  0.00    +0.000 HD
ENDBRANCH   2   9
BRANCH   3  11
ATOM     11  O   UNL     1     -36.094  17.278  53.118  0.00  0.00    +0.000 OA
ATOM     12  H   UNL     1     -37.004  17.290  53.460  0.00  0.00    +0.000 HD
ENDBRANCH   3  11
BRANCH   5  14
ATOM     13  O   UNL     1     -33.752  12.474  54.931  0.00  0.00    +0.000 OA
ATOM     14  C   UNL     1     -33.525  13.589  54.497  0.00  0.00    +0.000 C 
BRANCH  14  15
ATOM     15  O   UNL     1     -32.570  13.911  53.601  0.00  0.00    +0.000 OA
ATOM     16  H   UNL     1     -32.862  13.753  52.679  0.00  0.00    +0.000 HD
ENDBRANCH  14  15
ENDBRANCH   5  14
TORSDOF 5
ENDMDL
MODEL 2
REMARK VINA RESULT:    -5.031      1.466      2.603
REMARK INTER + INTRA:          -5.956
REMARK INTER:                  -5.912
REMARK INTRA:                  -0.044
REMARK UNBOUND:                -0.043
REMARK  Name = 8742
REMARK  5 active torsions:
REMARK  status: ('A' for Active; 'I' for Inactive)
REMARK    1  A    between atoms: O_1  and  C_6
REMARK    2  A    between atoms: O_2  and  C_7
REMARK    3  A    between atoms: O_3  and  C_8
REMARK    4  A    between atoms: O_4  and  C_12
REMARK    5  A    between atoms: C_10  and  C_12
REMARK                            x       y       z     vdW  Elec       q    Type
REMARK                         _______ _______ _______ _____ _____    ______ ____
ROOT
ATOM      1  C   UNL     1     -35.995  16.232  56.310  0.00  0.00    +0.000 C 
ATOM      2  C   UNL     1     -36.808  15.355  55.353  0.00  0.00    +0.000 C 
ATOM      3  C   UNL     1     -34.843  15.438  56.951  0.00  0.00    +0.000 C 
ATOM      4  C   UNL     1     -35.924  14.738  54.255  0.00  0.00    +0.000 C 
ATOM      5  C   UNL     1     -34.579  14.294  54.755  0.00  0.00    +0.000 C 
ATOM      6  C   UNL     1     -34.086  14.595  55.966  0.00  0.00    +0.000 C 
ENDROOT
BRANCH   1   7
ATOM      7  O   UNL     1     -35.484  17.344  55.574  0.00  0.00    +0.000 OA
ATOM      8  H   UNL     1     -35.093  17.962  56.215  0.00  0.00    +0.000 HD
ENDBRANCH   1   7
BRANCH   2   9
ATOM      9  O   UNL     1     -37.444  14.322  56.101  0.00  0.00    +0.000 OA
ATOM     10  H   UNL     1     -37.488  13.532  55.535  0.00  0.00    +0.000 HD
ENDBRANCH   2   9
BRANCH   3  11
ATOM     11  O   UNL     1     -33.939  16.330  57.596  0.00  0.00    +0.000 OA
ATOM     12  H   UNL     1     -33.045  15.963  57.495  0.00  0.00    +0.000 HD
ENDBRANCH   3  11
BRANCH   5  14
ATOM     13  O   UNL     1     -34.120  12.415  53.373  0.00  0.00    +0.000 OA
ATOM     14  C   UNL     1     -33.753  13.461  53.875  0.00  0.00    +0.000 C 
BRANCH  14  15
ATOM     15  O   UNL     1     -32.543  14.034  53.716  0.00  0.00    +0.000 OA
ATOM     16  H   UNL     1     -32.291  14.584  54.488  0.00  0.00    +0.000 HD
ENDBRANCH  14  15
ENDBRANCH   5  14
TORSDOF 5
ENDMDL
MODEL 3
REMARK VINA RESULT:    -4.799     17.642     19.268
REMARK INTER + INTRA:          -5.684
REMARK INTER:                  -5.630
REMARK INTRA:                  -0.053
REMARK UNBOUND:                -0.043
REMARK  Name = 8742
REMARK  5 active torsions:
REMARK  status: ('A' for Active; 'I' for Inactive)
REMARK    1  A    between atoms: O_1  and  C_6
REMARK    2  A    between atoms: O_2  and  C_7
REMARK    3  A    between atoms: O_3  and  C_8
REMARK    4  A    between atoms: O_4  and  C_12
REMARK    5  A    between atoms: C_10  and  C_12
REMARK                            x       y       z     vdW  Elec       q    Type
REMARK                         _______ _______ _______ _____ _____    ______ ____
ROOT
ATOM      1  C   UNL     1     -26.345  -2.445  55.329  0.00  0.00    +0.000 C 
ATOM      2  C   UNL     1     -25.159  -2.322  54.369  0.00  0.00    +0.000 C 
ATOM      3  C   UNL     1     -26.028  -1.809  56.694  0.00  0.00    +0.000 C 
ATOM      4  C   UNL     1     -24.733  -0.856  54.174  0.00  0.00    +0.000 C 
ATOM      5  C   UNL     1     -24.789  -0.049  55.440  0.00  0.00    +0.000 C 
ATOM      6  C   UNL     1     -25.361  -0.468  56.579  0.00  0.00    +0.000 C 
ENDROOT
BRANCH   1   7
ATOM      7  O   UNL     1     -27.474  -1.805  54.733  0.00  0.00    +0.000 OA
ATOM      8  H   UNL     1     -28.268  -2.131  55.189  0.00  0.00    +0.000 HD
ENDBRANCH   1   7
BRANCH   2   9
ATOM      9  O   UNL     1     -24.068  -3.080  54.884  0.00  0.00    +0.000 OA
ATOM     10  H   UNL     1     -24.324  -3.406  55.763  0.00  0.00    +0.000 HD
ENDBRANCH   2   9
BRANCH   3  11
ATOM     11  O   UNL     1     -27.222  -1.673  57.457  0.00  0.00    +0.000 OA
ATOM     12  H   UNL     1     -26.965  -1.416  58.359  0.00  0.00    +0.000 HD
ENDBRANCH   3  11
BRANCH   5  14
ATOM     13  O   UNL     1     -23.441   1.701  54.560  0.00  0.00    +0.000 OA
ATOM     14  C   UNL     1     -24.165   1.278  55.443  0.00  0.00    +0.000 C 
BRANCH  14  15
ATOM     15  O   UNL     1     -24.518   1.941  56.564  0.00  0.00    +0.000 OA
ATOM     16  H   UNL     1     -23.798   1.949  57.229  0.00  0.00    +0.000 HD
ENDBRANCH  14  15
ENDBRANCH   5  14
TORSDOF 5
ENDMDL
MODEL 4
REMARK VINA RESULT:    -4.767      1.466      3.844
REMARK INTER + INTRA:          -5.646
REMARK INTER:                  -5.606
REMARK INTRA:                  -0.040
REMARK UNBOUND:                -0.043
REMARK  Name = 8742
REMARK  5 active torsions:
REMARK  status: ('A' for Active; 'I' for Inactive)
REMARK    1  A    between atoms: O_1  and  C_6
REMARK    2  A    between atoms: O_2  and  C_7
REMARK    3  A    between atoms: O_3  and  C_8
REMARK    4  A    between atoms: O_4  and  C_12
REMARK    5  A    between atoms: C_10  and  C_12
REMARK                            x       y       z     vdW  Elec       q    Type
REMARK                         _______ _______ _______ _____ _____    ______ ____
ROOT
ATOM      1  C   UNL     1     -34.953  14.211  53.985  0.00  0.00    +0.000 C 
ATOM      2  C   UNL     1     -35.309  15.701  53.999  0.00  0.00    +0.000 C 
ATOM      3  C   UNL     1     -33.757  13.914  54.906  0.00  0.00    +0.000 C 
ATOM      4  C   UNL     1     -35.610  16.201  55.423  0.00  0.00    +0.000 C 
ATOM      5  C   UNL     1     -34.699  15.615  56.463  0.00  0.00    +0.000 C 
ATOM      6  C   UNL     1     -33.857  14.593  56.242  0.00  0.00    +0.000 C 
ENDROOT
BRANCH   1   7
ATOM      7  O   UNL     1     -36.100  13.472  54.405  0.00  0.00    +0.000 OA
ATOM      8  H   UNL     1     -35.783  12.708  54.916  0.00  0.00    +0.000 HD
ENDBRANCH   1   7
BRANCH   2   9
ATOM      9  O   UNL     1     -34.224  16.440  53.444  0.00  0.00    +0.000 OA
ATOM     10  H   UNL     1     -34.494  16.740  52.560  0.00  0.00    +0.000 HD
ENDBRANCH   2   9
BRANCH   3  11
ATOM     11  O   UNL     1     -33.633  12.509  55.104  0.00  0.00    +0.000 OA
ATOM     12  H   UNL     1     -33.862  12.075  54.264  0.00  0.00    +0.000 HD
ENDBRANCH   3  11
BRANCH   5  14
ATOM     13  O   UNL     1     -35.381  15.787  58.734  0.00  0.00    +0.000 OA
ATOM     14  C   UNL     1     -34.711  16.203  57.806  0.00  0.00    +0.000 C 
BRANCH  14  15
ATOM     15  O   UNL     1     -33.876  17.261  57.844  0.00  0.00    +0.000 OA
ATOM     16  H   UNL     1     -33.506  17.471  56.960  0.00  0.00    +0.000 HD
ENDBRANCH  14  15
ENDBRANCH   5  14
TORSDOF 5
ENDMDL
MODEL 5
REMARK VINA RESULT:    -4.715      9.255     10.765
REMARK INTER + INTRA:          -5.585
REMARK INTER:                  -5.544
REMARK INTRA:                  -0.041
REMARK UNBOUND:                -0.043
REMARK  Name = 8742
REMARK  5 active torsions:
REMARK  status: ('A' for Active; 'I' for Inactive)
REMARK    1  A    between atoms: O_1  and  C_6
REMARK    2  A    between atoms: O_2  and  C_7
REMARK    3  A    between atoms: O_3  and  C_8
REMARK    4  A    between atoms: O_4  and  C_12
REMARK    5  A    between atoms: C_10  and  C_12
REMARK                            x       y       z     vdW  Elec       q    Type
REMARK                         _______ _______ _______ _____ _____    ______ ____
ROOT
ATOM      1  C   UNL     1     -37.474   5.706  60.096  0.00  0.00    +0.000 C 
ATOM      2  C   UNL     1     -36.414   6.224  59.120  0.00  0.00    +0.000 C 
ATOM      3  C   UNL     1     -38.752   6.562  60.039  0.00  0.00    +0.000 C 
ATOM      4  C   UNL     1     -36.945   6.274  57.677  0.00  0.00    +0.000 C 
ATOM      5  C   UNL     1     -38.371   6.736  57.584  0.00  0.00    +0.000 C 
ATOM      6  C   UNL     1     -39.190   6.876  58.637  0.00  0.00    +0.000 C 
ENDROOT
BRANCH   1   7
ATOM      7  O   UNL     1     -37.769   4.349  59.760  0.00  0.00    +0.000 OA
ATOM      8  H   UNL     1     -37.911   3.868  60.593  0.00  0.00    +0.000 HD
ENDBRANCH   1   7
BRANCH   2   9
ATOM      9  O   UNL     1     -36.004   7.525  59.532  0.00  0.00    +0.000 OA
ATOM     10  H   UNL     1     -36.757   8.126  59.403  0.00  0.00    +0.000 HD
ENDBRANCH   2   9
BRANCH   3  11
ATOM     11  O   UNL     1     -39.811   5.900  60.724  0.00  0.00    +0.000 OA
ATOM     12  H   UNL     1     -39.574   4.959  60.789  0.00  0.00    +0.000 HD
ENDBRANCH   3  11
BRANCH   5  14
ATOM     13  O   UNL     1     -39.611   6.339  55.595  0.00  0.00    +0.000 OA
ATOM     14  C   UNL     1     -38.905   7.074  56.261  0.00  0.00    +0.000 C 
BRANCH  14  15
ATOM     15  O   UNL     1     -38.493   8.309  55.909  0.00  0.00    +0.000 OA
ATOM     16  H   UNL     1     -39.246   8.914  55.739  0.00  0.00    +0.000 HD
ENDBRANCH  14  15
ENDBRANCH   5  14
TORSDOF 5
ENDMDL
MODEL 6
REMARK VINA RESULT:    -4.660     18.126     19.664
REMARK INTER + INTRA:          -5.520
REMARK INTER:                  -5.479
REMARK INTRA:                  -0.041
REMARK UNBOUND:                -0.043
REMARK  Name = 8742
REMARK  5 active torsions:
REMARK  status: ('A' for Active; 'I' for Inactive)
REMARK    1  A    between atoms: O_1  and  C_6
REMARK    2  A    between atoms: O_2  and  C_7
REMARK    3  A    between atoms: O_3  and  C_8
REMARK    4  A    between atoms: O_4  and  C_12
REMARK    5  A    between atoms: C_10  and  C_12
REMARK                            x       y       z     vdW  Elec       q    Type
REMARK                         _______ _______ _______ _____ _____    ______ ____
ROOT
ATOM      1  C   UNL     1     -22.583   2.040  46.275  0.00  0.00    +0.000 C 
ATOM      2  C   UNL     1     -22.805   2.053  44.760  0.00  0.00    +0.000 C 
ATOM      3  C   UNL     1     -23.610   2.928  46.998  0.00  0.00    +0.000 C 
ATOM      4  C   UNL     1     -24.231   1.609  44.389  0.00  0.00    +0.000 C 
ATOM      5  C   UNL     1     -25.279   2.135  45.328  0.00  0.00    +0.000 C 
ATOM      6  C   UNL     1     -25.014   2.735  46.498  0.00  0.00    +0.000 C 
ENDROOT
BRANCH   1   7
ATOM      7  O   UNL     1     -22.684   0.690  46.731  0.00  0.00    +0.000 OA
ATOM      8  H   UNL     1     -23.445   0.287  46.282  0.00  0.00    +0.000 HD
ENDBRANCH   1   7
BRANCH   2   9
ATOM      9  O   UNL     1     -22.563   3.369  44.269  0.00  0.00    +0.000 OA
ATOM     10  H   UNL     1     -23.425   3.773  44.072  0.00  0.00    +0.000 HD
ENDBRANCH   2   9
BRANCH   3  11
ATOM     11  O   UNL     1     -23.573   2.673  48.398  0.00  0.00    +0.000 OA
ATOM     12  H   UNL     1     -23.606   3.533  48.853  0.00  0.00    +0.000 HD
ENDBRANCH   3  11
BRANCH   5  14
ATOM     13  O   UNL     1     -27.489   2.919  44.931  0.00  0.00    +0.000 OA
ATOM     14  C   UNL     1     -26.687   2.002  44.939  0.00  0.00    +0.000 C 
BRANCH  14  15
ATOM     15  O   UNL     1     -26.943   0.723  44.598  0.00  0.00    +0.000 OA
ATOM     16  H   UNL     1     -27.767   0.639  44.073  0.00  0.00    +0.000 HD
ENDBRANCH  14  15
ENDBRANCH   5  14
TORSDOF 5
ENDMDL
MODEL 7
REMARK VINA RESULT:    -4.634     17.733     18.647
REMARK INTER + INTRA:          -5.489
REMARK INTER:                  -5.439
REMARK INTRA:                  -0.050
REMARK UNBOUND:                -0.043
REMARK  Name = 8742
REMARK  5 active torsions:
REMARK  status: ('A' for Active; 'I' for Inactive)
REMARK    1  A    between atoms: O_1  and  C_6
REMARK    2  A    between atoms: O_2  and  C_7
REMARK    3  A    between atoms: O_3  and  C_8
REMARK    4  A    between atoms: O_4  and  C_12
REMARK    5  A    between atoms: C_10  and  C_12
REMARK                            x       y       z     vdW  Elec       q    Type
REMARK                         _______ _______ _______ _____ _____    ______ ____
ROOT
ATOM      1  C   UNL     1     -23.117   4.009  45.750  0.00  0.00    +0.000 C 
ATOM      2  C   UNL     1     -23.465   4.773  44.469  0.00  0.00    +0.000 C 
ATOM      3  C   UNL     1     -24.337   3.895  46.681  0.00  0.00    +0.000 C 
ATOM      4  C   UNL     1     -24.636   4.119  43.716  0.00  0.00    +0.000 C 
ATOM      5  C   UNL     1     -25.716   3.607  44.627  0.00  0.00    +0.000 C 
ATOM      6  C   UNL     1     -25.597   3.509  45.959  0.00  0.00    +0.000 C 
ENDROOT
BRANCH   1   7
ATOM      7  O   UNL     1     -22.647   2.711  45.385  0.00  0.00    +0.000 OA
ATOM      8  H   UNL     1     -21.710   2.659  45.639  0.00  0.00    +0.000 HD
ENDBRANCH   1   7
BRANCH   2   9
ATOM      9  O   UNL     1     -23.796   6.117  44.808  0.00  0.00    +0.000 OA
ATOM     10  H   UNL     1     -23.556   6.254  45.740  0.00  0.00    +0.000 HD
ENDBRANCH   2   9
BRANCH   3  11
ATOM     11  O   UNL     1     -24.077   2.946  47.710  0.00  0.00    +0.000 OA
ATOM     12  H   UNL     1     -23.699   2.155  47.288  0.00  0.00    +0.000 HD
ENDBRANCH   3  11
BRANCH   5  14
ATOM     13  O   UNL     1     -27.960   2.822  44.663  0.00  0.00    +0.000 OA
ATOM     14  C   UNL     1     -26.992   3.203  44.029  0.00  0.00    +0.000 C 
BRANCH  14  15
ATOM     15  O   UNL     1     -26.920   3.319  42.687  0.00  0.00    +0.000 OA
ATOM     16  H   UNL     1     -27.464   4.062  42.351  0.00  0.00    +0.000 HD
ENDBRANCH  14  15
ENDBRANCH   5  14
TORSDOF 5
ENDMDL
MODEL 8
REMARK VINA RESULT:    -4.587     17.725     19.310
REMARK INTER + INTRA:          -5.434
REMARK INTER:                  -5.395
REMARK INTRA:                  -0.040
REMARK UNBOUND:                -0.043
REMARK  Name = 8742
REMARK  5 active torsions:
REMARK  status: ('A' for Active; 'I' for Inactive)
REMARK    1  A    between atoms: O_1  and  C_6
REMARK    2  A    between atoms: O_2  and  C_7
REMARK    3  A    between atoms: O_3  and  C_8
REMARK    4  A    between atoms: O_4  and  C_12
REMARK    5  A    between atoms: C_10  and  C_12
REMARK                            x       y       z     vdW  Elec       q    Type
REMARK                         _______ _______ _______ _____ _____    ______ ____
ROOT
ATOM      1  C   UNL     1     -22.813   2.734  45.907  0.00  0.00    +0.000 C 
ATOM      2  C   UNL     1     -23.766   3.666  46.659  0.00  0.00    +0.000 C 
ATOM      3  C   UNL     1     -23.540   1.469  45.417  0.00  0.00    +0.000 C 
ATOM      4  C   UNL     1     -24.976   4.062  45.795  0.00  0.00    +0.000 C 
ATOM      5  C   UNL     1     -25.503   2.931  44.958  0.00  0.00    +0.000 C 
ATOM      6  C   UNL     1     -24.872   1.760  44.786  0.00  0.00    +0.000 C 
ENDROOT
BRANCH   1   7
ATOM      7  O   UNL     1     -22.263   3.451  44.801  0.00  0.00    +0.000 OA
ATOM      8  H   UNL     1     -22.068   4.353  45.107  0.00  0.00    +0.000 HD
ENDBRANCH   1   7
BRANCH   2   9
ATOM      9  O   UNL     1     -24.209   3.013  47.846  0.00  0.00    +0.000 OA
ATOM     10  H   UNL     1     -23.638   2.240  47.988  0.00  0.00    +0.000 HD
ENDBRANCH   2   9
BRANCH   3  11
ATOM     11  O   UNL     1     -22.723   0.769  44.483  0.00  0.00    +0.000 OA
ATOM     12  H   UNL     1     -23.229  -0.002  44.173  0.00  0.00    +0.000 HD
ENDBRANCH   3  11
BRANCH   5  14
ATOM     13  O   UNL     1     -27.876   3.041  44.862  0.00  0.00    +0.000 OA
ATOM     14  C   UNL     1     -26.800   3.106  44.296  0.00  0.00    +0.000 C 
BRANCH  14  15
ATOM     15  O   UNL     1     -26.609   3.344  42.982  0.00  0.00    +0.000 OA
ATOM     16  H   UNL     1     -27.439   3.259  42.468  0.00  0.00    +0.000 HD
ENDBRANCH  14  15
ENDBRANCH   5  14
TORSDOF 5
ENDMDL
MODEL 9
REMARK VINA RESULT:    -4.554      1.398      2.318
REMARK INTER + INTRA:          -5.395
REMARK INTER:                  -5.347
REMARK INTRA:                  -0.048
REMARK UNBOUND:                -0.043
REMARK  Name = 8742
REMARK  5 active torsions:
REMARK  status: ('A' for Active; 'I' for Inactive)
REMARK    1  A    between atoms: O_1  and  C_6
REMARK    2  A    between atoms: O_2  and  C_7
REMARK    3  A    between atoms: O_3  and  C_8
REMARK    4  A    between atoms: O_4  and  C_12
REMARK    5  A    between atoms: C_10  and  C_12
REMARK                            x       y       z     vdW  Elec       q    Type
REMARK                         _______ _______ _______ _____ _____    ______ ____
ROOT
ATOM      1  C   UNL     1     -37.063  16.139  54.980  0.00  0.00    +0.000 C 
ATOM      2  C   UNL     1     -35.759  16.777  54.492  0.00  0.00    +0.000 C 
ATOM      3  C   UNL     1     -37.323  14.794  54.279  0.00  0.00    +0.000 C 
ATOM      4  C   UNL     1     -34.555  15.841  54.697  0.00  0.00    +0.000 C 
ATOM      5  C   UNL     1     -34.867  14.401  54.405  0.00  0.00    +0.000 C 
ATOM      6  C   UNL     1     -36.103  13.920  54.208  0.00  0.00    +0.000 C 
ENDROOT
BRANCH   1   7
ATOM      7  O   UNL     1     -36.971  15.954  56.393  0.00  0.00    +0.000 OA
ATOM      8  H   UNL     1     -36.051  15.714  56.596  0.00  0.00    +0.000 HD
ENDBRANCH   1   7
BRANCH   2   9
ATOM      9  O   UNL     1     -35.892  17.101  53.111  0.00  0.00    +0.000 OA
ATOM     10  H   UNL     1     -35.633  16.318  52.597  0.00  0.00    +0.000 HD
ENDBRANCH   2   9
BRANCH   3  11
ATOM     11  O   UNL     1     -38.365  14.090  54.948  0.00  0.00    +0.000 OA
ATOM     12  H   UNL     1     -38.013  13.220  55.202  0.00  0.00    +0.000 HD
ENDBRANCH   3  11
BRANCH   5  14
ATOM     13  O   UNL     1     -33.780  12.309  54.716  0.00  0.00    +0.000 OA
ATOM     14  C   UNL     1     -33.749  13.456  54.309  0.00  0.00    +0.000 C 
BRANCH  14  15
ATOM     15  O   UNL     1     -32.700  14.055  53.709  0.00  0.00    +0.000 OA
ATOM     16  H   UNL     1     -32.943  14.437  52.839  0.00  0.00    +0.000 HD
ENDBRANCH  14  15
ENDBRANCH   5  14
TORSDOF 5
ENDMDL
MODEL 10
REMARK VINA RESULT:    -4.551      1.305      3.891
REMARK INTER + INTRA:          -5.392
REMARK INTER:                  -5.349
REMARK INTRA:                  -0.043
REMARK UNBOUND:                -0.043
REMARK  Name = 8742
REMARK  5 active torsions:
REMARK  status: ('A' for Active; 'I' for Inactive)
REMARK    1  A    between atoms: O_1  and  C_6
REMARK    2  A    between atoms: O_2  and  C_7
REMARK    3  A    between atoms: O_3  and  C_8
REMARK    4  A    between atoms: O_4  and  C_12
REMARK    5  A    between atoms: C_10  and  C_12
REMARK                            x       y       z     vdW  Elec       q    Type
REMARK                         _______ _______ _______ _____ _____    ______ ____
ROOT
ATOM      1  C   UNL     1     -35.168  15.630  56.139  0.00  0.00    +0.000 C 
ATOM      2  C   UNL     1     -36.430  16.481  55.978  0.00  0.00    +0.000 C 
ATOM      3  C   UNL     1     -34.653  15.131  54.777  0.00  0.00    +0.000 C 
ATOM      4  C   UNL     1     -36.195  17.678  55.039  0.00  0.00    +0.000 C 
ATOM      5  C   UNL     1     -35.333  17.342  53.855  0.00  0.00    +0.000 C 
ATOM      6  C   UNL     1     -34.642  16.200  53.722  0.00  0.00    +0.000 C 
ENDROOT
BRANCH   1   7
ATOM      7  O   UNL     1     -34.172  16.422  56.788  0.00  0.00    +0.000 OA
ATOM      8  H   UNL     1     -33.882  17.101  56.155  0.00  0.00    +0.000 HD
ENDBRANCH   1   7
BRANCH   2   9
ATOM      9  O   UNL     1     -37.478  15.662  55.466  0.00  0.00    +0.000 OA
ATOM     10  H   UNL     1     -38.275  15.838  55.995  0.00  0.00    +0.000 HD
ENDBRANCH   2   9
BRANCH   3  11
ATOM     11  O   UNL     1     -33.340  14.600  54.919  0.00  0.00    +0.000 OA
ATOM     12  H   UNL     1     -32.850  14.811  54.106  0.00  0.00    +0.000 HD
ENDBRANCH   3  11
BRANCH   5  14
ATOM     13  O   UNL     1     -36.204  18.700  52.108  0.00  0.00    +0.000 OA
ATOM     14  C   UNL     1     -35.251  18.315  52.761  0.00  0.00    +0.000 C 
BRANCH  14  15
ATOM     15  O   UNL     1     -33.970  18.706  52.599  0.00  0.00    +0.000 OA
ATOM     16  H   UNL     1     -33.345  18.135  53.093  0.00  0.00    +0.000 HD
ENDBRANCH  14  15
ENDBRANCH   5  14
TORSDOF 5
ENDMDL
