MODEL 1
REMARK VINA RESULT:      -6.5      0.000      0.000
REMARK  5 active torsions:
REMARK  status: ('A' for Active; 'I' for Inactive)
REMARK    1  A    between atoms: C_3  and  O_1 
REMARK    2  A    between atoms: C_4  and  O_14 
REMARK    3  A    between atoms: C_7  and  C_8 
REMARK    4  A    between atoms: C_9  and  C_10 
REMARK    5  A    between atoms: C_10  and  O_12 
ROOT
ATOM      1  C   LIG     1     -31.659  11.746  -2.415  0.00  0.00     0.162 A 
ATOM      2  C   LIG     1     -32.635  12.239  -3.281  0.00  0.00     0.158 A 
ATOM      3  C   LIG     1     -33.892  12.587  -2.789  0.00  0.00     0.050 A 
ATOM      4  C   LIG     1     -34.175  12.442  -1.430  0.00  0.00     0.012 A 
ATOM      5  C   LIG     1     -33.199  11.950  -0.565  0.00  0.00    -0.021 A 
ATOM      6  C   LIG     1     -31.941  11.601  -1.056  0.00  0.00     0.057 A 
ENDROOT
BRANCH   5   7
ATOM      7  C   LIG     1     -33.493  11.800   0.852  0.00  0.00     0.015 C 
ATOM      8  C   LIG     1     -32.618  11.376   1.791  0.00  0.00     0.092 C 
BRANCH   8   9
ATOM      9  C   LIG     1     -33.038  11.276   3.203  0.00  0.00     0.330 C 
ATOM     10  O   LIG     1     -33.851  10.492   3.664  0.00  0.00    -0.246 OA
BRANCH   9  11
ATOM     11  O   LIG     1     -32.369  12.207   3.922  0.00  0.00    -0.478 OA
ATOM     12  H   LIG     1     -32.536  13.116   3.593  0.00  0.00     0.295 HD
ENDBRANCH   9  11
ENDBRANCH   8   9
ENDBRANCH   5   7
BRANCH   1  13
ATOM     13  O   LIG     1     -30.427  11.401  -2.884  0.00  0.00    -0.491 OA
ATOM     14  C   LIG     1     -30.081  10.018  -2.839  0.00  0.00     0.277 C 
ENDBRANCH   1  13
BRANCH   2  15
ATOM     15  O   LIG     1     -32.372  12.384  -4.610  0.00  0.00    -0.503 OA
ATOM     16  H   LIG     1     -33.191  12.638  -5.069  0.00  0.00     0.292 HD
ENDBRANCH   2  15
TORSDOF 5
ENDMDL
MODEL 2
REMARK VINA RESULT:      -6.4     11.919     13.496
REMARK  5 active torsions:
REMARK  status: ('A' for Active; 'I' for Inactive)
REMARK    1  A    between atoms: C_3  and  O_1 
REMARK    2  A    between atoms: C_4  and  O_14 
REMARK    3  A    between atoms: C_7  and  C_8 
REMARK    4  A    between atoms: C_9  and  C_10 
REMARK    5  A    between atoms: C_10  and  O_12 
ROOT
ATOM      1  C   LIG     1     -27.686   1.282   6.508  0.00  0.00     0.162 A 
ATOM      2  C   LIG     1     -28.861   1.720   5.897  0.00  0.00     0.158 A 
ATOM      3  C   LIG     1     -29.025   3.070   5.588  0.00  0.00     0.050 A 
ATOM      4  C   LIG     1     -28.014   3.982   5.890  0.00  0.00     0.012 A 
ATOM      5  C   LIG     1     -26.840   3.545   6.501  0.00  0.00    -0.021 A 
ATOM      6  C   LIG     1     -26.675   2.195   6.811  0.00  0.00     0.057 A 
ENDROOT
BRANCH   5   7
ATOM      7  C   LIG     1     -25.786   4.496   6.816  0.00  0.00     0.015 C 
ATOM      8  C   LIG     1     -24.793   4.296   7.712  0.00  0.00     0.092 C 
BRANCH   8   9
ATOM      9  C   LIG     1     -23.774   5.340   7.933  0.00  0.00     0.330 C 
ATOM     10  O   LIG     1     -23.409   6.180   7.126  0.00  0.00    -0.246 OA
BRANCH   9  11
ATOM     11  O   LIG     1     -23.298   5.222   9.195  0.00  0.00    -0.478 OA
ATOM     12  H   LIG     1     -24.003   4.978   9.832  0.00  0.00     0.295 HD
ENDBRANCH   9  11
ENDBRANCH   8   9
ENDBRANCH   5   7
BRANCH   1  13
ATOM     13  O   LIG     1     -27.515  -0.035   6.816  0.00  0.00    -0.491 OA
ATOM     14  C   LIG     1     -27.749  -0.418   8.170  0.00  0.00     0.277 C 
ENDBRANCH   1  13
BRANCH   2  15
ATOM     15  O   LIG     1     -29.856   0.838   5.598  0.00  0.00    -0.503 OA
ATOM     16  H   LIG     1     -30.677   1.128   6.033  0.00  0.00     0.292 HD
ENDBRANCH   2  15
TORSDOF 5
ENDMDL
MODEL 3
REMARK VINA RESULT:      -6.2      1.795      5.685
REMARK  5 active torsions:
REMARK  status: ('A' for Active; 'I' for Inactive)
REMARK    1  A    between atoms: C_3  and  O_1 
REMARK    2  A    between atoms: C_4  and  O_14 
REMARK    3  A    between atoms: C_7  and  C_8 
REMARK    4  A    between atoms: C_9  and  C_10 
REMARK    5  A    between atoms: C_10  and  O_12 
ROOT
ATOM      1  C   LIG     1     -31.912  11.565   0.236  0.00  0.00     0.162 A 
ATOM      2  C   LIG     1     -33.072  11.792   0.977  0.00  0.00     0.158 A 
ATOM      3  C   LIG     1     -34.253  12.154   0.329  0.00  0.00     0.050 A 
ATOM      4  C   LIG     1     -34.274  12.288  -1.059  0.00  0.00     0.012 A 
ATOM      5  C   LIG     1     -33.115  12.062  -1.799  0.00  0.00    -0.021 A 
ATOM      6  C   LIG     1     -31.933  11.700  -1.152  0.00  0.00     0.057 A 
ENDROOT
BRANCH   5   7
ATOM      7  C   LIG     1     -33.137  12.201  -3.246  0.00  0.00     0.015 C 
ATOM      8  C   LIG     1     -32.491  11.397  -4.120  0.00  0.00     0.092 C 
BRANCH   8   9
ATOM      9  C   LIG     1     -32.602  11.639  -5.572  0.00  0.00     0.330 C 
ATOM     10  O   LIG     1     -32.354  12.682  -6.154  0.00  0.00    -0.246 OA
BRANCH   9  11
ATOM     11  O   LIG     1     -33.030  10.503  -6.170  0.00  0.00    -0.478 OA
ATOM     12  H   LIG     1     -33.965  10.570  -6.460  0.00  0.00     0.295 HD
ENDBRANCH   9  11
ENDBRANCH   8   9
ENDBRANCH   5   7
BRANCH   1  13
ATOM     13  O   LIG     1     -30.751  11.213   0.858  0.00  0.00    -0.491 OA
ATOM     14  C   LIG     1     -30.403   9.830   0.841  0.00  0.00     0.277 C 
ENDBRANCH   1  13
BRANCH   2  15
ATOM     15  O   LIG     1     -33.063  11.665   2.333  0.00  0.00    -0.503 OA
ATOM     16  H   LIG     1     -33.980  11.686   2.659  0.00  0.00     0.292 HD
ENDBRANCH   2  15
TORSDOF 5
ENDMDL
MODEL 4
REMARK VINA RESULT:      -6.0     10.773     12.863
REMARK  5 active torsions:
REMARK  status: ('A' for Active; 'I' for Inactive)
REMARK    1  A    between atoms: C_3  and  O_1 
REMARK    2  A    between atoms: C_4  and  O_14 
REMARK    3  A    between atoms: C_7  and  C_8 
REMARK    4  A    between atoms: C_9  and  C_10 
REMARK    5  A    between atoms: C_10  and  O_12 
ROOT
ATOM      1  C   LIG     1     -28.624   3.016   5.242  0.00  0.00     0.162 A 
ATOM      2  C   LIG     1     -28.732   1.780   5.881  0.00  0.00     0.158 A 
ATOM      3  C   LIG     1     -27.778   1.397   6.823  0.00  0.00     0.050 A 
ATOM      4  C   LIG     1     -26.716   2.249   7.127  0.00  0.00     0.012 A 
ATOM      5  C   LIG     1     -26.609   3.484   6.488  0.00  0.00    -0.021 A 
ATOM      6  C   LIG     1     -27.562   3.868   5.546  0.00  0.00     0.057 A 
ENDROOT
BRANCH   5   7
ATOM      7  C   LIG     1     -25.502   4.373   6.806  0.00  0.00     0.015 C 
ATOM      8  C   LIG     1     -24.798   4.364   7.960  0.00  0.00     0.092 C 
BRANCH   8   9
ATOM      9  C   LIG     1     -23.687   5.316   8.157  0.00  0.00     0.330 C 
ATOM     10  O   LIG     1     -23.240   6.090   7.327  0.00  0.00    -0.246 OA
BRANCH   9  11
ATOM     11  O   LIG     1     -23.232   5.195   9.426  0.00  0.00    -0.478 OA
ATOM     12  H   LIG     1     -23.870   4.723  10.002  0.00  0.00     0.295 HD
ENDBRANCH   9  11
ENDBRANCH   8   9
ENDBRANCH   5   7
BRANCH   1  13
ATOM     13  O   LIG     1     -29.550   3.400   4.318  0.00  0.00    -0.491 OA
ATOM     14  C   LIG     1     -29.274   4.591   3.584  0.00  0.00     0.277 C 
ENDBRANCH   1  13
BRANCH   2  15
ATOM     15  O   LIG     1     -29.763   0.938   5.591  0.00  0.00    -0.503 OA
ATOM     16  H   LIG     1     -29.405   0.056   5.389  0.00  0.00     0.292 HD
ENDBRANCH   2  15
TORSDOF 5
ENDMDL
MODEL 5
REMARK VINA RESULT:      -6.0     10.550     12.173
REMARK  5 active torsions:
REMARK  status: ('A' for Active; 'I' for Inactive)
REMARK    1  A    between atoms: C_3  and  O_1 
REMARK    2  A    between atoms: C_4  and  O_14 
REMARK    3  A    between atoms: C_7  and  C_8 
REMARK    4  A    between atoms: C_9  and  C_10 
REMARK    5  A    between atoms: C_10  and  O_12 
ROOT
ATOM      1  C   LIG     1     -26.961   4.527   4.969  0.00  0.00     0.162 A 
ATOM      2  C   LIG     1     -27.991   5.030   4.173  0.00  0.00     0.158 A 
ATOM      3  C   LIG     1     -29.268   4.474   4.251  0.00  0.00     0.050 A 
ATOM      4  C   LIG     1     -29.515   3.414   5.125  0.00  0.00     0.012 A 
ATOM      5  C   LIG     1     -28.486   2.912   5.919  0.00  0.00    -0.021 A 
ATOM      6  C   LIG     1     -27.209   3.467   5.842  0.00  0.00     0.057 A 
ENDROOT
BRANCH   5   7
ATOM      7  C   LIG     1     -28.744   1.808   6.830  0.00  0.00     0.015 C 
ATOM      8  C   LIG     1     -27.798   1.046   7.424  0.00  0.00     0.092 C 
BRANCH   8   9
ATOM      9  C   LIG     1     -28.191  -0.043   8.340  0.00  0.00     0.330 C 
ATOM     10  O   LIG     1     -29.323  -0.299   8.718  0.00  0.00    -0.246 OA
BRANCH   9  11
ATOM     11  O   LIG     1     -27.081  -0.727   8.703  0.00  0.00    -0.478 OA
ATOM     12  H   LIG     1     -26.284  -0.411   8.228  0.00  0.00     0.295 HD
ENDBRANCH   9  11
ENDBRANCH   8   9
ENDBRANCH   5   7
BRANCH   1  13
ATOM     13  O   LIG     1     -25.710   5.061   4.901  0.00  0.00    -0.491 OA
ATOM     14  C   LIG     1     -25.097   5.434   6.133  0.00  0.00     0.277 C 
ENDBRANCH   1  13
BRANCH   2  15
ATOM     15  O   LIG     1     -27.762   6.063   3.316  0.00  0.00    -0.503 OA
ATOM     16  H   LIG     1     -28.140   5.844   2.447  0.00  0.00     0.292 HD
ENDBRANCH   2  15
TORSDOF 5
ENDMDL
MODEL 6
REMARK VINA RESULT:      -5.8      8.187     10.436
REMARK  5 active torsions:
REMARK  status: ('A' for Active; 'I' for Inactive)
REMARK    1  A    between atoms: C_3  and  O_1 
REMARK    2  A    between atoms: C_4  and  O_14 
REMARK    3  A    between atoms: C_7  and  C_8 
REMARK    4  A    between atoms: C_9  and  C_10 
REMARK    5  A    between atoms: C_10  and  O_12 
ROOT
ATOM      1  C   LIG     1     -28.152   7.418   5.935  0.00  0.00     0.162 A 
ATOM      2  C   LIG     1     -29.095   8.047   5.121  0.00  0.00     0.158 A 
ATOM      3  C   LIG     1     -29.882   7.291   4.253  0.00  0.00     0.050 A 
ATOM      4  C   LIG     1     -29.728   5.905   4.199  0.00  0.00     0.012 A 
ATOM      5  C   LIG     1     -28.787   5.277   5.012  0.00  0.00    -0.021 A 
ATOM      6  C   LIG     1     -27.998   6.032   5.880  0.00  0.00     0.057 A 
ENDROOT
BRANCH   5   7
ATOM      7  C   LIG     1     -28.627   3.833   4.957  0.00  0.00     0.015 C 
ATOM      8  C   LIG     1     -29.096   2.957   5.874  0.00  0.00     0.092 C 
BRANCH   8   9
ATOM      9  C   LIG     1     -28.875   1.509   5.697  0.00  0.00     0.330 C 
ATOM     10  O   LIG     1     -27.800   0.953   5.541  0.00  0.00    -0.246 OA
BRANCH   9  11
ATOM     11  O   LIG     1     -30.073   0.879   5.735  0.00  0.00    -0.478 OA
ATOM     12  H   LIG     1     -30.820   1.504   5.621  0.00  0.00     0.295 HD
ENDBRANCH   9  11
ENDBRANCH   8   9
ENDBRANCH   5   7
BRANCH   1  13
ATOM     13  O   LIG     1     -27.376   8.146   6.785  0.00  0.00    -0.491 OA
ATOM     14  C   LIG     1     -26.351   7.445   7.487  0.00  0.00     0.277 C 
ENDBRANCH   1  13
BRANCH   2  15
ATOM     15  O   LIG     1     -29.254   9.399   5.164  0.00  0.00    -0.503 OA
ATOM     16  H   LIG     1     -30.196   9.611   5.049  0.00  0.00     0.292 HD
ENDBRANCH   2  15
TORSDOF 5
ENDMDL
MODEL 7
REMARK VINA RESULT:      -5.7      7.897     10.427
REMARK  5 active torsions:
REMARK  status: ('A' for Active; 'I' for Inactive)
REMARK    1  A    between atoms: C_3  and  O_1 
REMARK    2  A    between atoms: C_4  and  O_14 
REMARK    3  A    between atoms: C_7  and  C_8 
REMARK    4  A    between atoms: C_9  and  C_10 
REMARK    5  A    between atoms: C_10  and  O_12 
ROOT
ATOM      1  C   LIG     1     -28.464   3.322   5.532  0.00  0.00     0.162 A 
ATOM      2  C   LIG     1     -27.565   3.826   6.473  0.00  0.00     0.158 A 
ATOM      3  C   LIG     1     -27.393   5.204   6.604  0.00  0.00     0.050 A 
ATOM      4  C   LIG     1     -28.119   6.078   5.794  0.00  0.00     0.012 A 
ATOM      5  C   LIG     1     -29.016   5.574   4.854  0.00  0.00    -0.021 A 
ATOM      6  C   LIG     1     -29.190   4.197   4.722  0.00  0.00     0.057 A 
ENDROOT
BRANCH   5   7
ATOM      7  C   LIG     1     -29.773   6.486   4.011  0.00  0.00     0.015 C 
ATOM      8  C   LIG     1     -30.068   7.770   4.314  0.00  0.00     0.092 C 
BRANCH   8   9
ATOM      9  C   LIG     1     -30.839   8.597   3.365  0.00  0.00     0.330 C 
ATOM     10  O   LIG     1     -32.025   8.874   3.442  0.00  0.00    -0.246 OA
BRANCH   9  11
ATOM     11  O   LIG     1     -30.011   9.010   2.378  0.00  0.00    -0.478 OA
ATOM     12  H   LIG     1     -30.436   8.957   1.495  0.00  0.00     0.295 HD
ENDBRANCH   9  11
ENDBRANCH   8   9
ENDBRANCH   5   7
BRANCH   1  13
ATOM     13  O   LIG     1     -28.640   1.978   5.393  0.00  0.00    -0.491 OA
ATOM     14  C   LIG     1     -29.752   1.398   6.072  0.00  0.00     0.277 C 
ENDBRANCH   1  13
BRANCH   2  15
ATOM     15  O   LIG     1     -26.850   2.983   7.268  0.00  0.00    -0.503 OA
ATOM     16  H   LIG     1     -27.019   2.066   6.990  0.00  0.00     0.292 HD
ENDBRANCH   2  15
TORSDOF 5
ENDMDL
MODEL 8
REMARK VINA RESULT:      -5.7      7.025      8.486
REMARK  5 active torsions:
REMARK  status: ('A' for Active; 'I' for Inactive)
REMARK    1  A    between atoms: C_3  and  O_1 
REMARK    2  A    between atoms: C_4  and  O_14 
REMARK    3  A    between atoms: C_7  and  C_8 
REMARK    4  A    between atoms: C_9  and  C_10 
REMARK    5  A    between atoms: C_10  and  O_12 
ROOT
ATOM      1  C   LIG     1     -29.451   7.350   1.949  0.00  0.00     0.162 A 
ATOM      2  C   LIG     1     -29.957   8.263   2.874  0.00  0.00     0.158 A 
ATOM      3  C   LIG     1     -30.149   7.878   4.201  0.00  0.00     0.050 A 
ATOM      4  C   LIG     1     -29.835   6.580   4.603  0.00  0.00     0.012 A 
ATOM      5  C   LIG     1     -29.330   5.667   3.678  0.00  0.00    -0.021 A 
ATOM      6  C   LIG     1     -29.137   6.051   2.351  0.00  0.00     0.057 A 
ENDROOT
BRANCH   5   7
ATOM      7  C   LIG     1     -29.002   4.314   4.098  0.00  0.00     0.015 C 
ATOM      8  C   LIG     1     -29.666   3.603   5.036  0.00  0.00     0.092 C 
BRANCH   8   9
ATOM      9  C   LIG     1     -29.238   2.229   5.366  0.00  0.00     0.330 C 
ATOM     10  O   LIG     1     -28.089   1.843   5.511  0.00  0.00    -0.246 OA
BRANCH   9  11
ATOM     11  O   LIG     1     -30.337   1.448   5.486  0.00  0.00    -0.478 OA
ATOM     12  H   LIG     1     -30.171   0.666   6.053  0.00  0.00     0.295 HD
ENDBRANCH   9  11
ENDBRANCH   8   9
ENDBRANCH   5   7
BRANCH   1  13
ATOM     13  O   LIG     1     -29.260   7.714   0.650  0.00  0.00    -0.491 OA
ATOM     14  C   LIG     1     -30.036   7.032  -0.334  0.00  0.00     0.277 C 
ENDBRANCH   1  13
BRANCH   2  15
ATOM     15  O   LIG     1     -30.268   9.534   2.494  0.00  0.00    -0.503 OA
ATOM     16  H   LIG     1     -31.022   9.504   1.879  0.00  0.00     0.292 HD
ENDBRANCH   2  15
TORSDOF 5
ENDMDL
MODEL 9
REMARK VINA RESULT:      -5.6      8.912     11.278
REMARK  5 active torsions:
REMARK  status: ('A' for Active; 'I' for Inactive)
REMARK    1  A    between atoms: C_3  and  O_1 
REMARK    2  A    between atoms: C_4  and  O_14 
REMARK    3  A    between atoms: C_7  and  C_8 
REMARK    4  A    between atoms: C_9  and  C_10 
REMARK    5  A    between atoms: C_10  and  O_12 
ROOT
ATOM      1  C   LIG     1     -27.300   3.266   6.261  0.00  0.00     0.162 A 
ATOM      2  C   LIG     1     -28.227   2.351   6.762  0.00  0.00     0.158 A 
ATOM      3  C   LIG     1     -29.499   2.268   6.198  0.00  0.00     0.050 A 
ATOM      4  C   LIG     1     -29.847   3.100   5.134  0.00  0.00     0.012 A 
ATOM      5  C   LIG     1     -28.922   4.014   4.633  0.00  0.00    -0.021 A 
ATOM      6  C   LIG     1     -27.648   4.098   5.196  0.00  0.00     0.057 A 
ENDROOT
BRANCH   5   7
ATOM      7  C   LIG     1     -29.283   4.881   3.523  0.00  0.00     0.015 C 
ATOM      8  C   LIG     1     -29.278   6.232   3.551  0.00  0.00     0.092 C 
BRANCH   8   9
ATOM      9  C   LIG     1     -29.658   7.000   2.349  0.00  0.00     0.330 C 
ATOM     10  O   LIG     1     -29.340   6.749   1.198  0.00  0.00    -0.246 OA
BRANCH   9  11
ATOM     11  O   LIG     1     -30.431   8.044   2.727  0.00  0.00    -0.478 OA
ATOM     12  H   LIG     1     -30.249   8.848   2.195  0.00  0.00     0.295 HD
ENDBRANCH   9  11
ENDBRANCH   8   9
ENDBRANCH   5   7
BRANCH   1  13
ATOM     13  O   LIG     1     -26.054   3.358   6.804  0.00  0.00    -0.491 OA
ATOM     14  C   LIG     1     -25.400   4.622   6.714  0.00  0.00     0.277 C 
ENDBRANCH   1  13
BRANCH   2  15
ATOM     15  O   LIG     1     -27.899   1.534   7.802  0.00  0.00    -0.503 OA
ATOM     16  H   LIG     1     -27.035   1.805   8.158  0.00  0.00     0.292 HD
ENDBRANCH   2  15
TORSDOF 5
ENDMDL
