MODEL 1
REMARK VINA RESULT:      -7.6      0.000      0.000
REMARK  Name = 9823887
REMARK                            x       y       z     vdW  Elec       q    Type
REMARK                         _______ _______ _______ _____ _____    ______ ____
ROOT
ATOM      1  O   LIG    1        6.445  43.438  20.834  0.00  0.00    -0.341 OA
ATOM      2  C   LIG    1        5.487  43.635  19.797  0.00  0.00    +0.282 C 
ATOM      3  C   LIG    1        5.853  44.858  18.954  0.00  0.00    +0.201 C 
ATOM      4  C   LIG    1        7.285  44.763  18.428  0.00  0.00    +0.179 C 
ATOM      5  C   LIG    1        8.261  44.393  19.544  0.00  0.00    +0.177 C 
ATOM     22  C   LIG    1        7.756  43.180  20.329  0.00  0.00    +0.178 C 
ENDROOT
BRANCH   5   6
ATOM      6  O   LIG    1        9.534  44.091  18.977  0.00  0.00    -0.386 OA
ATOM      7  H   LIG    1       10.215  44.521  19.522  0.00  0.00    +0.210 HD
ENDBRANCH   5   6
BRANCH   4   8
ATOM      8  O   LIG    1        7.681  46.028  17.896  0.00  0.00    -0.386 OA
ATOM      9  H   LIG    1        8.600  45.941  17.591  0.00  0.00    +0.210 HD
ENDBRANCH   4   8
BRANCH   3  10
ATOM     10  O   LIG    1        4.947  44.930  17.854  0.00  0.00    -0.384 OA
ATOM     11  H   LIG    1        5.331  45.521  17.185  0.00  0.00    +0.210 HD
ENDBRANCH   3  10
BRANCH   2  12
ATOM     12  O   LIG    1        4.199  43.861  20.366  0.00  0.00    -0.345 OA
BRANCH  12  13
ATOM     13  C   LIG    1        3.316  42.786  20.091  0.00  0.00    +0.190 C 
BRANCH  13  14
ATOM     14  C   LIG    1        3.122  41.990  21.341  0.00  0.00    +0.001 C 
ATOM     15  C   LIG    1        2.970  42.546  22.553  0.00  0.00    +0.006 C 
BRANCH  15  16
ATOM     16  C   LIG    1        2.762  41.804  23.808  0.00  0.00    -0.025 A 
ATOM     17  C   LIG    1        3.358  42.259  24.974  0.00  0.00    +0.008 A 
ATOM     18  C   LIG    1        3.160  41.556  26.161  0.00  0.00    +0.001 A 
ATOM     19  C   LIG    1        2.371  40.406  26.169  0.00  0.00    +0.000 A 
ATOM     20  C   LIG    1        1.778  39.959  24.989  0.00  0.00    +0.001 A 
ATOM     21  C   LIG    1        1.975  40.663  23.800  0.00  0.00    +0.008 A 
ENDBRANCH  15  16
ENDBRANCH  13  14
ENDBRANCH  12  13
ENDBRANCH   2  12
BRANCH  22  23
ATOM     23  C   LIG    1        8.655  42.863  21.520  0.00  0.00    +0.197 C 
BRANCH  23  24
ATOM     24  O   LIG    1        9.368  44.035  21.871  0.00  0.00    -0.346 OA
BRANCH  24  25
ATOM     25  C   LIG    1        8.777  44.701  22.982  0.00  0.00    +0.281 C 
ATOM     26  C   LIG    1        9.153  43.978  24.285  0.00  0.00    +0.201 C 
ATOM     27  C   LIG    1       10.609  44.238  24.688  0.00  0.00    +0.178 C 
ATOM     28  C   LIG    1       10.909  45.737  24.639  0.00  0.00    +0.171 C 
ATOM     29  C   LIG    1       10.513  46.320  23.289  0.00  0.00    +0.197 C 
ATOM     36  O   LIG    1        9.130  46.088  23.028  0.00  0.00    -0.346 OA
BRANCH  28  30
ATOM     30  O   LIG    1       12.290  45.961  24.889  0.00  0.00    -0.387 OA
ATOM     31  H   LIG    1       12.756  45.121  24.737  0.00  0.00    +0.210 HD
ENDBRANCH  28  30
BRANCH  27  32
ATOM     32  O   LIG    1       11.482  43.553  23.792  0.00  0.00    -0.386 OA
ATOM     33  H   LIG    1       12.044  42.964  24.324  0.00  0.00    +0.210 HD
ENDBRANCH  27  32
BRANCH  26  34
ATOM     34  O   LIG    1        8.287  44.447  25.315  0.00  0.00    -0.384 OA
ATOM     35  H   LIG    1        7.404  44.069  25.171  0.00  0.00    +0.210 HD
ENDBRANCH  26  34
ENDBRANCH  24  25
ENDBRANCH  23  24
ENDBRANCH  22  23
TORSDOF 13
ENDMDL
MODEL 2
REMARK VINA RESULT:      -7.6      2.340      3.010
REMARK  Name = 9823887
REMARK                            x       y       z     vdW  Elec       q    Type
REMARK                         _______ _______ _______ _____ _____    ______ ____
ROOT
ATOM      1  O   LIG    1        7.022  44.267  21.404  0.00  0.00    -0.341 OA
ATOM      2  C   LIG    1        6.111  44.379  20.313  0.00  0.00    +0.282 C 
ATOM      3  C   LIG    1        6.116  45.803  19.755  0.00  0.00    +0.201 C 
ATOM      4  C   LIG    1        7.530  46.255  19.395  0.00  0.00    +0.179 C 
ATOM      5  C   LIG    1        8.510  45.971  20.533  0.00  0.00    +0.177 C 
ATOM     22  C   LIG    1        8.373  44.527  21.020  0.00  0.00    +0.178 C 
ENDROOT
BRANCH   5   6
ATOM      6  O   LIG    1        9.842  46.191  20.075  0.00  0.00    -0.386 OA
ATOM      7  H   LIG    1       10.339  46.620  20.794  0.00  0.00    +0.210 HD
ENDBRANCH   5   6
BRANCH   4   8
ATOM      8  O   LIG    1        7.532  47.663  19.151  0.00  0.00    -0.386 OA
ATOM      9  H   LIG    1        7.281  48.102  19.981  0.00  0.00    +0.210 HD
ENDBRANCH   4   8
BRANCH   3  10
ATOM     10  O   LIG    1        5.297  45.828  18.587  0.00  0.00    -0.384 OA
ATOM     11  H   LIG    1        5.742  46.376  17.919  0.00  0.00    +0.210 HD
ENDBRANCH   3  10
BRANCH   2  12
ATOM     12  O   LIG    1        4.789  44.084  20.757  0.00  0.00    -0.345 OA
BRANCH  12  13
ATOM     13  C   LIG    1        4.441  44.855  21.896  0.00  0.00    +0.190 C 
BRANCH  13  14
ATOM     14  C   LIG    1        3.983  43.933  22.980  0.00  0.00    +0.001 C 
ATOM     15  C   LIG    1        3.326  42.787  22.744  0.00  0.00    +0.006 C 
BRANCH  15  16
ATOM     16  C   LIG    1        2.868  41.842  23.777  0.00  0.00    -0.025 A 
ATOM     17  C   LIG    1        3.269  42.025  25.091  0.00  0.00    +0.008 A 
ATOM     18  C   LIG    1        2.835  41.131  26.068  0.00  0.00    +0.001 A 
ATOM     19  C   LIG    1        2.007  40.064  25.720  0.00  0.00    +0.000 A 
ATOM     20  C   LIG    1        1.612  39.891  24.394  0.00  0.00    +0.001 A 
ATOM     21  C   LIG    1        2.046  40.787  23.416  0.00  0.00    +0.008 A 
ENDBRANCH  15  16
ENDBRANCH  13  14
ENDBRANCH  12  13
ENDBRANCH   2  12
BRANCH  22  23
ATOM     23  C   LIG    1        9.258  44.253  22.232  0.00  0.00    +0.197 C 
BRANCH  23  24
ATOM     24  O   LIG    1       10.612  44.293  21.820  0.00  0.00    -0.346 OA
BRANCH  24  25
ATOM     25  C   LIG    1       11.303  43.095  22.157  0.00  0.00    +0.281 C 
ATOM     26  C   LIG    1       11.421  42.194  20.918  0.00  0.00    +0.201 C 
ATOM     27  C   LIG    1       12.465  42.715  19.924  0.00  0.00    +0.178 C 
ATOM     28  C   LIG    1       13.772  43.034  20.652  0.00  0.00    +0.171 C 
ATOM     29  C   LIG    1       13.515  43.952  21.840  0.00  0.00    +0.197 C 
ATOM     36  O   LIG    1       12.583  43.359  22.741  0.00  0.00    -0.346 OA
BRANCH  28  30
ATOM     30  O   LIG    1       14.691  43.635  19.751  0.00  0.00    -0.387 OA
ATOM     31  H   LIG    1       15.176  44.321  20.240  0.00  0.00    +0.210 HD
ENDBRANCH  28  30
BRANCH  27  32
ATOM     32  O   LIG    1       11.975  43.898  19.294  0.00  0.00    -0.386 OA
ATOM     33  H   LIG    1       12.284  43.887  18.372  0.00  0.00    +0.210 HD
ENDBRANCH  27  32
BRANCH  26  34
ATOM     34  O   LIG    1       11.796  40.890  21.356  0.00  0.00    -0.384 OA
ATOM     35  H   LIG    1       12.750  40.777  21.207  0.00  0.00    +0.210 HD
ENDBRANCH  26  34
ENDBRANCH  24  25
ENDBRANCH  23  24
ENDBRANCH  22  23
TORSDOF 13
ENDMDL
MODEL 3
REMARK VINA RESULT:      -7.6      1.259      1.913
REMARK  Name = 9823887
REMARK                            x       y       z     vdW  Elec       q    Type
REMARK                         _______ _______ _______ _____ _____    ______ ____
ROOT
ATOM      1  O   LIG    1        7.325  43.345  19.976  0.00  0.00    -0.341 OA
ATOM      2  C   LIG    1        6.256  43.842  19.174  0.00  0.00    +0.282 C 
ATOM      3  C   LIG    1        6.198  45.368  19.244  0.00  0.00    +0.201 C 
ATOM      4  C   LIG    1        7.546  45.993  18.887  0.00  0.00    +0.179 C 
ATOM      5  C   LIG    1        8.687  45.324  19.651  0.00  0.00    +0.177 C 
ATOM     22  C   LIG    1        8.603  43.800  19.529  0.00  0.00    +0.178 C 
ENDROOT
BRANCH   5   6
ATOM      6  O   LIG    1        9.934  45.771  19.125  0.00  0.00    -0.386 OA
ATOM      7  H   LIG    1       10.400  44.998  18.761  0.00  0.00    +0.210 HD
ENDBRANCH   5   6
BRANCH   4   8
ATOM      8  O   LIG    1        7.535  47.379  19.234  0.00  0.00    -0.386 OA
ATOM      9  H   LIG    1        6.684  47.746  18.941  0.00  0.00    +0.210 HD
ENDBRANCH   4   8
BRANCH   3  10
ATOM     10  O   LIG    1        5.206  45.821  18.323  0.00  0.00    -0.384 OA
ATOM     11  H   LIG    1        5.591  46.540  17.795  0.00  0.00    +0.210 HD
ENDBRANCH   3  10
BRANCH   2  12
ATOM     12  O   LIG    1        5.014  43.331  19.655  0.00  0.00    -0.345 OA
BRANCH  12  13
ATOM     13  C   LIG    1        4.701  43.857  20.935  0.00  0.00    +0.190 C 
BRANCH  13  14
ATOM     14  C   LIG    1        4.050  42.785  21.750  0.00  0.00    +0.001 C 
ATOM     15  C   LIG    1        3.696  42.949  23.034  0.00  0.00    +0.006 C 
BRANCH  15  16
ATOM     16  C   LIG    1        3.040  41.928  23.870  0.00  0.00    -0.025 A 
ATOM     17  C   LIG    1        3.280  41.912  25.235  0.00  0.00    +0.008 A 
ATOM     18  C   LIG    1        2.659  40.946  26.026  0.00  0.00    +0.001 A 
ATOM     19  C   LIG    1        1.808  40.008  25.443  0.00  0.00    +0.000 A 
ATOM     20  C   LIG    1        1.576  40.036  24.068  0.00  0.00    +0.001 A 
ATOM     21  C   LIG    1        2.196  41.003  23.276  0.00  0.00    +0.008 A 
ENDBRANCH  15  16
ENDBRANCH  13  14
ENDBRANCH  12  13
ENDBRANCH   2  12
BRANCH  22  23
ATOM     23  C   LIG    1        9.663  43.105  20.379  0.00  0.00    +0.197 C 
BRANCH  23  24
ATOM     24  O   LIG    1       10.082  43.998  21.394  0.00  0.00    -0.346 OA
BRANCH  24  25
ATOM     25  C   LIG    1       10.065  43.384  22.678  0.00  0.00    +0.281 C 
ATOM     26  C   LIG    1       10.716  44.315  23.713  0.00  0.00    +0.201 C 
ATOM     27  C   LIG    1        9.808  45.494  24.079  0.00  0.00    +0.178 C 
ATOM     28  C   LIG    1        8.402  44.992  24.415  0.00  0.00    +0.171 C 
ATOM     29  C   LIG    1        7.868  44.103  23.299  0.00  0.00    +0.197 C 
ATOM     36  O   LIG    1        8.743  43.000  23.072  0.00  0.00    -0.346 OA
BRANCH  28  30
ATOM     30  O   LIG    1        7.534  46.095  24.629  0.00  0.00    -0.387 OA
ATOM     31  H   LIG    1        7.245  46.066  25.557  0.00  0.00    +0.210 HD
ENDBRANCH  28  30
BRANCH  27  32
ATOM     32  O   LIG    1        9.734  46.399  22.978  0.00  0.00    -0.386 OA
ATOM     33  H   LIG    1       10.237  46.008  22.244  0.00  0.00    +0.210 HD
ENDBRANCH  27  32
BRANCH  26  34
ATOM     34  O   LIG    1       10.990  43.549  24.884  0.00  0.00    -0.384 OA
ATOM     35  H   LIG    1       10.527  42.698  24.811  0.00  0.00    +0.210 HD
ENDBRANCH  26  34
ENDBRANCH  24  25
ENDBRANCH  23  24
ENDBRANCH  22  23
TORSDOF 13
ENDMDL
MODEL 4
REMARK VINA RESULT:      -7.6      1.874      2.954
REMARK  Name = 9823887
REMARK                            x       y       z     vdW  Elec       q    Type
REMARK                         _______ _______ _______ _____ _____    ______ ____
ROOT
ATOM      1  O   LIG    1        6.836  44.650  21.508  0.00  0.00    -0.341 OA
ATOM      2  C   LIG    1        6.108  44.516  20.290  0.00  0.00    +0.282 C 
ATOM      3  C   LIG    1        6.030  45.859  19.563  0.00  0.00    +0.201 C 
ATOM      4  C   LIG    1        7.419  46.464  19.360  0.00  0.00    +0.179 C 
ATOM      5  C   LIG    1        8.227  46.443  20.656  0.00  0.00    +0.177 C 
ATOM     22  C   LIG    1        8.190  45.053  21.297  0.00  0.00    +0.178 C 
ENDROOT
BRANCH   5   6
ATOM      6  O   LIG    1        9.579  46.797  20.375  0.00  0.00    -0.386 OA
ATOM      7  H   LIG    1        9.887  46.241  19.639  0.00  0.00    +0.210 HD
ENDBRANCH   5   6
BRANCH   4   8
ATOM      8  O   LIG    1        7.289  47.824  18.942  0.00  0.00    -0.386 OA
ATOM      9  H   LIG    1        6.932  48.326  19.694  0.00  0.00    +0.210 HD
ENDBRANCH   4   8
BRANCH   3  10
ATOM     10  O   LIG    1        5.415  45.645  18.293  0.00  0.00    -0.384 OA
ATOM     11  H   LIG    1        5.047  46.491  17.989  0.00  0.00    +0.210 HD
ENDBRANCH   3  10
BRANCH   2  12
ATOM     12  O   LIG    1        4.777  44.088  20.568  0.00  0.00    -0.345 OA
BRANCH  12  13
ATOM     13  C   LIG    1        4.153  44.927  21.527  0.00  0.00    +0.190 C 
BRANCH  13  14
ATOM     14  C   LIG    1        3.781  44.103  22.718  0.00  0.00    +0.001 C 
ATOM     15  C   LIG    1        3.323  42.845  22.630  0.00  0.00    +0.006 C 
BRANCH  15  16
ATOM     16  C   LIG    1        2.958  41.992  23.774  0.00  0.00    -0.025 A 
ATOM     17  C   LIG    1        2.137  40.894  23.568  0.00  0.00    +0.008 A 
ATOM     18  C   LIG    1        1.792  40.087  24.652  0.00  0.00    +0.001 A 
ATOM     19  C   LIG    1        2.271  40.388  25.927  0.00  0.00    +0.000 A 
ATOM     20  C   LIG    1        3.096  41.495  26.119  0.00  0.00    +0.001 A 
ATOM     21  C   LIG    1        3.441  42.303  25.035  0.00  0.00    +0.008 A 
ENDBRANCH  15  16
ENDBRANCH  13  14
ENDBRANCH  12  13
ENDBRANCH   2  12
BRANCH  22  23
ATOM     23  C   LIG    1        8.892  45.037  22.652  0.00  0.00    +0.197 C 
BRANCH  23  24
ATOM     24  O   LIG    1        9.349  43.721  22.906  0.00  0.00    -0.346 OA
BRANCH  24  25
ATOM     25  C   LIG    1        9.534  43.486  24.298  0.00  0.00    +0.281 C 
ATOM     26  C   LIG    1        8.180  43.546  25.023  0.00  0.00    +0.201 C 
ATOM     27  C   LIG    1        7.328  42.301  24.754  0.00  0.00    +0.178 C 
ATOM     28  C   LIG    1        8.157  41.036  24.981  0.00  0.00    +0.171 C 
ATOM     29  C   LIG    1        9.456  41.097  24.188  0.00  0.00    +0.197 C 
ATOM     36  O   LIG    1       10.212  42.250  24.549  0.00  0.00    -0.346 OA
BRANCH  28  30
ATOM     30  O   LIG    1        7.402  39.891  24.609  0.00  0.00    -0.387 OA
ATOM     31  H   LIG    1        6.553  39.933  25.081  0.00  0.00    +0.210 HD
ENDBRANCH  28  30
BRANCH  27  32
ATOM     32  O   LIG    1        6.861  42.324  23.407  0.00  0.00    -0.386 OA
ATOM     33  H   LIG    1        5.912  42.538  23.429  0.00  0.00    +0.210 HD
ENDBRANCH  27  32
BRANCH  26  34
ATOM     34  O   LIG    1        8.433  43.652  26.422  0.00  0.00    -0.384 OA
ATOM     35  H   LIG    1        9.351  43.380  26.590  0.00  0.00    +0.210 HD
ENDBRANCH  26  34
ENDBRANCH  24  25
ENDBRANCH  23  24
ENDBRANCH  22  23
TORSDOF 13
ENDMDL
MODEL 5
REMARK VINA RESULT:      -7.6      2.744      5.277
REMARK  Name = 9823887
REMARK                            x       y       z     vdW  Elec       q    Type
REMARK                         _______ _______ _______ _____ _____    ______ ____
ROOT
ATOM      1  O   LIG    1        4.876  41.983  21.938  0.00  0.00    -0.341 OA
ATOM      2  C   LIG    1        3.882  41.116  22.479  0.00  0.00    +0.282 C 
ATOM      3  C   LIG    1        2.483  41.673  22.212  0.00  0.00    +0.201 C 
ATOM      4  C   LIG    1        2.273  41.960  20.725  0.00  0.00    +0.179 C 
ATOM      5  C   LIG    1        3.440  42.757  20.145  0.00  0.00    +0.177 C 
ATOM     22  C   LIG    1        4.777  42.112  20.519  0.00  0.00    +0.178 C 
ENDROOT
BRANCH   5   6
ATOM      6  O   LIG    1        3.320  42.803  18.725  0.00  0.00    -0.386 OA
ATOM      7  H   LIG    1        4.213  42.725  18.346  0.00  0.00    +0.210 HD
ENDBRANCH   5   6
BRANCH   4   8
ATOM      8  O   LIG    1        1.083  42.731  20.554  0.00  0.00    -0.386 OA
ATOM      9  H   LIG    1        1.077  43.056  19.637  0.00  0.00    +0.210 HD
ENDBRANCH   4   8
BRANCH   3  10
ATOM     10  O   LIG    1        1.527  40.707  22.648  0.00  0.00    -0.384 OA
ATOM     11  H   LIG    1        1.828  39.831  22.356  0.00  0.00    +0.210 HD
ENDBRANCH   3  10
BRANCH   2  12
ATOM     12  O   LIG    1        4.051  41.010  23.891  0.00  0.00    -0.345 OA
BRANCH  12  13
ATOM     13  C   LIG    1        3.955  42.278  24.520  0.00  0.00    +0.190 C 
BRANCH  13  14
ATOM     14  C   LIG    1        3.462  42.086  25.918  0.00  0.00    +0.001 C 
ATOM     15  C   LIG    1        3.096  40.894  26.413  0.00  0.00    +0.006 C 
BRANCH  15  16
ATOM     16  C   LIG    1        2.618  40.655  27.786  0.00  0.00    -0.025 A 
ATOM     17  C   LIG    1        1.941  39.481  28.075  0.00  0.00    +0.008 A 
ATOM     18  C   LIG    1        1.489  39.256  29.375  0.00  0.00    +0.001 A 
ATOM     19  C   LIG    1        1.719  40.207  30.369  0.00  0.00    +0.000 A 
ATOM     20  C   LIG    1        2.402  41.384  30.064  0.00  0.00    +0.001 A 
ATOM     21  C   LIG    1        2.854  41.609  28.763  0.00  0.00    +0.008 A 
ENDBRANCH  15  16
ENDBRANCH  13  14
ENDBRANCH  12  13
ENDBRANCH   2  12
BRANCH  22  23
ATOM     23  C   LIG    1        5.961  42.953  20.049  0.00  0.00    +0.197 C 
BRANCH  23  24
ATOM     24  O   LIG    1        5.527  44.292  19.888  0.00  0.00    -0.346 OA
BRANCH  24  25
ATOM     25  C   LIG    1        6.022  45.135  20.923  0.00  0.00    +0.281 C 
ATOM     26  C   LIG    1        7.498  45.472  20.662  0.00  0.00    +0.201 C 
ATOM     27  C   LIG    1        7.666  46.485  19.524  0.00  0.00    +0.178 C 
ATOM     28  C   LIG    1        6.732  47.677  19.738  0.00  0.00    +0.171 C 
ATOM     29  C   LIG    1        5.300  47.204  19.959  0.00  0.00    +0.197 C 
ATOM     36  O   LIG    1        5.230  46.319  21.075  0.00  0.00    -0.346 OA
BRANCH  28  30
ATOM     30  O   LIG    1        6.798  48.549  18.619  0.00  0.00    -0.387 OA
ATOM     31  H   LIG    1        7.363  49.301  18.866  0.00  0.00    +0.210 HD
ENDBRANCH  28  30
BRANCH  27  32
ATOM     32  O   LIG    1        7.356  45.860  18.279  0.00  0.00    -0.386 OA
ATOM     33  H   LIG    1        7.002  46.547  17.688  0.00  0.00    +0.210 HD
ENDBRANCH  27  32
BRANCH  26  34
ATOM     34  O   LIG    1        8.045  46.014  21.861  0.00  0.00    -0.384 OA
ATOM     35  H   LIG    1        7.365  46.559  22.291  0.00  0.00    +0.210 HD
ENDBRANCH  26  34
ENDBRANCH  24  25
ENDBRANCH  23  24
ENDBRANCH  22  23
TORSDOF 13
ENDMDL
MODEL 6
REMARK VINA RESULT:      -7.4      3.432      8.232
REMARK  Name = 9823887
REMARK                            x       y       z     vdW  Elec       q    Type
REMARK                         _______ _______ _______ _____ _____    ______ ____
ROOT
ATOM      1  O   LIG    1        8.074  43.742  20.070  0.00  0.00    -0.341 OA
ATOM      2  C   LIG    1        8.775  44.741  20.806  0.00  0.00    +0.282 C 
ATOM      3  C   LIG    1        8.810  46.056  20.025  0.00  0.00    +0.201 C 
ATOM      4  C   LIG    1        7.406  46.498  19.616  0.00  0.00    +0.179 C 
ATOM      5  C   LIG    1        6.630  45.350  18.973  0.00  0.00    +0.177 C 
ATOM     22  C   LIG    1        6.708  44.089  19.837  0.00  0.00    +0.178 C 
ENDROOT
BRANCH   5   6
ATOM      6  O   LIG    1        5.265  45.731  18.818  0.00  0.00    -0.386 OA
ATOM      7  H   LIG    1        5.133  46.005  17.894  0.00  0.00    +0.210 HD
ENDBRANCH   5   6
BRANCH   4   8
ATOM      8  O   LIG    1        7.500  47.557  18.662  0.00  0.00    -0.386 OA
ATOM      9  H   LIG    1        6.949  48.290  18.985  0.00  0.00    +0.210 HD
ENDBRANCH   4   8
BRANCH   3  10
ATOM     10  O   LIG    1        9.399  47.055  20.858  0.00  0.00    -0.384 OA
ATOM     11  H   LIG    1        9.227  47.922  20.455  0.00  0.00    +0.210 HD
ENDBRANCH   3  10
BRANCH   2  12
ATOM     12  O   LIG    1       10.121  44.323  21.026  0.00  0.00    -0.345 OA
BRANCH  12  13
ATOM     13  C   LIG    1       10.433  43.166  20.268  0.00  0.00    +0.190 C 
BRANCH  13  14
ATOM     14  C   LIG    1       11.870  42.818  20.489  0.00  0.00    +0.001 C 
ATOM     15  C   LIG    1       12.270  41.783  21.245  0.00  0.00    +0.006 C 
BRANCH  15  16
ATOM     16  C   LIG    1       13.671  41.394  21.480  0.00  0.00    -0.025 A 
ATOM     17  C   LIG    1       13.962  40.464  22.465  0.00  0.00    +0.008 A 
ATOM     18  C   LIG    1       15.288  40.096  22.686  0.00  0.00    +0.001 A 
ATOM     19  C   LIG    1       16.307  40.663  21.922  0.00  0.00    +0.000 A 
ATOM     20  C   LIG    1       16.000  41.599  20.934  0.00  0.00    +0.001 A 
ATOM     21  C   LIG    1       14.673  41.967  20.712  0.00  0.00    +0.008 A 
ENDBRANCH  15  16
ENDBRANCH  13  14
ENDBRANCH  12  13
ENDBRANCH   2  12
BRANCH  22  23
ATOM     23  C   LIG    1        6.039  42.897  19.160  0.00  0.00    +0.197 C 
BRANCH  23  24
ATOM     24  O   LIG    1        4.763  42.705  19.743  0.00  0.00    -0.346 OA
BRANCH  24  25
ATOM     25  C   LIG    1        4.758  43.043  21.126  0.00  0.00    +0.281 C 
ATOM     26  C   LIG    1        3.453  43.771  21.482  0.00  0.00    +0.201 C 
ATOM     27  C   LIG    1        2.257  42.815  21.539  0.00  0.00    +0.178 C 
ATOM     28  C   LIG    1        2.600  41.593  22.392  0.00  0.00    +0.171 C 
ATOM     29  C   LIG    1        3.899  40.955  21.918  0.00  0.00    +0.197 C 
ATOM     36  O   LIG    1        4.967  41.898  21.960  0.00  0.00    -0.346 OA
BRANCH  28  30
ATOM     30  O   LIG    1        1.536  40.653  22.338  0.00  0.00    -0.387 OA
ATOM     31  H   LIG    1        1.910  39.804  22.043  0.00  0.00    +0.210 HD
ENDBRANCH  28  30
BRANCH  27  32
ATOM     32  O   LIG    1        1.923  42.389  20.219  0.00  0.00    -0.386 OA
ATOM     33  H   LIG    1        0.956  42.448  20.128  0.00  0.00    +0.210 HD
ENDBRANCH  27  32
BRANCH  26  34
ATOM     34  O   LIG    1        3.625  44.388  22.755  0.00  0.00    -0.384 OA
ATOM     35  H   LIG    1        3.246  45.282  22.718  0.00  0.00    +0.210 HD
ENDBRANCH  26  34
ENDBRANCH  24  25
ENDBRANCH  23  24
ENDBRANCH  22  23
TORSDOF 13
ENDMDL
MODEL 7
REMARK VINA RESULT:      -7.4      1.567      2.383
REMARK  Name = 9823887
REMARK                            x       y       z     vdW  Elec       q    Type
REMARK                         _______ _______ _______ _____ _____    ______ ____
ROOT
ATOM      1  O   LIG    1        6.775  44.530  21.450  0.00  0.00    -0.341 OA
ATOM      2  C   LIG    1        6.232  44.365  20.142  0.00  0.00    +0.282 C 
ATOM      3  C   LIG    1        6.169  45.709  19.415  0.00  0.00    +0.201 C 
ATOM      4  C   LIG    1        7.530  46.402  19.408  0.00  0.00    +0.179 C 
ATOM      5  C   LIG    1        8.152  46.418  20.804  0.00  0.00    +0.177 C 
ATOM     22  C   LIG    1        8.116  45.021  21.430  0.00  0.00    +0.178 C 
ENDROOT
BRANCH   5   6
ATOM      6  O   LIG    1        9.504  46.860  20.714  0.00  0.00    -0.386 OA
ATOM      7  H   LIG    1        9.980  46.527  21.494  0.00  0.00    +0.210 HD
ENDBRANCH   5   6
BRANCH   4   8
ATOM      8  O   LIG    1        7.372  47.756  18.980  0.00  0.00    -0.386 OA
ATOM      9  H   LIG    1        8.188  48.232  19.212  0.00  0.00    +0.210 HD
ENDBRANCH   4   8
BRANCH   3  10
ATOM     10  O   LIG    1        5.750  45.471  18.071  0.00  0.00    -0.384 OA
ATOM     11  H   LIG    1        4.831  45.156  18.093  0.00  0.00    +0.210 HD
ENDBRANCH   3  10
BRANCH   2  12
ATOM     12  O   LIG    1        4.905  43.850  20.232  0.00  0.00    -0.345 OA
BRANCH  12  13
ATOM     13  C   LIG    1        4.140  44.557  21.195  0.00  0.00    +0.190 C 
BRANCH  13  14
ATOM     14  C   LIG    1        3.433  43.571  22.068  0.00  0.00    +0.001 C 
ATOM     15  C   LIG    1        3.964  43.071  23.194  0.00  0.00    +0.006 C 
BRANCH  15  16
ATOM     16  C   LIG    1        3.300  42.110  24.092  0.00  0.00    -0.025 A 
ATOM     17  C   LIG    1        2.433  41.169  23.559  0.00  0.00    +0.008 A 
ATOM     18  C   LIG    1        1.805  40.260  24.409  0.00  0.00    +0.001 A 
ATOM     19  C   LIG    1        2.051  40.302  25.781  0.00  0.00    +0.000 A 
ATOM     20  C   LIG    1        2.926  41.254  26.304  0.00  0.00    +0.001 A 
ATOM     21  C   LIG    1        3.554  42.164  25.453  0.00  0.00    +0.008 A 
ENDBRANCH  15  16
ENDBRANCH  13  14
ENDBRANCH  12  13
ENDBRANCH   2  12
BRANCH  22  23
ATOM     23  C   LIG    1        8.625  45.033  22.868  0.00  0.00    +0.197 C 
BRANCH  23  24
ATOM     24  O   LIG    1       10.008  45.333  22.854  0.00  0.00    -0.346 OA
BRANCH  24  25
ATOM     25  C   LIG    1       10.804  44.153  22.829  0.00  0.00    +0.281 C 
ATOM     26  C   LIG    1       12.285  44.517  23.014  0.00  0.00    +0.201 C 
ATOM     27  C   LIG    1       12.607  44.905  24.461  0.00  0.00    +0.178 C 
ATOM     28  C   LIG    1       12.046  43.858  25.425  0.00  0.00    +0.171 C 
ATOM     29  C   LIG    1       10.568  43.611  25.148  0.00  0.00    +0.197 C 
ATOM     36  O   LIG    1       10.372  43.193  23.800  0.00  0.00    -0.346 OA
BRANCH  28  30
ATOM     30  O   LIG    1       12.235  44.286  26.766  0.00  0.00    -0.387 OA
ATOM     31  H   LIG    1       13.158  44.579  26.854  0.00  0.00    +0.210 HD
ENDBRANCH  28  30
BRANCH  27  32
ATOM     32  O   LIG    1       12.026  46.175  24.755  0.00  0.00    -0.386 OA
ATOM     33  H   LIG    1       11.466  46.423  24.000  0.00  0.00    +0.210 HD
ENDBRANCH  27  32
BRANCH  26  34
ATOM     34  O   LIG    1       13.067  43.384  22.645  0.00  0.00    -0.384 OA
ATOM     35  H   LIG    1       13.886  43.698  22.225  0.00  0.00    +0.210 HD
ENDBRANCH  26  34
ENDBRANCH  24  25
ENDBRANCH  23  24
ENDBRANCH  22  23
TORSDOF 13
ENDMDL
MODEL 8
REMARK VINA RESULT:      -7.2      2.913      3.683
REMARK  Name = 9823887
REMARK                            x       y       z     vdW  Elec       q    Type
REMARK                         _______ _______ _______ _____ _____    ______ ____
ROOT
ATOM      1  O   LIG    1        8.599  44.275  21.111  0.00  0.00    -0.341 OA
ATOM      2  C   LIG    1        7.707  44.845  20.156  0.00  0.00    +0.282 C 
ATOM      3  C   LIG    1        8.488  45.573  19.061  0.00  0.00    +0.201 C 
ATOM      4  C   LIG    1        9.535  44.661  18.423  0.00  0.00    +0.179 C 
ATOM      5  C   LIG    1       10.368  43.945  19.486  0.00  0.00    +0.177 C 
ATOM     22  C   LIG    1        9.464  43.294  20.536  0.00  0.00    +0.178 C 
ENDROOT
BRANCH   5   6
ATOM      6  O   LIG    1       11.166  42.942  18.863  0.00  0.00    -0.386 OA
ATOM      7  H   LIG    1       11.309  43.205  17.937  0.00  0.00    +0.210 HD
ENDBRANCH   5   6
BRANCH   4   8
ATOM      8  O   LIG    1       10.421  45.443  17.620  0.00  0.00    -0.386 OA
ATOM      9  H   LIG    1       11.290  45.438  18.056  0.00  0.00    +0.210 HD
ENDBRANCH   4   8
BRANCH   3  10
ATOM     10  O   LIG    1        7.563  46.005  18.064  0.00  0.00    -0.384 OA
ATOM     11  H   LIG    1        8.032  46.041  17.213  0.00  0.00    +0.210 HD
ENDBRANCH   3  10
BRANCH   2  12
ATOM     12  O   LIG    1        6.857  45.794  20.796  0.00  0.00    -0.345 OA
BRANCH  12  13
ATOM     13  C   LIG    1        5.509  45.352  20.813  0.00  0.00    +0.190 C 
BRANCH  13  14
ATOM     14  C   LIG    1        5.300  44.489  22.016  0.00  0.00    +0.001 C 
ATOM     15  C   LIG    1        4.124  44.386  22.654  0.00  0.00    +0.006 C 
BRANCH  15  16
ATOM     16  C   LIG    1        3.868  43.539  23.832  0.00  0.00    -0.025 A 
ATOM     17  C   LIG    1        4.367  43.923  25.066  0.00  0.00    +0.008 A 
ATOM     18  C   LIG    1        4.124  43.121  26.180  0.00  0.00    +0.001 A 
ATOM     19  C   LIG    1        3.386  41.945  26.047  0.00  0.00    +0.000 A 
ATOM     20  C   LIG    1        2.890  41.571  24.799  0.00  0.00    +0.001 A 
ATOM     21  C   LIG    1        3.133  42.374  23.683  0.00  0.00    +0.008 A 
ENDBRANCH  15  16
ENDBRANCH  13  14
ENDBRANCH  12  13
ENDBRANCH   2  12
BRANCH  22  23
ATOM     23  C   LIG    1       10.274  42.673  21.671  0.00  0.00    +0.197 C 
BRANCH  23  24
ATOM     24  O   LIG    1       11.614  43.119  21.565  0.00  0.00    -0.346 OA
BRANCH  24  25
ATOM     25  C   LIG    1       12.492  42.349  22.379  0.00  0.00    +0.281 C 
ATOM     26  C   LIG    1       13.288  41.367  21.506  0.00  0.00    +0.201 C 
ATOM     27  C   LIG    1       14.383  42.071  20.697  0.00  0.00    +0.178 C 
ATOM     28  C   LIG    1       15.207  42.982  21.608  0.00  0.00    +0.171 C 
ATOM     29  C   LIG    1       14.299  43.919  22.394  0.00  0.00    +0.197 C 
ATOM     36  O   LIG    1       13.358  43.176  23.165  0.00  0.00    -0.346 OA
BRANCH  28  30
ATOM     30  O   LIG    1       16.136  43.727  20.832  0.00  0.00    -0.387 OA
ATOM     31  H   LIG    1       16.931  43.863  21.376  0.00  0.00    +0.210 HD
ENDBRANCH  28  30
BRANCH  27  32
ATOM     32  O   LIG    1       13.785  42.854  19.664  0.00  0.00    -0.386 OA
ATOM     33  H   LIG    1       14.095  43.769  19.774  0.00  0.00    +0.210 HD
ENDBRANCH  27  32
BRANCH  26  34
ATOM     34  O   LIG    1       13.886  40.399  22.365  0.00  0.00    -0.384 OA
ATOM     35  H   LIG    1       13.178  39.925  22.833  0.00  0.00    +0.210 HD
ENDBRANCH  26  34
ENDBRANCH  24  25
ENDBRANCH  23  24
ENDBRANCH  22  23
TORSDOF 13
ENDMDL
MODEL 9
REMARK VINA RESULT:      -7.2      2.122      3.539
REMARK  Name = 9823887
REMARK                            x       y       z     vdW  Elec       q    Type
REMARK                         _______ _______ _______ _____ _____    ______ ____
ROOT
ATOM      1  O   LIG    1        8.271  45.976  21.191  0.00  0.00    -0.341 OA
ATOM      2  C   LIG    1        7.428  45.936  20.042  0.00  0.00    +0.282 C 
ATOM      3  C   LIG    1        8.259  45.728  18.775  0.00  0.00    +0.201 C 
ATOM      4  C   LIG    1        9.157  44.497  18.894  0.00  0.00    +0.179 C 
ATOM      5  C   LIG    1        9.926  44.498  20.214  0.00  0.00    +0.177 C 
ATOM     22  C   LIG    1        8.982  44.754  21.393  0.00  0.00    +0.178 C 
ENDROOT
BRANCH   5   6
ATOM      6  O   LIG    1       10.566  43.237  20.389  0.00  0.00    -0.386 OA
ATOM      7  H   LIG    1       10.086  42.750  21.081  0.00  0.00    +0.210 HD
ENDBRANCH   5   6
BRANCH   4   8
ATOM      8  O   LIG    1       10.109  44.498  17.829  0.00  0.00    -0.386 OA
ATOM      9  H   LIG    1       10.598  43.659  17.875  0.00  0.00    +0.210 HD
ENDBRANCH   4   8
BRANCH   3  10
ATOM     10  O   LIG    1        7.364  45.558  17.677  0.00  0.00    -0.384 OA
ATOM     11  H   LIG    1        7.355  46.384  17.164  0.00  0.00    +0.210 HD
ENDBRANCH   3  10
BRANCH   2  12
ATOM     12  O   LIG    1        6.730  47.173  19.913  0.00  0.00    -0.345 OA
BRANCH  12  13
ATOM     13  C   LIG    1        5.333  46.966  19.781  0.00  0.00    +0.190 C 
BRANCH  13  14
ATOM     14  C   LIG    1        4.963  45.704  20.491  0.00  0.00    +0.001 C 
ATOM     15  C   LIG    1        4.131  45.667  21.543  0.00  0.00    +0.006 C 
BRANCH  15  16
ATOM     16  C   LIG    1        3.727  44.447  22.264  0.00  0.00    -0.025 A 
ATOM     17  C   LIG    1        4.287  44.173  23.502  0.00  0.00    +0.008 A 
ATOM     18  C   LIG    1        3.905  43.018  24.184  0.00  0.00    +0.001 A 
ATOM     19  C   LIG    1        2.968  42.152  23.620  0.00  0.00    +0.000 A 
ATOM     20  C   LIG    1        2.413  42.441  22.373  0.00  0.00    +0.001 A 
ATOM     21  C   LIG    1        2.796  43.596  21.691  0.00  0.00    +0.008 A 
ENDBRANCH  15  16
ENDBRANCH  13  14
ENDBRANCH  12  13
ENDBRANCH   2  12
BRANCH  22  23
ATOM     23  C   LIG    1        9.743  44.875  22.710  0.00  0.00    +0.197 C 
BRANCH  23  24
ATOM     24  O   LIG    1        9.884  43.582  23.269  0.00  0.00    -0.346 OA
BRANCH  24  25
ATOM     25  C   LIG    1        9.367  43.521  24.594  0.00  0.00    +0.281 C 
ATOM     26  C   LIG    1        7.851  43.274  24.553  0.00  0.00    +0.201 C 
ATOM     27  C   LIG    1        7.512  41.829  24.174  0.00  0.00    +0.178 C 
ATOM     28  C   LIG    1        8.329  40.855  25.025  0.00  0.00    +0.171 C 
ATOM     29  C   LIG    1        9.812  41.197  24.957  0.00  0.00    +0.197 C 
ATOM     36  O   LIG    1       10.040  42.537  25.388  0.00  0.00    -0.346 OA
BRANCH  28  30
ATOM     30  O   LIG    1        8.107  39.524  24.583  0.00  0.00    -0.387 OA
ATOM     31  H   LIG    1        7.169  39.316  24.737  0.00  0.00    +0.210 HD
ENDBRANCH  28  30
BRANCH  27  32
ATOM     32  O   LIG    1        7.811  41.614  22.795  0.00  0.00    -0.386 OA
ATOM     33  H   LIG    1        7.129  42.072  22.273  0.00  0.00    +0.210 HD
ENDBRANCH  27  32
BRANCH  26  34
ATOM     34  O   LIG    1        7.323  43.559  25.846  0.00  0.00    -0.384 OA
ATOM     35  H   LIG    1        8.016  43.391  26.506  0.00  0.00    +0.210 HD
ENDBRANCH  26  34
ENDBRANCH  24  25
ENDBRANCH  23  24
ENDBRANCH  22  23
TORSDOF 13
ENDMDL
