MODEL 1
REMARK VINA RESULT:      -9.2      0.000      0.000
REMARK  6 active torsions:
REMARK  status: ('A' for Active; 'I' for Inactive)
REMARK    1  A    between atoms: C_2  and  C_17 
REMARK    2  A    between atoms: C_3  and  O_15 
REMARK    3  A    between atoms: C_6  and  O_12 
REMARK    4  A    between atoms: C_8  and  O_10 
REMARK    5  A    between atoms: C_20  and  O_24 
REMARK    6  A    between atoms: C_21  and  O_22 
ROOT
ATOM      1  O   LIG     1      12.321  50.808  26.479  0.00  0.00    -0.451 OA
ATOM      2  C   LIG     1      11.910  50.224  25.291  0.00  0.00     0.181 A 
ATOM      3  C   LIG     1      11.014  49.223  25.203  0.00  0.00     0.208 A 
ATOM      4  C   LIG     1      10.398  48.703  26.447  0.00  0.00     0.238 A 
ATOM      5  C   LIG     1      10.829  49.336  27.703  0.00  0.00     0.109 A 
ATOM      6  C   LIG     1      10.304  48.920  28.929  0.00  0.00     0.135 A 
ATOM      7  C   LIG     1      10.731  49.537  30.105  0.00  0.00     0.091 A 
ATOM      8  C   LIG     1      11.676  50.563  30.057  0.00  0.00     0.124 A 
ATOM      9  C   LIG     1      12.198  50.975  28.830  0.00  0.00     0.092 A 
ATOM     10  O   LIG     1       9.577  47.795  26.430  0.00  0.00    -0.283 OA
ATOM     11  C   LIG     1      11.772  50.361  27.652  0.00  0.00     0.147 A 
ENDROOT
BRANCH   2  12
ATOM     12  C   LIG     1      12.576  50.797  24.108  0.00  0.00     0.025 A 
ATOM     13  C   LIG     1      13.079  49.957  23.115  0.00  0.00     0.060 A 
ATOM     14  C   LIG     1      13.708  50.499  21.994  0.00  0.00     0.159 A 
ATOM     15  C   LIG     1      13.836  51.883  21.868  0.00  0.00     0.158 A 
ATOM     16  C   LIG     1      13.332  52.723  22.861  0.00  0.00     0.050 A 
ATOM     17  C   LIG     1      12.702  52.181  23.981  0.00  0.00     0.015 A 
BRANCH  14  18
ATOM     18  O   LIG     1      14.198  49.669  21.032  0.00  0.00    -0.503 OA
ATOM     19  H   LIG     1      13.734  48.817  21.067  0.00  0.00     0.292 HD
ENDBRANCH  14  18
BRANCH  15  20
ATOM     20  O   LIG     1      14.447  52.425  20.777  0.00  0.00    -0.503 OA
ATOM     21  H   LIG     1      13.967  53.219  20.494  0.00  0.00     0.292 HD
ENDBRANCH  15  20
ENDBRANCH   2  12
BRANCH   3  22
ATOM     22  O   LIG     1      10.651  48.642  24.007  0.00  0.00    -0.501 OA
ATOM     23  H   LIG     1      10.842  47.690  24.032  0.00  0.00     0.292 HD
ENDBRANCH   3  22
BRANCH   8  24
ATOM     24  O   LIG     1      12.091  51.162  31.207  0.00  0.00    -0.507 OA
ATOM     25  H   LIG     1      11.638  52.018  31.297  0.00  0.00     0.292 HD
ENDBRANCH   8  24
BRANCH   6  26
ATOM     26  O   LIG     1       9.380  47.924  29.033  0.00  0.00    -0.506 OA
ATOM     27  H   LIG     1       9.637  47.293  29.722  0.00  0.00     0.292 HD
ENDBRANCH   6  26
TORSDOF 6
ENDMDL
MODEL 2
REMARK VINA RESULT:      -9.0      1.697      3.233
REMARK  6 active torsions:
REMARK  status: ('A' for Active; 'I' for Inactive)
REMARK    1  A    between atoms: C_2  and  C_17 
REMARK    2  A    between atoms: C_3  and  O_15 
REMARK    3  A    between atoms: C_6  and  O_12 
REMARK    4  A    between atoms: C_8  and  O_10 
REMARK    5  A    between atoms: C_20  and  O_24 
REMARK    6  A    between atoms: C_21  and  O_22 
ROOT
ATOM      1  O   LIG     1      12.316  50.225  25.235  0.00  0.00    -0.451 OA
ATOM      2  C   LIG     1      13.277  51.217  25.355  0.00  0.00     0.181 A 
ATOM      3  C   LIG     1      13.618  51.812  26.513  0.00  0.00     0.208 A 
ATOM      4  C   LIG     1      12.948  51.381  27.763  0.00  0.00     0.238 A 
ATOM      5  C   LIG     1      11.940  50.318  27.630  0.00  0.00     0.109 A 
ATOM      6  C   LIG     1      11.254  49.840  28.750  0.00  0.00     0.135 A 
ATOM      7  C   LIG     1      10.301  48.833  28.595  0.00  0.00     0.091 A 
ATOM      8  C   LIG     1      10.035  48.306  27.330  0.00  0.00     0.124 A 
ATOM      9  C   LIG     1      10.721  48.787  26.214  0.00  0.00     0.092 A 
ATOM     10  O   LIG     1      13.218  51.883  28.847  0.00  0.00    -0.283 OA
ATOM     11  C   LIG     1      11.676  49.794  26.367  0.00  0.00     0.147 A 
ENDROOT
BRANCH   2  12
ATOM     12  C   LIG     1      13.887  51.587  24.065  0.00  0.00     0.025 A 
ATOM     13  C   LIG     1      15.175  51.153  23.753  0.00  0.00     0.060 A 
ATOM     14  C   LIG     1      15.751  51.502  22.531  0.00  0.00     0.159 A 
ATOM     15  C   LIG     1      15.039  52.287  21.623  0.00  0.00     0.158 A 
ATOM     16  C   LIG     1      13.751  52.721  21.936  0.00  0.00     0.050 A 
ATOM     17  C   LIG     1      13.174  52.371  23.157  0.00  0.00     0.015 A 
BRANCH  14  18
ATOM     18  O   LIG     1      17.010  51.075  22.237  0.00  0.00    -0.503 OA
ATOM     19  H   LIG     1      16.993  50.531  21.433  0.00  0.00     0.292 HD
ENDBRANCH  14  18
BRANCH  15  20
ATOM     20  O   LIG     1      15.591  52.634  20.427  0.00  0.00    -0.503 OA
ATOM     21  H   LIG     1      15.128  53.404  20.063  0.00  0.00     0.292 HD
ENDBRANCH  15  20
ENDBRANCH   2  12
BRANCH   3  22
ATOM     22  O   LIG     1      14.555  52.819  26.594  0.00  0.00    -0.501 OA
ATOM     23  H   LIG     1      14.111  53.673  26.720  0.00  0.00     0.292 HD
ENDBRANCH   3  22
BRANCH   8  24
ATOM     24  O   LIG     1       9.104  47.324  27.183  0.00  0.00    -0.507 OA
ATOM     25  H   LIG     1       9.399  46.712  26.487  0.00  0.00     0.292 HD
ENDBRANCH   8  24
BRANCH   6  26
ATOM     26  O   LIG     1      11.474  50.318  30.006  0.00  0.00    -0.506 OA
ATOM     27  H   LIG     1      10.670  50.726  30.361  0.00  0.00     0.292 HD
ENDBRANCH   6  26
TORSDOF 6
ENDMDL
MODEL 3
REMARK VINA RESULT:      -8.3      2.473      6.687
REMARK  6 active torsions:
REMARK  status: ('A' for Active; 'I' for Inactive)
REMARK    1  A    between atoms: C_2  and  C_17 
REMARK    2  A    between atoms: C_3  and  O_15 
REMARK    3  A    between atoms: C_6  and  O_12 
REMARK    4  A    between atoms: C_8  and  O_10 
REMARK    5  A    between atoms: C_20  and  O_24 
REMARK    6  A    between atoms: C_21  and  O_22 
ROOT
ATOM      1  O   LIG     1      13.885  50.081  25.023  0.00  0.00    -0.451 OA
ATOM      2  C   LIG     1      12.867  49.340  24.443  0.00  0.00     0.181 A 
ATOM      3  C   LIG     1      12.800  49.026  23.136  0.00  0.00     0.208 A 
ATOM      4  C   LIG     1      13.888  49.478  22.236  0.00  0.00     0.238 A 
ATOM      5  C   LIG     1      14.973  50.252  22.860  0.00  0.00     0.109 A 
ATOM      6  C   LIG     1      16.046  50.720  22.098  0.00  0.00     0.135 A 
ATOM      7  C   LIG     1      17.060  51.452  22.715  0.00  0.00     0.091 A 
ATOM      8  C   LIG     1      17.003  51.716  24.084  0.00  0.00     0.124 A 
ATOM      9  C   LIG     1      15.929  51.248  24.841  0.00  0.00     0.092 A 
ATOM     10  O   LIG     1      13.884  49.222  21.039  0.00  0.00    -0.283 OA
ATOM     11  C   LIG     1      14.914  50.513  24.227  0.00  0.00     0.147 A 
ENDROOT
BRANCH   2  12
ATOM     12  C   LIG     1      11.827  48.938  25.407  0.00  0.00     0.025 A 
ATOM     13  C   LIG     1      12.009  47.804  26.198  0.00  0.00     0.060 A 
ATOM     14  C   LIG     1      11.025  47.425  27.112  0.00  0.00     0.159 A 
ATOM     15  C   LIG     1       9.858  48.180  27.233  0.00  0.00     0.158 A 
ATOM     16  C   LIG     1       9.676  49.314  26.442  0.00  0.00     0.050 A 
ATOM     17  C   LIG     1      10.660  49.694  25.529  0.00  0.00     0.015 A 
BRANCH  14  18
ATOM     18  O   LIG     1      11.213  46.315  27.878  0.00  0.00    -0.503 OA
ATOM     19  H   LIG     1      10.538  46.278  28.574  0.00  0.00     0.292 HD
ENDBRANCH  14  18
BRANCH  15  20
ATOM     20  O   LIG     1       8.891  47.820  28.122  0.00  0.00    -0.503 OA
ATOM     21  H   LIG     1       9.301  47.534  28.954  0.00  0.00     0.292 HD
ENDBRANCH  15  20
ENDBRANCH   2  12
BRANCH   3  22
ATOM     22  O   LIG     1      11.756  48.316  22.585  0.00  0.00    -0.501 OA
ATOM     23  H   LIG     1      11.463  48.743  21.763  0.00  0.00     0.292 HD
ENDBRANCH   3  22
BRANCH   8  24
ATOM     24  O   LIG     1      17.994  52.432  24.682  0.00  0.00    -0.507 OA
ATOM     25  H   LIG     1      18.845  51.991  24.516  0.00  0.00     0.292 HD
ENDBRANCH   8  24
BRANCH   6  26
ATOM     26  O   LIG     1      16.152  50.492  20.759  0.00  0.00    -0.506 OA
ATOM     27  H   LIG     1      17.066  50.619  20.463  0.00  0.00     0.292 HD
ENDBRANCH   6  26
TORSDOF 6
ENDMDL
MODEL 4
REMARK VINA RESULT:      -8.1      3.874      5.926
REMARK  6 active torsions:
REMARK  status: ('A' for Active; 'I' for Inactive)
REMARK    1  A    between atoms: C_2  and  C_17 
REMARK    2  A    between atoms: C_3  and  O_15 
REMARK    3  A    between atoms: C_6  and  O_12 
REMARK    4  A    between atoms: C_8  and  O_10 
REMARK    5  A    between atoms: C_20  and  O_24 
REMARK    6  A    between atoms: C_21  and  O_22 
ROOT
ATOM      1  O   LIG     1      15.632  48.963  23.858  0.00  0.00    -0.451 OA
ATOM      2  C   LIG     1      16.278  49.865  23.026  0.00  0.00     0.181 A 
ATOM      3  C   LIG     1      15.771  51.053  22.650  0.00  0.00     0.208 A 
ATOM      4  C   LIG     1      14.440  51.458  23.162  0.00  0.00     0.238 A 
ATOM      5  C   LIG     1      13.766  50.502  24.054  0.00  0.00     0.109 A 
ATOM      6  C   LIG     1      12.509  50.791  24.592  0.00  0.00     0.135 A 
ATOM      7  C   LIG     1      11.892  49.867  25.435  0.00  0.00     0.091 A 
ATOM      8  C   LIG     1      12.527  48.661  25.739  0.00  0.00     0.124 A 
ATOM      9  C   LIG     1      13.781  48.376  25.200  0.00  0.00     0.092 A 
ATOM     10  O   LIG     1      13.928  52.527  22.856  0.00  0.00    -0.283 OA
ATOM     11  C   LIG     1      14.401  49.300  24.358  0.00  0.00     0.147 A 
ENDROOT
BRANCH   2  12
ATOM     12  C   LIG     1      17.590  49.381  22.562  0.00  0.00     0.025 A 
ATOM     13  C   LIG     1      17.861  49.303  21.196  0.00  0.00     0.060 A 
ATOM     14  C   LIG     1      19.104  48.846  20.756  0.00  0.00     0.159 A 
ATOM     15  C   LIG     1      20.075  48.465  21.683  0.00  0.00     0.158 A 
ATOM     16  C   LIG     1      19.803  48.542  23.049  0.00  0.00     0.050 A 
ATOM     17  C   LIG     1      18.561  49.000  23.489  0.00  0.00     0.015 A 
BRANCH  14  18
ATOM     18  O   LIG     1      19.358  48.773  19.420  0.00  0.00    -0.503 OA
ATOM     19  H   LIG     1      20.283  48.515  19.275  0.00  0.00     0.292 HD
ENDBRANCH  14  18
BRANCH  15  20
ATOM     20  O   LIG     1      21.292  48.018  21.266  0.00  0.00    -0.503 OA
ATOM     21  H   LIG     1      21.181  47.430  20.502  0.00  0.00     0.292 HD
ENDBRANCH  15  20
ENDBRANCH   2  12
BRANCH   3  22
ATOM     22  O   LIG     1      16.425  51.913  21.794  0.00  0.00    -0.501 OA
ATOM     23  H   LIG     1      16.754  51.424  21.023  0.00  0.00     0.292 HD
ENDBRANCH   3  22
BRANCH   8  24
ATOM     24  O   LIG     1      11.921  47.762  26.562  0.00  0.00    -0.507 OA
ATOM     25  H   LIG     1      11.028  47.575  26.222  0.00  0.00     0.292 HD
ENDBRANCH   8  24
BRANCH   6  26
ATOM     26  O   LIG     1      11.846  51.952  24.328  0.00  0.00    -0.506 OA
ATOM     27  H   LIG     1      10.943  51.766  24.027  0.00  0.00     0.292 HD
ENDBRANCH   6  26
TORSDOF 6
ENDMDL
MODEL 5
REMARK VINA RESULT:      -8.1      4.967      8.192
REMARK  6 active torsions:
REMARK  status: ('A' for Active; 'I' for Inactive)
REMARK    1  A    between atoms: C_2  and  C_17 
REMARK    2  A    between atoms: C_3  and  O_15 
REMARK    3  A    between atoms: C_6  and  O_12 
REMARK    4  A    between atoms: C_8  and  O_10 
REMARK    5  A    between atoms: C_20  and  O_24 
REMARK    6  A    between atoms: C_21  and  O_22 
ROOT
ATOM      1  O   LIG     1      17.624  49.676  23.837  0.00  0.00    -0.451 OA
ATOM      2  C   LIG     1      16.761  49.838  22.764  0.00  0.00     0.181 A 
ATOM      3  C   LIG     1      17.061  49.526  21.490  0.00  0.00     0.208 A 
ATOM      4  C   LIG     1      18.394  48.950  21.189  0.00  0.00     0.238 A 
ATOM      5  C   LIG     1      19.299  48.768  22.334  0.00  0.00     0.109 A 
ATOM      6  C   LIG     1      20.576  48.230  22.157  0.00  0.00     0.135 A 
ATOM      7  C   LIG     1      21.415  48.069  23.259  0.00  0.00     0.091 A 
ATOM      8  C   LIG     1      20.981  48.444  24.532  0.00  0.00     0.124 A 
ATOM      9  C   LIG     1      19.706  48.982  24.705  0.00  0.00     0.092 A 
ATOM     10  O   LIG     1      18.723  48.645  20.050  0.00  0.00    -0.283 OA
ATOM     11  C   LIG     1      18.864  49.142  23.604  0.00  0.00     0.147 A 
ENDROOT
BRANCH   2  12
ATOM     12  C   LIG     1      15.464  50.420  23.152  0.00  0.00     0.025 A 
ATOM     13  C   LIG     1      15.076  51.660  22.644  0.00  0.00     0.060 A 
ATOM     14  C   LIG     1      13.847  52.210  23.011  0.00  0.00     0.159 A 
ATOM     15  C   LIG     1      13.007  51.520  23.886  0.00  0.00     0.158 A 
ATOM     16  C   LIG     1      13.396  50.280  24.393  0.00  0.00     0.050 A 
ATOM     17  C   LIG     1      14.624  49.730  24.026  0.00  0.00     0.015 A 
BRANCH  14  18
ATOM     18  O   LIG     1      13.478  53.422  22.511  0.00  0.00    -0.503 OA
ATOM     19  H   LIG     1      12.511  53.500  22.519  0.00  0.00     0.292 HD
ENDBRANCH  14  18
BRANCH  15  20
ATOM     20  O   LIG     1      11.804  52.046  24.250  0.00  0.00    -0.503 OA
ATOM     21  H   LIG     1      11.165  51.931  23.529  0.00  0.00     0.292 HD
ENDBRANCH  15  20
ENDBRANCH   2  12
BRANCH   3  22
ATOM     22  O   LIG     1      16.192  49.730  20.440  0.00  0.00    -0.501 OA
ATOM     23  H   LIG     1      15.709  48.910  20.247  0.00  0.00     0.292 HD
ENDBRANCH   3  22
BRANCH   8  24
ATOM     24  O   LIG     1      21.803  48.286  25.605  0.00  0.00    -0.507 OA
ATOM     25  H   LIG     1      21.700  47.383  25.952  0.00  0.00     0.292 HD
ENDBRANCH   8  24
BRANCH   6  26
ATOM     26  O   LIG     1      21.050  47.848  20.937  0.00  0.00    -0.506 OA
ATOM     27  H   LIG     1      20.573  48.306  20.229  0.00  0.00     0.292 HD
ENDBRANCH   6  26
TORSDOF 6
ENDMDL
MODEL 6
REMARK VINA RESULT:      -8.0      2.155      7.059
REMARK  6 active torsions:
REMARK  status: ('A' for Active; 'I' for Inactive)
REMARK    1  A    between atoms: C_2  and  C_17 
REMARK    2  A    between atoms: C_3  and  O_15 
REMARK    3  A    between atoms: C_6  and  O_12 
REMARK    4  A    between atoms: C_8  and  O_10 
REMARK    5  A    between atoms: C_20  and  O_24 
REMARK    6  A    between atoms: C_21  and  O_22 
ROOT
ATOM      1  O   LIG     1      14.392  49.735  24.910  0.00  0.00    -0.451 OA
ATOM      2  C   LIG     1      13.232  50.487  25.011  0.00  0.00     0.181 A 
ATOM      3  C   LIG     1      12.891  51.481  24.171  0.00  0.00     0.208 A 
ATOM      4  C   LIG     1      13.795  51.802  23.039  0.00  0.00     0.238 A 
ATOM      5  C   LIG     1      15.017  50.991  22.930  0.00  0.00     0.109 A 
ATOM      6  C   LIG     1      15.932  51.213  21.897  0.00  0.00     0.135 A 
ATOM      7  C   LIG     1      17.084  50.431  21.818  0.00  0.00     0.091 A 
ATOM      8  C   LIG     1      17.321  49.433  22.765  0.00  0.00     0.124 A 
ATOM      9  C   LIG     1      16.406  49.215  23.795  0.00  0.00     0.092 A 
ATOM     10  O   LIG     1      13.538  52.694  22.241  0.00  0.00    -0.283 OA
ATOM     11  C   LIG     1      15.252  49.995  23.876  0.00  0.00     0.147 A 
ENDROOT
BRANCH   2  12
ATOM     12  C   LIG     1      12.397  50.105  26.164  0.00  0.00     0.025 A 
ATOM     13  C   LIG     1      11.394  49.149  26.013  0.00  0.00     0.060 A 
ATOM     14  C   LIG     1      10.605  48.787  27.106  0.00  0.00     0.159 A 
ATOM     15  C   LIG     1      10.819  49.383  28.349  0.00  0.00     0.158 A 
ATOM     16  C   LIG     1      11.823  50.339  28.500  0.00  0.00     0.050 A 
ATOM     17  C   LIG     1      12.612  50.701  27.408  0.00  0.00     0.015 A 
BRANCH  14  18
ATOM     18  O   LIG     1       9.626  47.853  26.946  0.00  0.00    -0.503 OA
ATOM     19  H   LIG     1       9.689  47.459  26.061  0.00  0.00     0.292 HD
ENDBRANCH  14  18
BRANCH  15  20
ATOM     20  O   LIG     1      10.056  49.037  29.423  0.00  0.00    -0.503 OA
ATOM     21  H   LIG     1      10.296  48.145  29.721  0.00  0.00     0.292 HD
ENDBRANCH  15  20
ENDBRANCH   2  12
BRANCH   3  22
ATOM     22  O   LIG     1      11.745  52.232  24.318  0.00  0.00    -0.501 OA
ATOM     23  H   LIG     1      10.982  51.647  24.449  0.00  0.00     0.292 HD
ENDBRANCH   3  22
BRANCH   8  24
ATOM     24  O   LIG     1      18.447  48.672  22.685  0.00  0.00    -0.507 OA
ATOM     25  H   LIG     1      18.565  48.193  23.523  0.00  0.00     0.292 HD
ENDBRANCH   8  24
BRANCH   6  26
ATOM     26  O   LIG     1      15.749  52.173  20.948  0.00  0.00    -0.506 OA
ATOM     27  H   LIG     1      16.024  51.847  20.077  0.00  0.00     0.292 HD
ENDBRANCH   6  26
TORSDOF 6
ENDMDL
MODEL 7
REMARK VINA RESULT:      -7.9      2.638      4.157
REMARK  6 active torsions:
REMARK  status: ('A' for Active; 'I' for Inactive)
REMARK    1  A    between atoms: C_2  and  C_17 
REMARK    2  A    between atoms: C_3  and  O_15 
REMARK    3  A    between atoms: C_6  and  O_12 
REMARK    4  A    between atoms: C_8  and  O_10 
REMARK    5  A    between atoms: C_20  and  O_24 
REMARK    6  A    between atoms: C_21  and  O_22 
ROOT
ATOM      1  O   LIG     1      13.734  49.135  24.894  0.00  0.00    -0.451 OA
ATOM      2  C   LIG     1      14.803  50.014  24.828  0.00  0.00     0.181 A 
ATOM      3  C   LIG     1      15.005  51.035  25.681  0.00  0.00     0.208 A 
ATOM      4  C   LIG     1      14.039  51.245  26.787  0.00  0.00     0.238 A 
ATOM      5  C   LIG     1      12.914  50.300  26.859  0.00  0.00     0.109 A 
ATOM      6  C   LIG     1      11.952  50.410  27.866  0.00  0.00     0.135 A 
ATOM      7  C   LIG     1      10.895  49.502  27.910  0.00  0.00     0.091 A 
ATOM      8  C   LIG     1      10.799  48.489  26.955  0.00  0.00     0.124 A 
ATOM      9  C   LIG     1      11.761  48.382  25.950  0.00  0.00     0.092 A 
ATOM     10  O   LIG     1      14.171  52.156  27.595  0.00  0.00    -0.283 OA
ATOM     11  C   LIG     1      12.821  49.289  25.905  0.00  0.00     0.147 A 
ENDROOT
BRANCH   2  12
ATOM     12  C   LIG     1      15.707  49.736  23.699  0.00  0.00     0.025 A 
ATOM     13  C   LIG     1      15.263  49.915  22.389  0.00  0.00     0.060 A 
ATOM     14  C   LIG     1      16.120  49.653  21.319  0.00  0.00     0.159 A 
ATOM     15  C   LIG     1      17.421  49.211  21.561  0.00  0.00     0.158 A 
ATOM     16  C   LIG     1      17.866  49.033  22.870  0.00  0.00     0.050 A 
ATOM     17  C   LIG     1      17.009  49.295  23.940  0.00  0.00     0.015 A 
BRANCH  14  18
ATOM     18  O   LIG     1      15.675  49.829  20.044  0.00  0.00    -0.503 OA
ATOM     19  H   LIG     1      15.000  50.527  20.026  0.00  0.00     0.292 HD
ENDBRANCH  14  18
BRANCH  15  20
ATOM     20  O   LIG     1      18.268  48.954  20.524  0.00  0.00    -0.503 OA
ATOM     21  H   LIG     1      17.812  48.422  19.853  0.00  0.00     0.292 HD
ENDBRANCH  15  20
ENDBRANCH   2  12
BRANCH   3  22
ATOM     22  O   LIG     1      16.061  51.913  25.569  0.00  0.00    -0.501 OA
ATOM     23  H   LIG     1      15.873  52.722  26.071  0.00  0.00     0.292 HD
ENDBRANCH   3  22
BRANCH   8  24
ATOM     24  O   LIG     1       9.765  47.605  27.001  0.00  0.00    -0.507 OA
ATOM     25  H   LIG     1      10.107  46.734  27.266  0.00  0.00     0.292 HD
ENDBRANCH   8  24
BRANCH   6  26
ATOM     26  O   LIG     1      11.998  51.379  28.823  0.00  0.00    -0.506 OA
ATOM     27  H   LIG     1      12.208  52.238  28.427  0.00  0.00     0.292 HD
ENDBRANCH   6  26
TORSDOF 6
ENDMDL
MODEL 8
REMARK VINA RESULT:      -7.8      4.069      5.848
REMARK  6 active torsions:
REMARK  status: ('A' for Active; 'I' for Inactive)
REMARK    1  A    between atoms: C_2  and  C_17 
REMARK    2  A    between atoms: C_3  and  O_15 
REMARK    3  A    between atoms: C_6  and  O_12 
REMARK    4  A    between atoms: C_8  and  O_10 
REMARK    5  A    between atoms: C_20  and  O_24 
REMARK    6  A    between atoms: C_21  and  O_22 
ROOT
ATOM      1  O   LIG     1      15.121  49.296  23.811  0.00  0.00    -0.451 OA
ATOM      2  C   LIG     1      16.304  49.927  24.164  0.00  0.00     0.181 A 
ATOM      3  C   LIG     1      16.403  50.900  25.089  0.00  0.00     0.208 A 
ATOM      4  C   LIG     1      15.180  51.332  25.807  0.00  0.00     0.238 A 
ATOM      5  C   LIG     1      13.931  50.649  25.437  0.00  0.00     0.109 A 
ATOM      6  C   LIG     1      12.724  50.981  26.058  0.00  0.00     0.135 A 
ATOM      7  C   LIG     1      11.554  50.319  25.688  0.00  0.00     0.091 A 
ATOM      8  C   LIG     1      11.588  49.330  24.703  0.00  0.00     0.124 A 
ATOM      9  C   LIG     1      12.795  49.002  24.085  0.00  0.00     0.092 A 
ATOM     10  O   LIG     1      15.208  52.210  26.659  0.00  0.00    -0.283 OA
ATOM     11  C   LIG     1      13.967  49.662  24.454  0.00  0.00     0.147 A 
ENDROOT
BRANCH   2  12
ATOM     12  C   LIG     1      17.465  49.441  23.399  0.00  0.00     0.025 A 
ATOM     13  C   LIG     1      18.321  48.493  23.957  0.00  0.00     0.060 A 
ATOM     14  C   LIG     1      19.420  48.031  23.232  0.00  0.00     0.159 A 
ATOM     15  C   LIG     1      19.664  48.521  21.948  0.00  0.00     0.158 A 
ATOM     16  C   LIG     1      18.807  49.470  21.390  0.00  0.00     0.050 A 
ATOM     17  C   LIG     1      17.708  49.930  22.114  0.00  0.00     0.015 A 
BRANCH  14  18
ATOM     18  O   LIG     1      20.251  47.106  23.788  0.00  0.00    -0.503 OA
ATOM     19  H   LIG     1      19.842  46.227  23.740  0.00  0.00     0.292 HD
ENDBRANCH  14  18
BRANCH  15  20
ATOM     20  O   LIG     1      20.733  48.077  21.229  0.00  0.00    -0.503 OA
ATOM     21  H   LIG     1      20.516  47.230  20.809  0.00  0.00     0.292 HD
ENDBRANCH  15  20
ENDBRANCH   2  12
BRANCH   3  22
ATOM     22  O   LIG     1      17.590  51.530  25.393  0.00  0.00    -0.501 OA
ATOM     23  H   LIG     1      18.237  51.374  24.686  0.00  0.00     0.292 HD
ENDBRANCH   3  22
BRANCH   8  24
ATOM     24  O   LIG     1      10.444  48.687  24.344  0.00  0.00    -0.507 OA
ATOM     25  H   LIG     1      10.467  47.781  24.698  0.00  0.00     0.292 HD
ENDBRANCH   8  24
BRANCH   6  26
ATOM     26  O   LIG     1      12.634  51.938  27.025  0.00  0.00    -0.506 OA
ATOM     27  H   LIG     1      13.361  51.850  27.659  0.00  0.00     0.292 HD
ENDBRANCH   6  26
TORSDOF 6
ENDMDL
