MODEL 1
REMARK VINA RESULT:      -8.4      0.000      0.000
REMARK  11 active torsions:
REMARK  status: ('A' for Active; 'I' for Inactive)
REMARK    1  A    between atoms: O_1  and  C_9 
REMARK    2  A    between atoms: O_2  and  C_19 
REMARK    3  A    between atoms: O_3  and  C_26 
REMARK    4  A    between atoms: O_4  and  C_27 
REMARK    5  A    between atoms: O_6  and  C_28 
REMARK    6  A    between atoms: O_7  and  C_32 
REMARK    7  A    between atoms: C_10  and  C_19 
REMARK    8  A    between atoms: C_19  and  C_27 
REMARK    9  A    between atoms: C_27  and  C_30 
REMARK   10  A    between atoms: C_30  and  C_31 
REMARK   11  A    between atoms: C_31  and  C_32 
ROOT
HETATM    1  O   UNK     0      34.758   5.483  -2.230  0.00  0.00    -0.384 OA
HETATM    2  H   UNK     0      34.554   5.132  -1.345  0.00  0.00     0.211 HD
ENDROOT
BRANCH   1   3
HETATM    3  C   UNK     0      34.422   6.889  -2.236  0.00  0.00     0.089 C 
HETATM    4  C   UNK     0      35.724   7.730  -2.192  0.00  0.00    -0.002 C 
HETATM    5  C   UNK     0      36.280   7.331  -0.801  0.00  0.00     0.034 C 
HETATM    6  C   UNK     0      36.623   7.303  -3.367  0.00  0.00     0.014 C 
HETATM    7  C   UNK     0      35.460   9.258  -2.265  0.00  0.00     0.019 C 
HETATM    8  C   UNK     0      35.021   7.272   0.094  0.00  0.00     0.012 C 
HETATM    9  C   UNK     0      33.807   7.171  -0.856  0.00  0.00     0.044 C 
HETATM   10  C   UNK     0      35.908   7.514  -4.712  0.00  0.00     0.011 C 
HETATM   11  C   UNK     0      34.471   6.913  -4.801  0.00  0.00     0.027 C 
HETATM   12  C   UNK     0      33.709   7.369  -6.107  0.00  0.00    -0.023 C 
HETATM   13  C   UNK     0      33.651   7.118  -3.518  0.00  0.00    -0.037 C 
HETATM   14  C   UNK     0      32.226   6.908  -6.047  0.00  0.00     0.071 C 
HETATM   15  C   UNK     0      34.359   6.771  -7.388  0.00  0.00     0.044 C 
HETATM   16  C   UNK     0      33.727   8.913  -6.270  0.00  0.00     0.016 C 
HETATM   17  C   UNK     0      32.049   5.386  -6.180  0.00  0.00     0.047 C 
HETATM   18  C   UNK     0      31.555   7.385  -4.773  0.00  0.00     0.154 C 
HETATM   19  C   UNK     0      32.706   4.849  -7.451  0.00  0.00     0.147 C 
HETATM   20  C   UNK     0      34.179   5.255  -7.518  0.00  0.00     0.147 C 
HETATM   21  O   UNK     0      30.368   7.708  -4.748  0.00  0.00    -0.293 OA
HETATM   22  C   UNK     0      32.335   7.381  -3.515  0.00  0.00     0.057 C 
BRANCH   5  23
HETATM   23  C   UNK     0      37.373   8.222  -0.223  0.00  0.00     0.084 C 
HETATM   24  C   UNK     0      37.770   9.293  -1.253  0.00  0.00     0.049 C 
BRANCH  23  25
HETATM   25  O   UNK     0      36.845   8.904   0.922  0.00  0.00    -0.387 OA
HETATM   26  H   UNK     0      37.443   9.631   1.159  0.00  0.00     0.210 HD
ENDBRANCH  23  25
BRANCH  23  27
HETATM   27  C   UNK     0      38.616   7.408   0.228  0.00  0.00     0.152 C 
BRANCH  27  28
HETATM   28  O   UNK     0      39.757   8.269   0.290  0.00  0.00    -0.393 OA
HETATM   29  H   UNK     0      40.109   8.221   1.196  0.00  0.00     0.210 HD
ENDBRANCH  27  28
BRANCH  27  30
HETATM   30  C   UNK     0      38.958   6.215  -0.686  0.00  0.00     0.037 C 
BRANCH  30  31
HETATM   31  C   UNK     0      40.423   6.252  -1.159  0.00  0.00     0.040 C 
BRANCH  31  32
HETATM   32  C   UNK     0      40.598   6.366  -2.688  0.00  0.00     0.051 C 
HETATM   33  C   UNK     0      39.691   5.347  -3.385  0.00  0.00     0.045 C 
HETATM   34  C   UNK     0      40.300   7.773  -3.210  0.00  0.00     0.045 C 
BRANCH  32  35
HETATM   35  O   UNK     0      41.952   6.040  -3.011  0.00  0.00    -0.391 OA
HETATM   36  H   UNK     0      42.040   6.052  -3.978  0.00  0.00     0.210 HD
ENDBRANCH  32  35
ENDBRANCH  31  32
ENDBRANCH  30  31
ENDBRANCH  27  30
ENDBRANCH  23  27
ENDBRANCH   5  23
BRANCH  19  37
HETATM   37  O   UNK     0      32.021   5.373  -8.589  0.00  0.00    -0.393 OA
HETATM   38  H   UNK     0      31.636   4.622  -9.071  0.00  0.00     0.210 HD
ENDBRANCH  19  37
BRANCH  20  39
HETATM   39  O   UNK     0      34.726   4.813  -8.758  0.00  0.00    -0.393 OA
HETATM   40  H   UNK     0      35.375   5.478  -9.045  0.00  0.00     0.210 HD
ENDBRANCH  20  39
ENDBRANCH   1   3
TORSDOF 11
ENDMDL
MODEL 2
REMARK VINA RESULT:      -8.2      1.627      7.528
REMARK  11 active torsions:
REMARK  status: ('A' for Active; 'I' for Inactive)
REMARK    1  A    between atoms: O_1  and  C_9 
REMARK    2  A    between atoms: O_2  and  C_19 
REMARK    3  A    between atoms: O_3  and  C_26 
REMARK    4  A    between atoms: O_4  and  C_27 
REMARK    5  A    between atoms: O_6  and  C_28 
REMARK    6  A    between atoms: O_7  and  C_32 
REMARK    7  A    between atoms: C_10  and  C_19 
REMARK    8  A    between atoms: C_19  and  C_27 
REMARK    9  A    between atoms: C_27  and  C_30 
REMARK   10  A    between atoms: C_30  and  C_31 
REMARK   11  A    between atoms: C_31  and  C_32 
ROOT
HETATM    1  O   UNK     0      36.499   9.651  -1.492  0.00  0.00    -0.384 OA
HETATM    2  H   UNK     0      36.565   9.862  -2.440  0.00  0.00     0.211 HD
ENDROOT
BRANCH   1   3
HETATM    3  C   UNK     0      36.032   8.288  -1.373  0.00  0.00     0.089 C 
HETATM    4  C   UNK     0      35.374   7.851  -2.708  0.00  0.00    -0.002 C 
HETATM    5  C   UNK     0      34.162   8.816  -2.761  0.00  0.00     0.034 C 
HETATM    6  C   UNK     0      36.388   8.062  -3.847  0.00  0.00     0.014 C 
HETATM    7  C   UNK     0      34.903   6.372  -2.695  0.00  0.00     0.019 C 
HETATM    8  C   UNK     0      33.668   8.867  -1.297  0.00  0.00     0.012 C 
HETATM    9  C   UNK     0      34.828   8.347  -0.421  0.00  0.00     0.044 C 
HETATM   10  C   UNK     0      37.668   7.245  -3.603  0.00  0.00     0.011 C 
HETATM   11  C   UNK     0      38.304   7.415  -2.188  0.00  0.00     0.027 C 
HETATM   12  C   UNK     0      39.464   6.377  -1.922  0.00  0.00    -0.023 C 
HETATM   13  C   UNK     0      37.262   7.462  -1.060  0.00  0.00    -0.037 C 
HETATM   14  C   UNK     0      39.922   6.459  -0.439  0.00  0.00     0.071 C 
HETATM   15  C   UNK     0      40.695   6.648  -2.834  0.00  0.00     0.044 C 
HETATM   16  C   UNK     0      39.003   4.921  -2.204  0.00  0.00     0.016 C 
HETATM   17  C   UNK     0      40.674   7.758  -0.098  0.00  0.00     0.047 C 
HETATM   18  C   UNK     0      38.748   6.291   0.507  0.00  0.00     0.154 C 
HETATM   19  C   UNK     0      41.870   7.977  -1.022  0.00  0.00     0.147 C 
HETATM   20  C   UNK     0      41.442   7.941  -2.490  0.00  0.00     0.147 C 
HETATM   21  O   UNK     0      38.868   5.719   1.590  0.00  0.00    -0.293 OA
HETATM   22  C   UNK     0      37.452   6.907   0.147  0.00  0.00     0.057 C 
BRANCH   5  23
HETATM   23  C   UNK     0      33.054   8.463  -3.746  0.00  0.00     0.084 C 
HETATM   24  C   UNK     0      32.525   7.050  -3.451  0.00  0.00     0.049 C 
BRANCH  23  25
HETATM   25  O   UNK     0      31.966   9.377  -3.551  0.00  0.00    -0.387 OA
HETATM   26  H   UNK     0      31.834   9.887  -4.367  0.00  0.00     0.210 HD
ENDBRANCH  23  25
BRANCH  23  27
HETATM   27  C   UNK     0      33.523   8.577  -5.223  0.00  0.00     0.152 C 
BRANCH  27  28
HETATM   28  O   UNK     0      33.283   9.904  -5.701  0.00  0.00    -0.393 OA
HETATM   29  H   UNK     0      32.687   9.833  -6.467  0.00  0.00     0.210 HD
ENDBRANCH  27  28
BRANCH  27  30
HETATM   30  C   UNK     0      32.838   7.585  -6.182  0.00  0.00     0.037 C 
BRANCH  30  31
HETATM   31  C   UNK     0      33.685   7.319  -7.440  0.00  0.00     0.040 C 
BRANCH  31  32
HETATM   32  C   UNK     0      33.781   5.833  -7.845  0.00  0.00     0.051 C 
HETATM   33  C   UNK     0      35.104   5.248  -7.340  0.00  0.00     0.045 C 
HETATM   34  C   UNK     0      32.609   5.004  -7.316  0.00  0.00     0.045 C 
BRANCH  32  35
HETATM   35  O   UNK     0      33.783   5.755  -9.272  0.00  0.00    -0.391 OA
HETATM   36  H   UNK     0      34.609   5.322  -9.546  0.00  0.00     0.210 HD
ENDBRANCH  32  35
ENDBRANCH  31  32
ENDBRANCH  30  31
ENDBRANCH  27  30
ENDBRANCH  23  27
ENDBRANCH   5  23
BRANCH  19  37
HETATM   37  O   UNK     0      42.837   6.952  -0.788  0.00  0.00    -0.393 OA
HETATM   38  H   UNK     0      43.031   6.943   0.164  0.00  0.00     0.210 HD
ENDBRANCH  19  37
BRANCH  20  39
HETATM   39  O   UNK     0      42.600   8.058  -3.314  0.00  0.00    -0.393 OA
HETATM   40  H   UNK     0      42.422   8.754  -3.970  0.00  0.00     0.210 HD
ENDBRANCH  20  39
ENDBRANCH   1   3
TORSDOF 11
ENDMDL
MODEL 3
REMARK VINA RESULT:      -8.2      1.709      2.678
REMARK  11 active torsions:
REMARK  status: ('A' for Active; 'I' for Inactive)
REMARK    1  A    between atoms: O_1  and  C_9 
REMARK    2  A    between atoms: O_2  and  C_19 
REMARK    3  A    between atoms: O_3  and  C_26 
REMARK    4  A    between atoms: O_4  and  C_27 
REMARK    5  A    between atoms: O_6  and  C_28 
REMARK    6  A    between atoms: O_7  and  C_32 
REMARK    7  A    between atoms: C_10  and  C_19 
REMARK    8  A    between atoms: C_19  and  C_27 
REMARK    9  A    between atoms: C_27  and  C_30 
REMARK   10  A    between atoms: C_30  and  C_31 
REMARK   11  A    between atoms: C_31  and  C_32 
ROOT
HETATM    1  O   UNK     0      34.933   5.538  -2.345  0.00  0.00    -0.384 OA
HETATM    2  H   UNK     0      35.051   5.217  -3.255  0.00  0.00     0.211 HD
ENDROOT
BRANCH   1   3
HETATM    3  C   UNK     0      34.744   6.971  -2.402  0.00  0.00     0.089 C 
HETATM    4  C   UNK     0      36.128   7.671  -2.434  0.00  0.00    -0.002 C 
HETATM    5  C   UNK     0      36.686   7.273  -1.043  0.00  0.00     0.034 C 
HETATM    6  C   UNK     0      36.936   7.105  -3.615  0.00  0.00     0.014 C 
HETATM    7  C   UNK     0      36.021   9.215  -2.565  0.00  0.00     0.019 C 
HETATM    8  C   UNK     0      35.459   7.382  -0.110  0.00  0.00     0.012 C 
HETATM    9  C   UNK     0      34.209   7.371  -1.018  0.00  0.00     0.044 C 
HETATM   10  C   UNK     0      36.202   7.336  -4.946  0.00  0.00     0.011 C 
HETATM   11  C   UNK     0      34.708   6.887  -4.966  0.00  0.00     0.027 C 
HETATM   12  C   UNK     0      33.954   7.367  -6.268  0.00  0.00    -0.023 C 
HETATM   13  C   UNK     0      33.958   7.228  -3.669  0.00  0.00    -0.037 C 
HETATM   14  C   UNK     0      32.433   7.068  -6.143  0.00  0.00     0.071 C 
HETATM   15  C   UNK     0      34.494   6.653  -7.540  0.00  0.00     0.044 C 
HETATM   16  C   UNK     0      34.126   8.893  -6.497  0.00  0.00     0.016 C 
HETATM   17  C   UNK     0      32.095   5.568  -6.205  0.00  0.00     0.047 C 
HETATM   18  C   UNK     0      31.860   7.663  -4.872  0.00  0.00     0.154 C 
HETATM   19  C   UNK     0      32.649   4.915  -7.470  0.00  0.00     0.147 C 
HETATM   20  C   UNK     0      34.153   5.160  -7.598  0.00  0.00     0.147 C 
HETATM   21  O   UNK     0      30.714   8.109  -4.826  0.00  0.00    -0.293 OA
HETATM   22  C   UNK     0      32.677   7.627  -3.638  0.00  0.00     0.057 C 
BRANCH   5  23
HETATM   23  C   UNK     0      37.885   8.066  -0.538  0.00  0.00     0.084 C 
HETATM   24  C   UNK     0      38.639   8.684  -1.727  0.00  0.00     0.049 C 
BRANCH  23  25
HETATM   25  O   UNK     0      37.404   9.146   0.273  0.00  0.00    -0.387 OA
HETATM   26  H   UNK     0      37.996   9.909   0.164  0.00  0.00     0.210 HD
ENDBRANCH  23  25
BRANCH  23  27
HETATM   27  C   UNK     0      38.840   7.199   0.327  0.00  0.00     0.152 C 
BRANCH  27  28
HETATM   28  O   UNK     0      38.602   5.813   0.061  0.00  0.00    -0.393 OA
HETATM   29  H   UNK     0      38.540   5.709  -0.905  0.00  0.00     0.210 HD
ENDBRANCH  27  28
BRANCH  27  30
HETATM   30  C   UNK     0      38.705   7.431   1.844  0.00  0.00     0.037 C 
BRANCH  30  31
HETATM   31  C   UNK     0      38.134   6.198   2.569  0.00  0.00     0.040 C 
BRANCH  31  32
HETATM   32  C   UNK     0      39.180   5.373   3.348  0.00  0.00     0.051 C 
HETATM   33  C   UNK     0      40.070   6.315   4.166  0.00  0.00     0.045 C 
HETATM   34  C   UNK     0      38.539   4.332   4.268  0.00  0.00     0.045 C 
BRANCH  32  35
HETATM   35  O   UNK     0      40.011   4.694   2.404  0.00  0.00    -0.391 OA
HETATM   36  H   UNK     0      39.655   3.798   2.283  0.00  0.00     0.210 HD
ENDBRANCH  32  35
ENDBRANCH  31  32
ENDBRANCH  30  31
ENDBRANCH  27  30
ENDBRANCH  23  27
ENDBRANCH   5  23
BRANCH  19  37
HETATM   37  O   UNK     0      31.983   5.462  -8.609  0.00  0.00    -0.393 OA
HETATM   38  H   UNK     0      31.827   6.405  -8.433  0.00  0.00     0.210 HD
ENDBRANCH  19  37
BRANCH  20  39
HETATM   39  O   UNK     0      34.608   4.614  -8.834  0.00  0.00    -0.393 OA
HETATM   40  H   UNK     0      33.836   4.237  -9.289  0.00  0.00     0.210 HD
ENDBRANCH  20  39
ENDBRANCH   1   3
TORSDOF 11
ENDMDL
MODEL 4
REMARK VINA RESULT:      -8.0      5.030      9.551
REMARK  11 active torsions:
REMARK  status: ('A' for Active; 'I' for Inactive)
REMARK    1  A    between atoms: O_1  and  C_9 
REMARK    2  A    between atoms: O_2  and  C_19 
REMARK    3  A    between atoms: O_3  and  C_26 
REMARK    4  A    between atoms: O_4  and  C_27 
REMARK    5  A    between atoms: O_6  and  C_28 
REMARK    6  A    between atoms: O_7  and  C_32 
REMARK    7  A    between atoms: C_10  and  C_19 
REMARK    8  A    between atoms: C_19  and  C_27 
REMARK    9  A    between atoms: C_27  and  C_30 
REMARK   10  A    between atoms: C_30  and  C_31 
REMARK   11  A    between atoms: C_31  and  C_32 
ROOT
HETATM    1  O   UNK     0      30.037  10.198  -5.683  0.00  0.00    -0.384 OA
HETATM    2  H   UNK     0      30.517  10.857  -6.214  0.00  0.00     0.211 HD
ENDROOT
BRANCH   1   3
HETATM    3  C   UNK     0      30.712  10.079  -4.411  0.00  0.00     0.089 C 
HETATM    4  C   UNK     0      29.744   9.458  -3.370  0.00  0.00    -0.002 C 
HETATM    5  C   UNK     0      28.662  10.565  -3.286  0.00  0.00     0.034 C 
HETATM    6  C   UNK     0      29.224   8.119  -3.923  0.00  0.00     0.014 C 
HETATM    7  C   UNK     0      30.409   9.229  -1.986  0.00  0.00     0.019 C 
HETATM    8  C   UNK     0      29.475  11.878  -3.331  0.00  0.00     0.012 C 
HETATM    9  C   UNK     0      30.868  11.516  -3.891  0.00  0.00     0.044 C 
HETATM   10  C   UNK     0      30.384   7.149  -4.202  0.00  0.00     0.011 C 
HETATM   11  C   UNK     0      31.553   7.740  -5.049  0.00  0.00     0.027 C 
HETATM   12  C   UNK     0      32.807   6.782  -5.094  0.00  0.00    -0.023 C 
HETATM   13  C   UNK     0      31.907   9.185  -4.665  0.00  0.00    -0.037 C 
HETATM   14  C   UNK     0      34.003   7.501  -5.778  0.00  0.00     0.071 C 
HETATM   15  C   UNK     0      32.502   5.475  -5.881  0.00  0.00     0.044 C 
HETATM   16  C   UNK     0      33.253   6.358  -3.668  0.00  0.00     0.016 C 
HETATM   17  C   UNK     0      33.808   7.717  -7.289  0.00  0.00     0.047 C 
HETATM   18  C   UNK     0      34.297   8.832  -5.112  0.00  0.00     0.154 C 
HETATM   19  C   UNK     0      33.509   6.406  -8.014  0.00  0.00     0.147 C 
HETATM   20  C   UNK     0      32.311   5.694  -7.385  0.00  0.00     0.147 C 
HETATM   21  O   UNK     0      35.444   9.264  -5.010  0.00  0.00    -0.293 OA
HETATM   22  C   UNK     0      33.162   9.660  -4.649  0.00  0.00     0.057 C 
BRANCH   5  23
HETATM   23  C   UNK     0      27.712  10.499  -2.096  0.00  0.00     0.084 C 
HETATM   24  C   UNK     0      27.202   9.060  -1.915  0.00  0.00     0.049 C 
BRANCH  23  25
HETATM   25  O   UNK     0      28.443  10.846  -0.913  0.00  0.00    -0.387 OA
HETATM   26  H   UNK     0      28.281  11.781  -0.705  0.00  0.00     0.210 HD
ENDBRANCH  23  25
BRANCH  23  27
HETATM   27  C   UNK     0      26.523  11.488  -2.238  0.00  0.00     0.152 C 
BRANCH  27  28
HETATM   28  O   UNK     0      26.326  12.182  -1.002  0.00  0.00    -0.393 OA
HETATM   29  H   UNK     0      27.206  12.403  -0.649  0.00  0.00     0.210 HD
ENDBRANCH  27  28
BRANCH  27  30
HETATM   30  C   UNK     0      25.192  10.824  -2.638  0.00  0.00     0.037 C 
BRANCH  30  31
HETATM   31  C   UNK     0      23.994  11.430  -1.883  0.00  0.00     0.040 C 
BRANCH  31  32
HETATM   32  C   UNK     0      22.759  10.510  -1.798  0.00  0.00     0.051 C 
HETATM   33  C   UNK     0      23.070   9.318  -0.886  0.00  0.00     0.045 C 
HETATM   34  C   UNK     0      21.515  11.242  -1.292  0.00  0.00     0.045 C 
BRANCH  32  35
HETATM   35  O   UNK     0      22.486  10.001  -3.105  0.00  0.00    -0.391 OA
HETATM   36  H   UNK     0      22.236  10.751  -3.671  0.00  0.00     0.210 HD
ENDBRANCH  32  35
ENDBRANCH  31  32
ENDBRANCH  30  31
ENDBRANCH  27  30
ENDBRANCH  23  27
ENDBRANCH   5  23
BRANCH  19  37
HETATM   37  O   UNK     0      34.655   5.556  -7.936  0.00  0.00    -0.393 OA
HETATM   38  H   UNK     0      34.352   4.642  -8.066  0.00  0.00     0.210 HD
ENDBRANCH  19  37
BRANCH  20  39
HETATM   39  O   UNK     0      32.126   4.437  -8.032  0.00  0.00    -0.393 OA
HETATM   40  H   UNK     0      32.909   4.276  -8.587  0.00  0.00     0.210 HD
ENDBRANCH  20  39
ENDBRANCH   1   3
TORSDOF 11
ENDMDL
MODEL 5
REMARK VINA RESULT:      -8.0      1.982      7.772
REMARK  11 active torsions:
REMARK  status: ('A' for Active; 'I' for Inactive)
REMARK    1  A    between atoms: O_1  and  C_9 
REMARK    2  A    between atoms: O_2  and  C_19 
REMARK    3  A    between atoms: O_3  and  C_26 
REMARK    4  A    between atoms: O_4  and  C_27 
REMARK    5  A    between atoms: O_6  and  C_28 
REMARK    6  A    between atoms: O_7  and  C_32 
REMARK    7  A    between atoms: C_10  and  C_19 
REMARK    8  A    between atoms: C_19  and  C_27 
REMARK    9  A    between atoms: C_27  and  C_30 
REMARK   10  A    between atoms: C_30  and  C_31 
REMARK   11  A    between atoms: C_31  and  C_32 
ROOT
HETATM    1  O   UNK     0      35.390   8.014  -0.772  0.00  0.00    -0.384 OA
HETATM    2  H   UNK     0      35.748   7.442  -0.071  0.00  0.00     0.211 HD
ENDROOT
BRANCH   1   3
HETATM    3  C   UNK     0      35.842   7.492  -2.042  0.00  0.00     0.089 C 
HETATM    4  C   UNK     0      35.701   8.589  -3.129  0.00  0.00    -0.002 C 
HETATM    5  C   UNK     0      34.163   8.773  -3.157  0.00  0.00     0.034 C 
HETATM    6  C   UNK     0      36.470   9.839  -2.665  0.00  0.00     0.014 C 
HETATM    7  C   UNK     0      36.230   8.136  -4.517  0.00  0.00     0.019 C 
HETATM    8  C   UNK     0      33.618   7.333  -3.023  0.00  0.00     0.012 C 
HETATM    9  C   UNK     0      34.775   6.472  -2.471  0.00  0.00     0.044 C 
HETATM   10  C   UNK     0      37.956   9.519  -2.434  0.00  0.00     0.011 C 
HETATM   11  C   UNK     0      38.234   8.272  -1.538  0.00  0.00     0.027 C 
HETATM   12  C   UNK     0      39.758   7.859  -1.539  0.00  0.00    -0.023 C 
HETATM   13  C   UNK     0      37.287   7.097  -1.829  0.00  0.00    -0.037 C 
HETATM   14  C   UNK     0      39.944   6.505  -0.799  0.00  0.00     0.071 C 
HETATM   15  C   UNK     0      40.641   8.930  -0.837  0.00  0.00     0.044 C 
HETATM   16  C   UNK     0      40.305   7.697  -2.983  0.00  0.00     0.016 C 
HETATM   17  C   UNK     0      39.717   6.599   0.720  0.00  0.00     0.047 C 
HETATM   18  C   UNK     0      39.040   5.434  -1.380  0.00  0.00     0.154 C 
HETATM   19  C   UNK     0      40.605   7.664   1.360  0.00  0.00     0.147 C 
HETATM   20  C   UNK     0      40.415   9.018   0.676  0.00  0.00     0.147 C 
HETATM   21  O   UNK     0      39.390   4.257  -1.442  0.00  0.00    -0.293 OA
HETATM   22  C   UNK     0      37.673   5.812  -1.803  0.00  0.00     0.057 C 
BRANCH   5  23
HETATM   23  C   UNK     0      33.587   9.512  -4.360  0.00  0.00     0.084 C 
HETATM   24  C   UNK     0      32.055   9.375  -4.371  0.00  0.00     0.049 C 
BRANCH  23  25
HETATM   25  O   UNK     0      33.891  10.906  -4.222  0.00  0.00    -0.387 OA
HETATM   26  H   UNK     0      34.714  11.098  -4.703  0.00  0.00     0.210 HD
ENDBRANCH  23  25
BRANCH  23  27
HETATM   27  C   UNK     0      34.192   9.014  -5.700  0.00  0.00     0.152 C 
BRANCH  27  28
HETATM   28  O   UNK     0      34.415  10.129  -6.569  0.00  0.00    -0.393 OA
HETATM   29  H   UNK     0      33.894   9.976  -7.377  0.00  0.00     0.210 HD
ENDBRANCH  27  28
BRANCH  27  30
HETATM   30  C   UNK     0      33.319   7.985  -6.445  0.00  0.00     0.037 C 
BRANCH  30  31
HETATM   31  C   UNK     0      34.038   7.403  -7.677  0.00  0.00     0.040 C 
BRANCH  31  32
HETATM   32  C   UNK     0      33.858   5.881  -7.862  0.00  0.00     0.051 C 
HETATM   33  C   UNK     0      35.127   5.156  -7.401  0.00  0.00     0.045 C 
HETATM   34  C   UNK     0      32.643   5.338  -7.107  0.00  0.00     0.045 C 
BRANCH  32  35
HETATM   35  O   UNK     0      33.682   5.616  -9.255  0.00  0.00    -0.391 OA
HETATM   36  H   UNK     0      34.507   5.853  -9.710  0.00  0.00     0.210 HD
ENDBRANCH  32  35
ENDBRANCH  31  32
ENDBRANCH  30  31
ENDBRANCH  27  30
ENDBRANCH  23  27
ENDBRANCH   5  23
BRANCH  19  37
HETATM   37  O   UNK     0      41.973   7.266   1.243  0.00  0.00    -0.393 OA
HETATM   38  H   UNK     0      41.995   6.294   1.235  0.00  0.00     0.210 HD
ENDBRANCH  19  37
BRANCH  20  39
HETATM   39  O   UNK     0      41.326   9.957   1.242  0.00  0.00    -0.393 OA
HETATM   40  H   UNK     0      41.630  10.539   0.525  0.00  0.00     0.210 HD
ENDBRANCH  20  39
ENDBRANCH   1   3
TORSDOF 11
ENDMDL
MODEL 6
REMARK VINA RESULT:      -8.0     16.203     19.377
REMARK  11 active torsions:
REMARK  status: ('A' for Active; 'I' for Inactive)
REMARK    1  A    between atoms: O_1  and  C_9 
REMARK    2  A    between atoms: O_2  and  C_19 
REMARK    3  A    between atoms: O_3  and  C_26 
REMARK    4  A    between atoms: O_4  and  C_27 
REMARK    5  A    between atoms: O_6  and  C_28 
REMARK    6  A    between atoms: O_7  and  C_32 
REMARK    7  A    between atoms: C_10  and  C_19 
REMARK    8  A    between atoms: C_19  and  C_27 
REMARK    9  A    between atoms: C_27  and  C_30 
REMARK   10  A    between atoms: C_30  and  C_31 
REMARK   11  A    between atoms: C_31  and  C_32 
ROOT
HETATM    1  O   UNK     0      35.902  -3.609  13.048  0.00  0.00    -0.384 OA
HETATM    2  H   UNK     0      36.097  -4.560  12.988  0.00  0.00     0.211 HD
ENDROOT
BRANCH   1   3
HETATM    3  C   UNK     0      36.049  -3.043  11.726  0.00  0.00     0.089 C 
HETATM    4  C   UNK     0      34.656  -2.939  11.053  0.00  0.00    -0.002 C 
HETATM    5  C   UNK     0      34.275  -4.437  10.941  0.00  0.00     0.034 C 
HETATM    6  C   UNK     0      33.727  -2.127  11.974  0.00  0.00     0.014 C 
HETATM    7  C   UNK     0      34.709  -2.276   9.650  0.00  0.00     0.019 C 
HETATM    8  C   UNK     0      35.601  -5.124  10.541  0.00  0.00     0.012 C 
HETATM    9  C   UNK     0      36.734  -4.133  10.886  0.00  0.00     0.044 C 
HETATM   10  C   UNK     0      34.293  -0.720  12.227  0.00  0.00     0.011 C 
HETATM   11  C   UNK     0      35.784  -0.677  12.683  0.00  0.00     0.027 C 
HETATM   12  C   UNK     0      36.368   0.790  12.691  0.00  0.00    -0.023 C 
HETATM   13  C   UNK     0      36.674  -1.680  11.932  0.00  0.00    -0.037 C 
HETATM   14  C   UNK     0      37.900   0.752  12.957  0.00  0.00     0.071 C 
HETATM   15  C   UNK     0      35.699   1.667  13.787  0.00  0.00     0.044 C 
HETATM   16  C   UNK     0      36.134   1.505  11.332  0.00  0.00     0.016 C 
HETATM   17  C   UNK     0      38.263   0.337  14.393  0.00  0.00     0.047 C 
HETATM   18  C   UNK     0      38.605  -0.161  11.973  0.00  0.00     0.154 C 
HETATM   19  C   UNK     0      37.579   1.227  15.430  0.00  0.00     0.147 C 
HETATM   20  C   UNK     0      36.066   1.252  15.216  0.00  0.00     0.147 C 
HETATM   21  O   UNK     0      39.737   0.085  11.560  0.00  0.00    -0.293 OA
HETATM   22  C   UNK     0      37.940  -1.421  11.570  0.00  0.00     0.057 C 
BRANCH   5  23
HETATM   23  C   UNK     0      33.126  -4.780  10.001  0.00  0.00     0.084 C 
HETATM   24  C   UNK     0      31.966  -5.398  10.800  0.00  0.00     0.049 C 
BRANCH  23  25
HETATM   25  O   UNK     0      32.642  -3.564   9.416  0.00  0.00    -0.387 OA
HETATM   26  H   UNK     0      31.899  -3.232   9.947  0.00  0.00     0.210 HD
ENDBRANCH  23  25
BRANCH  23  27
HETATM   27  C   UNK     0      33.568  -5.727   8.853  0.00  0.00     0.152 C 
BRANCH  27  28
HETATM   28  O   UNK     0      33.385  -5.073   7.594  0.00  0.00    -0.393 OA
HETATM   29  H   UNK     0      34.100  -5.371   7.005  0.00  0.00     0.210 HD
ENDBRANCH  27  28
BRANCH  27  30
HETATM   30  C   UNK     0      32.814  -7.071   8.816  0.00  0.00     0.037 C 
BRANCH  30  31
HETATM   31  C   UNK     0      33.383  -8.022   7.747  0.00  0.00     0.040 C 
BRANCH  31  32
HETATM   32  C   UNK     0      32.315  -8.743   6.898  0.00  0.00     0.051 C 
HETATM   33  C   UNK     0      31.641  -7.736   5.960  0.00  0.00     0.045 C 
HETATM   34  C   UNK     0      32.894  -9.904   6.087  0.00  0.00     0.045 C 
BRANCH  32  35
HETATM   35  O   UNK     0      31.314  -9.259   7.778  0.00  0.00    -0.391 OA
HETATM   36  H   UNK     0      31.556  -9.007   8.686  0.00  0.00     0.210 HD
ENDBRANCH  32  35
ENDBRANCH  31  32
ENDBRANCH  30  31
ENDBRANCH  27  30
ENDBRANCH  23  27
ENDBRANCH   5  23
BRANCH  19  37
HETATM   37  O   UNK     0      38.093   2.556  15.318  0.00  0.00    -0.393 OA
HETATM   38  H   UNK     0      38.954   2.501  14.870  0.00  0.00     0.210 HD
ENDBRANCH  19  37
BRANCH  20  39
HETATM   39  O   UNK     0      35.481   2.163  16.143  0.00  0.00    -0.393 OA
HETATM   40  H   UNK     0      34.751   2.616  15.688  0.00  0.00     0.210 HD
ENDBRANCH  20  39
ENDBRANCH   1   3
TORSDOF 11
ENDMDL
MODEL 7
REMARK VINA RESULT:      -7.9      1.678      2.358
REMARK  11 active torsions:
REMARK  status: ('A' for Active; 'I' for Inactive)
REMARK    1  A    between atoms: O_1  and  C_9 
REMARK    2  A    between atoms: O_2  and  C_19 
REMARK    3  A    between atoms: O_3  and  C_26 
REMARK    4  A    between atoms: O_4  and  C_27 
REMARK    5  A    between atoms: O_6  and  C_28 
REMARK    6  A    between atoms: O_7  and  C_32 
REMARK    7  A    between atoms: C_10  and  C_19 
REMARK    8  A    between atoms: C_19  and  C_27 
REMARK    9  A    between atoms: C_27  and  C_30 
REMARK   10  A    between atoms: C_30  and  C_31 
REMARK   11  A    between atoms: C_31  and  C_32 
ROOT
HETATM    1  O   UNK     0      35.420   5.739  -2.442  0.00  0.00    -0.384 OA
HETATM    2  H   UNK     0      36.252   5.546  -2.909  0.00  0.00     0.211 HD
ENDROOT
BRANCH   1   3
HETATM    3  C   UNK     0      35.185   7.163  -2.527  0.00  0.00     0.089 C 
HETATM    4  C   UNK     0      36.541   7.899  -2.692  0.00  0.00    -0.002 C 
HETATM    5  C   UNK     0      37.220   7.562  -1.340  0.00  0.00     0.034 C 
HETATM    6  C   UNK     0      37.268   7.317  -3.918  0.00  0.00     0.014 C 
HETATM    7  C   UNK     0      36.379   9.434  -2.862  0.00  0.00     0.019 C 
HETATM    8  C   UNK     0      36.068   7.669  -0.314  0.00  0.00     0.012 C 
HETATM    9  C   UNK     0      34.751   7.594  -1.118  0.00  0.00     0.044 C 
HETATM   10  C   UNK     0      36.424   7.484  -5.191  0.00  0.00     0.011 C 
HETATM   11  C   UNK     0      34.947   6.994  -5.077  0.00  0.00     0.027 C 
HETATM   12  C   UNK     0      34.076   7.411  -6.327  0.00  0.00    -0.023 C 
HETATM   13  C   UNK     0      34.293   7.357  -3.734  0.00  0.00    -0.037 C 
HETATM   14  C   UNK     0      32.580   7.075  -6.070  0.00  0.00     0.071 C 
HETATM   15  C   UNK     0      34.534   6.671  -7.616  0.00  0.00     0.044 C 
HETATM   16  C   UNK     0      34.185   8.933  -6.616  0.00  0.00     0.016 C 
HETATM   17  C   UNK     0      32.283   5.566  -6.059  0.00  0.00     0.047 C 
HETATM   18  C   UNK     0      32.093   7.697  -4.775  0.00  0.00     0.154 C 
HETATM   19  C   UNK     0      32.753   4.887  -7.344  0.00  0.00     0.147 C 
HETATM   20  C   UNK     0      34.233   5.168  -7.601  0.00  0.00     0.147 C 
HETATM   21  O   UNK     0      30.942   8.113  -4.651  0.00  0.00    -0.293 OA
HETATM   22  C   UNK     0      33.008   7.723  -3.612  0.00  0.00     0.057 C 
BRANCH   5  23
HETATM   23  C   UNK     0      38.431   8.403  -0.958  0.00  0.00     0.084 C 
HETATM   24  C   UNK     0      38.022   9.880  -0.833  0.00  0.00     0.049 C 
BRANCH  23  25
HETATM   25  O   UNK     0      38.892   7.975   0.330  0.00  0.00    -0.387 OA
HETATM   26  H   UNK     0      38.375   8.430   1.016  0.00  0.00     0.210 HD
ENDBRANCH  23  25
BRANCH  23  27
HETATM   27  C   UNK     0      39.600   8.241  -1.968  0.00  0.00     0.152 C 
BRANCH  27  28
HETATM   28  O   UNK     0      40.770   7.789  -1.279  0.00  0.00    -0.393 OA
HETATM   29  H   UNK     0      41.387   7.444  -1.948  0.00  0.00     0.210 HD
ENDBRANCH  27  28
BRANCH  27  30
HETATM   30  C   UNK     0      39.957   9.530  -2.734  0.00  0.00     0.037 C 
BRANCH  30  31
HETATM   31  C   UNK     0      41.453   9.875  -2.618  0.00  0.00     0.040 C 
BRANCH  31  32
HETATM   32  C   UNK     0      41.768  11.050  -1.670  0.00  0.00     0.051 C 
HETATM   33  C   UNK     0      43.196  11.546  -1.924  0.00  0.00     0.045 C 
HETATM   34  C   UNK     0      40.779  12.208  -1.823  0.00  0.00     0.045 C 
BRANCH  32  35
HETATM   35  O   UNK     0      41.702  10.573  -0.325  0.00  0.00    -0.391 OA
HETATM   36  H   UNK     0      40.871  10.079  -0.223  0.00  0.00     0.210 HD
ENDBRANCH  32  35
ENDBRANCH  31  32
ENDBRANCH  30  31
ENDBRANCH  27  30
ENDBRANCH  23  27
ENDBRANCH   5  23
BRANCH  19  37
HETATM   37  O   UNK     0      31.982   5.378  -8.442  0.00  0.00    -0.393 OA
HETATM   38  H   UNK     0      32.392   6.207  -8.741  0.00  0.00     0.210 HD
ENDBRANCH  19  37
BRANCH  20  39
HETATM   39  O   UNK     0      34.604   4.594  -8.852  0.00  0.00    -0.393 OA
HETATM   40  H   UNK     0      33.860   4.723  -9.465  0.00  0.00     0.210 HD
ENDBRANCH  20  39
ENDBRANCH   1   3
TORSDOF 11
ENDMDL
MODEL 8
REMARK VINA RESULT:      -7.9      3.597      7.017
REMARK  11 active torsions:
REMARK  status: ('A' for Active; 'I' for Inactive)
REMARK    1  A    between atoms: O_1  and  C_9 
REMARK    2  A    between atoms: O_2  and  C_19 
REMARK    3  A    between atoms: O_3  and  C_26 
REMARK    4  A    between atoms: O_4  and  C_27 
REMARK    5  A    between atoms: O_6  and  C_28 
REMARK    6  A    between atoms: O_7  and  C_32 
REMARK    7  A    between atoms: C_10  and  C_19 
REMARK    8  A    between atoms: C_19  and  C_27 
REMARK    9  A    between atoms: C_27  and  C_30 
REMARK   10  A    between atoms: C_30  and  C_31 
REMARK   11  A    between atoms: C_31  and  C_32 
ROOT
HETATM    1  O   UNK     0      34.392  10.757  -6.432  0.00  0.00    -0.384 OA
HETATM    2  H   UNK     0      34.955  10.239  -7.034  0.00  0.00     0.211 HD
ENDROOT
BRANCH   1   3
HETATM    3  C   UNK     0      34.624  10.277  -5.088  0.00  0.00     0.089 C 
HETATM    4  C   UNK     0      33.421  10.664  -4.189  0.00  0.00    -0.002 C 
HETATM    5  C   UNK     0      33.524  12.210  -4.217  0.00  0.00     0.034 C 
HETATM    6  C   UNK     0      32.134  10.113  -4.830  0.00  0.00     0.014 C 
HETATM    7  C   UNK     0      33.553  10.127  -2.738  0.00  0.00     0.019 C 
HETATM    8  C   UNK     0      35.044  12.479  -4.134  0.00  0.00     0.012 C 
HETATM    9  C   UNK     0      35.748  11.160  -4.524  0.00  0.00     0.044 C 
HETATM   10  C   UNK     0      32.204   8.585  -4.982  0.00  0.00     0.011 C 
HETATM   11  C   UNK     0      33.498   8.045  -5.665  0.00  0.00     0.027 C 
HETATM   12  C   UNK     0      33.615   6.473  -5.573  0.00  0.00    -0.023 C 
HETATM   13  C   UNK     0      34.771   8.776  -5.211  0.00  0.00    -0.037 C 
HETATM   14  C   UNK     0      35.007   6.011  -6.089  0.00  0.00     0.071 C 
HETATM   15  C   UNK     0      32.517   5.766  -6.419  0.00  0.00     0.044 C 
HETATM   16  C   UNK     0      33.453   5.973  -4.112  0.00  0.00     0.016 C 
HETATM   17  C   UNK     0      35.187   6.181  -7.608  0.00  0.00     0.047 C 
HETATM   18  C   UNK     0      36.127   6.733  -5.364  0.00  0.00     0.154 C 
HETATM   19  C   UNK     0      34.084   5.471  -8.391  0.00  0.00     0.147 C 
HETATM   20  C   UNK     0      32.701   5.935  -7.931  0.00  0.00     0.147 C 
HETATM   21  O   UNK     0      37.196   6.178  -5.111  0.00  0.00    -0.293 OA
HETATM   22  C   UNK     0      35.951   8.163  -5.029  0.00  0.00     0.057 C 
BRANCH   5  23
HETATM   23  C   UNK     0      32.732  12.965  -3.156  0.00  0.00     0.084 C 
HETATM   24  C   UNK     0      33.074  12.415  -1.762  0.00  0.00     0.049 C 
BRANCH  23  25
HETATM   25  O   UNK     0      33.134  14.341  -3.184  0.00  0.00    -0.387 OA
HETATM   26  H   UNK     0      33.609  14.513  -4.014  0.00  0.00     0.210 HD
ENDBRANCH  23  25
BRANCH  23  27
HETATM   27  C   UNK     0      31.201  12.902  -3.411  0.00  0.00     0.152 C 
BRANCH  27  28
HETATM   28  O   UNK     0      30.669  14.230  -3.461  0.00  0.00    -0.393 OA
HETATM   29  H   UNK     0      30.821  14.571  -4.360  0.00  0.00     0.210 HD
ENDBRANCH  27  28
BRANCH  27  30
HETATM   30  C   UNK     0      30.416  12.105  -2.352  0.00  0.00     0.037 C 
BRANCH  30  31
HETATM   31  C   UNK     0      29.104  11.531  -2.917  0.00  0.00     0.040 C 
BRANCH  31  32
HETATM   32  C   UNK     0      28.856  10.046  -2.577  0.00  0.00     0.051 C 
HETATM   33  C   UNK     0      27.605   9.923  -1.700  0.00  0.00     0.045 C 
HETATM   34  C   UNK     0      28.705   9.175  -3.826  0.00  0.00     0.045 C 
BRANCH  32  35
HETATM   35  O   UNK     0      29.970   9.566  -1.822  0.00  0.00    -0.391 OA
HETATM   36  H   UNK     0      30.266  10.284  -1.237  0.00  0.00     0.210 HD
ENDBRANCH  32  35
ENDBRANCH  31  32
ENDBRANCH  30  31
ENDBRANCH  27  30
ENDBRANCH  23  27
ENDBRANCH   5  23
BRANCH  19  37
HETATM   37  O   UNK     0      34.199   4.061  -8.188  0.00  0.00    -0.393 OA
HETATM   38  H   UNK     0      34.842   3.724  -8.834  0.00  0.00     0.210 HD
ENDBRANCH  19  37
BRANCH  20  39
HETATM   39  O   UNK     0      31.706   5.183  -8.621  0.00  0.00    -0.393 OA
HETATM   40  H   UNK     0      32.166   4.578  -9.229  0.00  0.00     0.210 HD
ENDBRANCH  20  39
ENDBRANCH   1   3
TORSDOF 11
ENDMDL
MODEL 9
REMARK VINA RESULT:      -7.7      1.946      3.175
REMARK  11 active torsions:
REMARK  status: ('A' for Active; 'I' for Inactive)
REMARK    1  A    between atoms: O_1  and  C_9 
REMARK    2  A    between atoms: O_2  and  C_19 
REMARK    3  A    between atoms: O_3  and  C_26 
REMARK    4  A    between atoms: O_4  and  C_27 
REMARK    5  A    between atoms: O_6  and  C_28 
REMARK    6  A    between atoms: O_7  and  C_32 
REMARK    7  A    between atoms: C_10  and  C_19 
REMARK    8  A    between atoms: C_19  and  C_27 
REMARK    9  A    between atoms: C_27  and  C_30 
REMARK   10  A    between atoms: C_30  and  C_31 
REMARK   11  A    between atoms: C_31  and  C_32 
ROOT
HETATM    1  O   UNK     0      35.174   5.895  -2.623  0.00  0.00    -0.384 OA
HETATM    2  H   UNK     0      34.212   5.964  -2.489  0.00  0.00     0.211 HD
ENDROOT
BRANCH   1   3
HETATM    3  C   UNK     0      35.664   7.206  -2.988  0.00  0.00     0.089 C 
HETATM    4  C   UNK     0      37.075   7.071  -3.617  0.00  0.00    -0.002 C 
HETATM    5  C   UNK     0      37.880   6.530  -2.408  0.00  0.00     0.034 C 
HETATM    6  C   UNK     0      36.992   6.089  -4.800  0.00  0.00     0.014 C 
HETATM    7  C   UNK     0      37.652   8.428  -4.103  0.00  0.00     0.019 C 
HETATM    8  C   UNK     0      37.321   7.328  -1.208  0.00  0.00     0.012 C 
HETATM    9  C   UNK     0      35.967   7.916  -1.660  0.00  0.00     0.044 C 
HETATM   10  C   UNK     0      35.993   6.584  -5.858  0.00  0.00     0.011 C 
HETATM   11  C   UNK     0      34.589   6.987  -5.308  0.00  0.00     0.027 C 
HETATM   12  C   UNK     0      33.701   7.706  -6.397  0.00  0.00    -0.023 C 
HETATM   13  C   UNK     0      34.660   7.755  -3.979  0.00  0.00    -0.037 C 
HETATM   14  C   UNK     0      32.402   8.259  -5.745  0.00  0.00     0.071 C 
HETATM   15  C   UNK     0      33.301   6.734  -7.544  0.00  0.00     0.044 C 
HETATM   16  C   UNK     0      34.453   8.896  -7.054  0.00  0.00     0.016 C 
HETATM   17  C   UNK     0      31.416   7.161  -5.312  0.00  0.00     0.047 C 
HETATM   18  C   UNK     0      32.721   9.149  -4.558  0.00  0.00     0.154 C 
HETATM   19  C   UNK     0      31.058   6.233  -6.472  0.00  0.00     0.147 C 
HETATM   20  C   UNK     0      32.316   5.643  -7.109  0.00  0.00     0.147 C 
HETATM   21  O   UNK     0      32.034  10.132  -4.285  0.00  0.00    -0.293 OA
HETATM   22  C   UNK     0      33.838   8.768  -3.665  0.00  0.00     0.057 C 
BRANCH   5  23
HETATM   23  C   UNK     0      39.398   6.605  -2.512  0.00  0.00     0.084 C 
HETATM   24  C   UNK     0      40.035   6.126  -1.197  0.00  0.00     0.049 C 
BRANCH  23  25
HETATM   25  O   UNK     0      39.826   5.710  -3.547  0.00  0.00    -0.387 OA
HETATM   26  H   UNK     0      39.356   5.930  -4.368  0.00  0.00     0.210 HD
ENDBRANCH  23  25
BRANCH  23  27
HETATM   27  C   UNK     0      39.892   8.033  -2.872  0.00  0.00     0.152 C 
BRANCH  27  28
HETATM   28  O   UNK     0      41.162   7.951  -3.526  0.00  0.00    -0.393 OA
HETATM   29  H   UNK     0      41.205   7.085  -3.969  0.00  0.00     0.210 HD
ENDBRANCH  27  28
BRANCH  27  30
HETATM   30  C   UNK     0      40.029   8.978  -1.663  0.00  0.00     0.037 C 
BRANCH  30  31
HETATM   31  C   UNK     0      40.657  10.329  -2.055  0.00  0.00     0.040 C 
BRANCH  31  32
HETATM   32  C   UNK     0      39.636  11.437  -2.387  0.00  0.00     0.051 C 
HETATM   33  C   UNK     0      38.313  11.146  -1.670  0.00  0.00     0.045 C 
HETATM   34  C   UNK     0      40.139  12.832  -2.008  0.00  0.00     0.045 C 
BRANCH  32  35
HETATM   35  O   UNK     0      39.387  11.412  -3.794  0.00  0.00    -0.391 OA
HETATM   36  H   UNK     0      39.147  12.312  -4.071  0.00  0.00     0.210 HD
ENDBRANCH  32  35
ENDBRANCH  31  32
ENDBRANCH  30  31
ENDBRANCH  27  30
ENDBRANCH  23  27
ENDBRANCH   5  23
BRANCH  19  37
HETATM   37  O   UNK     0      30.334   6.973  -7.457  0.00  0.00    -0.393 OA
HETATM   38  H   UNK     0      29.797   6.341  -7.964  0.00  0.00     0.210 HD
ENDBRANCH  19  37
BRANCH  20  39
HETATM   39  O   UNK     0      31.941   4.860  -8.240  0.00  0.00    -0.393 OA
HETATM   40  H   UNK     0      31.424   4.103  -7.913  0.00  0.00     0.210 HD
ENDBRANCH  20  39
ENDBRANCH   1   3
TORSDOF 11
ENDMDL
