MODEL 1
REMARK VINA RESULT:     -10.7      0.000      0.000
REMARK  5 active torsions:
REMARK  status: ('A' for Active; 'I' for Inactive)
REMARK    1  A    between atoms: O_2  and  C_13 
REMARK    2  A    between atoms: O_4  and  C_16 
REMARK    3  A    between atoms: O_5  and  C_19 
REMARK    4  A    between atoms: O_6  and  C_21 
REMARK    5  A    between atoms: C_9  and  C_10 
ROOT
HETATM    1  O   UNK     0      32.014  21.511  91.006  0.00  0.00    -0.309 OA
HETATM    2  O   UNK     0      33.661  25.113  91.958  0.00  0.00    -0.287 OA
HETATM    3  C   UNK     0      33.572  22.788  92.364  0.00  0.00     0.081 A 
HETATM    4  C   UNK     0      32.968  21.589  91.988  0.00  0.00     0.095 A 
HETATM    5  C   UNK     0      31.628  22.679  90.365  0.00  0.00     0.090 A 
HETATM    6  C   UNK     0      33.171  24.028  91.681  0.00  0.00     0.190 A 
HETATM    7  C   UNK     0      32.139  23.891  90.633  0.00  0.00     0.094 A 
HETATM    8  C   UNK     0      34.538  22.807  93.371  0.00  0.00     0.085 A 
HETATM    9  C   UNK     0      33.330  20.399  92.618  0.00  0.00     0.075 A 
HETATM   10  C   UNK     0      34.296  20.413  93.625  0.00  0.00     0.071 A 
HETATM   11  C   UNK     0      34.898  21.614  94.001  0.00  0.00     0.074 A 
ENDROOT
BRANCH   5  12
HETATM   12  C   UNK     0      30.601  22.481  89.324  0.00  0.00     0.001 A 
HETATM   13  C   UNK     0      30.697  23.158  88.105  0.00  0.00     0.053 A 
HETATM   14  C   UNK     0      29.727  22.971  87.121  0.00  0.00     0.099 A 
HETATM   15  C   UNK     0      28.657  22.106  87.351  0.00  0.00     0.098 A 
HETATM   16  C   UNK     0      28.557  21.429  88.566  0.00  0.00     0.040 A 
HETATM   17  C   UNK     0      29.528  21.616  89.551  0.00  0.00     0.017 A 
BRANCH  14  18
HETATM   18  O   UNK     0      29.834  23.639  85.938  0.00  0.00    -0.358 OA
HETATM   19  H   UNK     0      30.760  23.596  85.645  0.00  0.00     0.217 HD
ENDBRANCH  14  18
BRANCH  15  20
HETATM   20  O   UNK     0      27.704  21.915  86.398  0.00  0.00    -0.358 OA
HETATM   21  H   UNK     0      27.397  20.993  86.437  0.00  0.00     0.217 HD
ENDBRANCH  15  20
ENDBRANCH   5  12
BRANCH   8  22
HETATM   22  O   UNK     0      35.156  23.952  93.774  0.00  0.00    -0.360 OA
HETATM   23  H   UNK     0      34.714  24.728  93.395  0.00  0.00     0.217 HD
ENDBRANCH   8  22
BRANCH  10  24
HETATM   24  O   UNK     0      34.652  19.253  94.243  0.00  0.00    -0.361 OA
HETATM   25  H   UNK     0      35.614  19.136  94.164  0.00  0.00     0.217 HD
ENDBRANCH  10  24
TORSDOF 5
ENDMDL
MODEL 2
REMARK VINA RESULT:     -10.5     27.994     29.117
REMARK  5 active torsions:
REMARK  status: ('A' for Active; 'I' for Inactive)
REMARK    1  A    between atoms: O_2  and  C_13 
REMARK    2  A    between atoms: O_4  and  C_16 
REMARK    3  A    between atoms: O_5  and  C_19 
REMARK    4  A    between atoms: O_6  and  C_21 
REMARK    5  A    between atoms: C_9  and  C_10 
ROOT
HETATM    1  O   UNK     0       9.024  39.384  85.524  0.00  0.00    -0.309 OA
HETATM    2  O   UNK     0       8.872  35.601  84.021  0.00  0.00    -0.287 OA
HETATM    3  C   UNK     0       8.245  37.093  85.742  0.00  0.00     0.081 A 
HETATM    4  C   UNK     0       8.337  38.407  86.198  0.00  0.00     0.095 A 
HETATM    5  C   UNK     0       9.662  39.046  84.340  0.00  0.00     0.090 A 
HETATM    6  C   UNK     0       8.913  36.733  84.481  0.00  0.00     0.190 A 
HETATM    7  C   UNK     0       9.642  37.820  83.795  0.00  0.00     0.094 A 
HETATM    8  C   UNK     0       7.531  36.140  86.470  0.00  0.00     0.085 A 
HETATM    9  C   UNK     0       7.712  38.776  87.389  0.00  0.00     0.075 A 
HETATM   10  C   UNK     0       6.997  37.826  88.120  0.00  0.00     0.071 A 
HETATM   11  C   UNK     0       6.907  36.512  87.662  0.00  0.00     0.074 A 
ENDROOT
BRANCH   5  12
HETATM   12  C   UNK     0      10.365  40.172  83.695  0.00  0.00     0.001 A 
HETATM   13  C   UNK     0      11.051  39.976  82.494  0.00  0.00     0.053 A 
HETATM   14  C   UNK     0      11.716  41.039  81.884  0.00  0.00     0.099 A 
HETATM   15  C   UNK     0      11.697  42.304  82.474  0.00  0.00     0.098 A 
HETATM   16  C   UNK     0      11.015  42.503  83.673  0.00  0.00     0.040 A 
HETATM   17  C   UNK     0      10.349  41.439  84.283  0.00  0.00     0.017 A 
BRANCH  14  18
HETATM   18  O   UNK     0      12.381  40.832  80.713  0.00  0.00    -0.358 OA
HETATM   19  H   UNK     0      12.420  41.675  80.230  0.00  0.00     0.217 HD
ENDBRANCH  14  18
BRANCH  15  20
HETATM   20  O   UNK     0      12.342  43.350  81.887  0.00  0.00    -0.358 OA
HETATM   21  H   UNK     0      13.175  43.515  82.362  0.00  0.00     0.217 HD
ENDBRANCH  15  20
ENDBRANCH   5  12
BRANCH   8  22
HETATM   22  O   UNK     0       7.413  34.845  86.066  0.00  0.00    -0.360 OA
HETATM   23  H   UNK     0       6.549  34.695  85.651  0.00  0.00     0.217 HD
ENDBRANCH   8  22
BRANCH  10  24
HETATM   24  O   UNK     0       6.385  38.183  89.284  0.00  0.00    -0.361 OA
HETATM   25  H   UNK     0       6.652  39.088  89.516  0.00  0.00     0.217 HD
ENDBRANCH  10  24
TORSDOF 5
ENDMDL
MODEL 3
REMARK VINA RESULT:     -10.2      2.725      3.975
REMARK  5 active torsions:
REMARK  status: ('A' for Active; 'I' for Inactive)
REMARK    1  A    between atoms: O_2  and  C_13 
REMARK    2  A    between atoms: O_4  and  C_16 
REMARK    3  A    between atoms: O_5  and  C_19 
REMARK    4  A    between atoms: O_6  and  C_21 
REMARK    5  A    between atoms: C_9  and  C_10 
ROOT
HETATM    1  O   UNK     0      31.574  20.935  90.399  0.00  0.00    -0.309 OA
HETATM    2  O   UNK     0      31.380  24.145  87.898  0.00  0.00    -0.287 OA
HETATM    3  C   UNK     0      32.159  23.248  89.940  0.00  0.00     0.081 A 
HETATM    4  C   UNK     0      32.187  22.112  90.747  0.00  0.00     0.095 A 
HETATM    5  C   UNK     0      30.890  20.878  89.194  0.00  0.00     0.090 A 
HETATM    6  C   UNK     0      31.443  23.188  88.656  0.00  0.00     0.190 A 
HETATM    7  C   UNK     0      30.797  21.900  88.328  0.00  0.00     0.094 A 
HETATM    8  C   UNK     0      32.802  24.419  90.346  0.00  0.00     0.085 A 
HETATM    9  C   UNK     0      32.860  22.141  91.968  0.00  0.00     0.075 A 
HETATM   10  C   UNK     0      33.504  23.309  92.378  0.00  0.00     0.071 A 
HETATM   11  C   UNK     0      33.474  24.445  91.569  0.00  0.00     0.074 A 
ENDROOT
BRANCH   5  12
HETATM   12  C   UNK     0      30.274  19.566  88.915  0.00  0.00     0.001 A 
HETATM   13  C   UNK     0      29.895  19.231  87.613  0.00  0.00     0.053 A 
HETATM   14  C   UNK     0      29.312  17.992  87.349  0.00  0.00     0.099 A 
HETATM   15  C   UNK     0      29.107  17.082  88.387  0.00  0.00     0.098 A 
HETATM   16  C   UNK     0      29.483  17.414  89.689  0.00  0.00     0.040 A 
HETATM   17  C   UNK     0      30.066  18.654  89.952  0.00  0.00     0.017 A 
BRANCH  14  18
HETATM   18  O   UNK     0      28.947  17.679  86.074  0.00  0.00    -0.358 OA
HETATM   19  H   UNK     0      29.748  17.440  85.577  0.00  0.00     0.217 HD
ENDBRANCH  14  18
BRANCH  15  20
HETATM   20  O   UNK     0      28.540  15.868  88.142  0.00  0.00    -0.358 OA
HETATM   21  H   UNK     0      27.926  15.951  87.394  0.00  0.00     0.217 HD
ENDBRANCH  15  20
ENDBRANCH   5  12
BRANCH   8  22
HETATM   22  O   UNK     0      32.804  25.554  89.594  0.00  0.00    -0.360 OA
HETATM   23  H   UNK     0      32.381  26.282  90.075  0.00  0.00     0.217 HD
ENDBRANCH   8  22
BRANCH  10  24
HETATM   24  O   UNK     0      34.163  23.340  93.569  0.00  0.00    -0.361 OA
HETATM   25  H   UNK     0      34.255  22.432  93.903  0.00  0.00     0.217 HD
ENDBRANCH  10  24
TORSDOF 5
ENDMDL
MODEL 4
REMARK VINA RESULT:     -10.2     15.283     17.181
REMARK  5 active torsions:
REMARK  status: ('A' for Active; 'I' for Inactive)
REMARK    1  A    between atoms: O_2  and  C_13 
REMARK    2  A    between atoms: O_4  and  C_16 
REMARK    3  A    between atoms: O_5  and  C_19 
REMARK    4  A    between atoms: O_6  and  C_21 
REMARK    5  A    between atoms: C_9  and  C_10 
ROOT
HETATM    1  O   UNK     0      25.629  37.296  88.654  0.00  0.00    -0.309 OA
HETATM    2  O   UNK     0      22.530  39.755  89.627  0.00  0.00    -0.287 OA
HETATM    3  C   UNK     0      24.863  39.489  89.363  0.00  0.00     0.081 A 
HETATM    4  C   UNK     0      25.875  38.596  89.017  0.00  0.00     0.095 A 
HETATM    5  C   UNK     0      24.316  36.851  88.639  0.00  0.00     0.090 A 
HETATM    6  C   UNK     0      23.467  39.024  89.339  0.00  0.00     0.190 A 
HETATM    7  C   UNK     0      23.256  37.616  88.944  0.00  0.00     0.094 A 
HETATM    8  C   UNK     0      25.173  40.802  89.724  0.00  0.00     0.085 A 
HETATM    9  C   UNK     0      27.206  39.011  89.030  0.00  0.00     0.075 A 
HETATM   10  C   UNK     0      27.520  40.322  89.390  0.00  0.00     0.071 A 
HETATM   11  C   UNK     0      26.506  41.215  89.736  0.00  0.00     0.074 A 
ENDROOT
BRANCH   5  12
HETATM   12  C   UNK     0      24.164  35.441  88.230  0.00  0.00     0.001 A 
HETATM   13  C   UNK     0      24.429  34.413  89.138  0.00  0.00     0.053 A 
HETATM   14  C   UNK     0      24.286  33.082  88.751  0.00  0.00     0.099 A 
HETATM   15  C   UNK     0      23.876  32.772  87.454  0.00  0.00     0.098 A 
HETATM   16  C   UNK     0      23.611  33.795  86.544  0.00  0.00     0.040 A 
HETATM   17  C   UNK     0      23.754  35.128  86.931  0.00  0.00     0.017 A 
BRANCH  14  18
HETATM   18  O   UNK     0      24.549  32.090  89.648  0.00  0.00    -0.358 OA
HETATM   19  H   UNK     0      25.222  31.502  89.265  0.00  0.00     0.217 HD
ENDBRANCH  14  18
BRANCH  15  20
HETATM   20  O   UNK     0      23.731  31.475  87.064  0.00  0.00    -0.358 OA
HETATM   21  H   UNK     0      24.598  31.036  87.097  0.00  0.00     0.217 HD
ENDBRANCH  15  20
ENDBRANCH   5  12
BRANCH   8  22
HETATM   22  O   UNK     0      24.220  41.712  90.069  0.00  0.00    -0.360 OA
HETATM   23  H   UNK     0      23.637  41.351  90.754  0.00  0.00     0.217 HD
ENDBRANCH   8  22
BRANCH  10  24
HETATM   24  O   UNK     0      28.819  40.731  89.403  0.00  0.00    -0.361 OA
HETATM   25  H   UNK     0      29.228  40.457  90.242  0.00  0.00     0.217 HD
ENDBRANCH  10  24
TORSDOF 5
ENDMDL
MODEL 5
REMARK VINA RESULT:     -10.1     25.427     28.439
REMARK  5 active torsions:
REMARK  status: ('A' for Active; 'I' for Inactive)
REMARK    1  A    between atoms: O_2  and  C_13 
REMARK    2  A    between atoms: O_4  and  C_16 
REMARK    3  A    between atoms: O_5  and  C_19 
REMARK    4  A    between atoms: O_6  and  C_21 
REMARK    5  A    between atoms: C_9  and  C_10 
ROOT
HETATM    1  O   UNK     0       8.574  36.762  86.937  0.00  0.00    -0.309 OA
HETATM    2  O   UNK     0       7.163  40.583  87.001  0.00  0.00    -0.287 OA
HETATM    3  C   UNK     0       7.073  38.405  87.911  0.00  0.00     0.081 A 
HETATM    4  C   UNK     0       7.600  37.117  87.836  0.00  0.00     0.095 A 
HETATM    5  C   UNK     0       9.047  37.727  86.060  0.00  0.00     0.090 A 
HETATM    6  C   UNK     0       7.578  39.434  86.989  0.00  0.00     0.190 A 
HETATM    7  C   UNK     0       8.624  39.001  86.039  0.00  0.00     0.094 A 
HETATM    8  C   UNK     0       6.082  38.709  88.848  0.00  0.00     0.085 A 
HETATM    9  C   UNK     0       7.140  36.124  88.699  0.00  0.00     0.075 A 
HETATM   10  C   UNK     0       6.151  36.423  89.637  0.00  0.00     0.071 A 
HETATM   11  C   UNK     0       5.623  37.713  89.710  0.00  0.00     0.074 A 
ENDROOT
BRANCH   5  12
HETATM   12  C   UNK     0      10.094  37.241  85.141  0.00  0.00     0.001 A 
HETATM   13  C   UNK     0       9.844  36.151  84.304  0.00  0.00     0.053 A 
HETATM   14  C   UNK     0      10.834  35.692  83.436  0.00  0.00     0.099 A 
HETATM   15  C   UNK     0      12.079  36.322  83.401  0.00  0.00     0.098 A 
HETATM   16  C   UNK     0      12.333  37.410  84.236  0.00  0.00     0.040 A 
HETATM   17  C   UNK     0      11.342  37.869  85.104  0.00  0.00     0.017 A 
BRANCH  14  18
HETATM   18  O   UNK     0      10.576  34.627  82.625  0.00  0.00    -0.358 OA
HETATM   19  H   UNK     0       9.975  34.920  81.919  0.00  0.00     0.217 HD
ENDBRANCH  14  18
BRANCH  15  20
HETATM   20  O   UNK     0      13.053  35.884  82.557  0.00  0.00    -0.358 OA
HETATM   21  H   UNK     0      12.745  35.078  82.108  0.00  0.00     0.217 HD
ENDBRANCH  15  20
ENDBRANCH   5  12
BRANCH   8  22
HETATM   22  O   UNK     0       5.536  39.951  88.960  0.00  0.00    -0.360 OA
HETATM   23  H   UNK     0       4.639  39.963  88.592  0.00  0.00     0.217 HD
ENDBRANCH   8  22
BRANCH  10  24
HETATM   24  O   UNK     0       5.699  35.455  90.482  0.00  0.00    -0.361 OA
HETATM   25  H   UNK     0       4.821  35.163  90.186  0.00  0.00     0.217 HD
ENDBRANCH  10  24
TORSDOF 5
ENDMDL
MODEL 6
REMARK VINA RESULT:     -10.0      5.427      8.331
REMARK  5 active torsions:
REMARK  status: ('A' for Active; 'I' for Inactive)
REMARK    1  A    between atoms: O_2  and  C_13 
REMARK    2  A    between atoms: O_4  and  C_16 
REMARK    3  A    between atoms: O_5  and  C_19 
REMARK    4  A    between atoms: O_6  and  C_21 
REMARK    5  A    between atoms: C_9  and  C_10 
ROOT
HETATM    1  O   UNK     0      30.177  17.392  89.881  0.00  0.00    -0.309 OA
HETATM    2  O   UNK     0      27.891  18.325  86.641  0.00  0.00    -0.287 OA
HETATM    3  C   UNK     0      29.212  19.094  88.441  0.00  0.00     0.081 A 
HETATM    4  C   UNK     0      29.983  18.705  89.536  0.00  0.00     0.095 A 
HETATM    5  C   UNK     0      29.573  16.410  89.110  0.00  0.00     0.090 A 
HETATM    6  C   UNK     0      28.577  18.055  87.616  0.00  0.00     0.190 A 
HETATM    7  C   UNK     0      28.815  16.657  88.030  0.00  0.00     0.094 A 
HETATM    8  C   UNK     0      29.050  20.447  88.138  0.00  0.00     0.085 A 
HETATM    9  C   UNK     0      30.597  19.670  90.334  0.00  0.00     0.075 A 
HETATM   10  C   UNK     0      30.437  21.023  90.033  0.00  0.00     0.071 A 
HETATM   11  C   UNK     0      29.665  21.410  88.938  0.00  0.00     0.074 A 
ENDROOT
BRANCH   5  12
HETATM   12  C   UNK     0      29.851  15.034  89.565  0.00  0.00     0.001 A 
HETATM   13  C   UNK     0      30.620  14.814  90.710  0.00  0.00     0.053 A 
HETATM   14  C   UNK     0      30.884  13.514  91.140  0.00  0.00     0.099 A 
HETATM   15  C   UNK     0      30.378  12.427  90.425  0.00  0.00     0.098 A 
HETATM   16  C   UNK     0      29.611  12.642  89.281  0.00  0.00     0.040 A 
HETATM   17  C   UNK     0      29.348  13.943  88.851  0.00  0.00     0.017 A 
BRANCH  14  18
HETATM   18  O   UNK     0      31.636  13.316  92.259  0.00  0.00    -0.358 OA
HETATM   19  H   UNK     0      31.119  12.780  92.884  0.00  0.00     0.217 HD
ENDBRANCH  14  18
BRANCH  15  20
HETATM   20  O   UNK     0      30.628  11.153  90.835  0.00  0.00    -0.358 OA
HETATM   21  H   UNK     0      31.539  11.100  91.169  0.00  0.00     0.217 HD
ENDBRANCH  15  20
ENDBRANCH   5  12
BRANCH   8  22
HETATM   22  O   UNK     0      28.307  20.878  87.080  0.00  0.00    -0.360 OA
HETATM   23  H   UNK     0      28.427  21.831  86.946  0.00  0.00     0.217 HD
ENDBRANCH   8  22
BRANCH  10  24
HETATM   24  O   UNK     0      31.036  21.967  90.811  0.00  0.00    -0.361 OA
HETATM   25  H   UNK     0      30.860  21.765  91.745  0.00  0.00     0.217 HD
ENDBRANCH  10  24
TORSDOF 5
ENDMDL
MODEL 7
REMARK VINA RESULT:      -9.7      5.357      7.035
REMARK  5 active torsions:
REMARK  status: ('A' for Active; 'I' for Inactive)
REMARK    1  A    between atoms: O_2  and  C_13 
REMARK    2  A    between atoms: O_4  and  C_16 
REMARK    3  A    between atoms: O_5  and  C_19 
REMARK    4  A    between atoms: O_6  and  C_21 
REMARK    5  A    between atoms: C_9  and  C_10 
ROOT
HETATM    1  O   UNK     0      30.443  16.647  91.442  0.00  0.00    -0.309 OA
HETATM    2  O   UNK     0      31.582  12.738  91.581  0.00  0.00    -0.287 OA
HETATM    3  C   UNK     0      31.526  14.842  92.654  0.00  0.00     0.081 A 
HETATM    4  C   UNK     0      31.107  16.167  92.542  0.00  0.00     0.095 A 
HETATM    5  C   UNK     0      30.184  15.777  90.394  0.00  0.00     0.090 A 
HETATM    6  C   UNK     0      31.246  13.913  91.548  0.00  0.00     0.190 A 
HETATM    7  C   UNK     0      30.531  14.480  90.386  0.00  0.00     0.094 A 
HETATM    8  C   UNK     0      32.199  14.409  93.798  0.00  0.00     0.085 A 
HETATM    9  C   UNK     0      31.359  17.067  93.576  0.00  0.00     0.075 A 
HETATM   10  C   UNK     0      32.031  16.638  94.721  0.00  0.00     0.071 A 
HETATM   11  C   UNK     0      32.450  15.312  94.832  0.00  0.00     0.074 A 
ENDROOT
BRANCH   5  12
HETATM   12  C   UNK     0      29.461  16.394  89.265  0.00  0.00     0.001 A 
HETATM   13  C   UNK     0      29.606  17.758  89.000  0.00  0.00     0.053 A 
HETATM   14  C   UNK     0      28.922  18.342  87.934  0.00  0.00     0.099 A 
HETATM   15  C   UNK     0      28.091  17.563  87.128  0.00  0.00     0.098 A 
HETATM   16  C   UNK     0      27.943  16.201  87.390  0.00  0.00     0.040 A 
HETATM   17  C   UNK     0      28.627  15.618  88.457  0.00  0.00     0.017 A 
BRANCH  14  18
HETATM   18  O   UNK     0      29.073  19.673  87.688  0.00  0.00    -0.358 OA
HETATM   19  H   UNK     0      29.239  20.124  88.533  0.00  0.00     0.217 HD
ENDBRANCH  14  18
BRANCH  15  20
HETATM   20  O   UNK     0      27.418  18.121  86.083  0.00  0.00    -0.358 OA
HETATM   21  H   UNK     0      27.990  18.781  85.656  0.00  0.00     0.217 HD
ENDBRANCH  15  20
ENDBRANCH   5  12
BRANCH   8  22
HETATM   22  O   UNK     0      32.628  13.126  93.956  0.00  0.00    -0.360 OA
HETATM   23  H   UNK     0      33.257  13.065  94.691  0.00  0.00     0.217 HD
ENDBRANCH   8  22
BRANCH  10  24
HETATM   24  O   UNK     0      32.278  17.515  95.734  0.00  0.00    -0.361 OA
HETATM   25  H   UNK     0      33.236  17.551  95.894  0.00  0.00     0.217 HD
ENDBRANCH  10  24
TORSDOF 5
ENDMDL
MODEL 8
REMARK VINA RESULT:      -9.7     16.538     18.482
REMARK  5 active torsions:
REMARK  status: ('A' for Active; 'I' for Inactive)
REMARK    1  A    between atoms: O_2  and  C_13 
REMARK    2  A    between atoms: O_4  and  C_16 
REMARK    3  A    between atoms: O_5  and  C_19 
REMARK    4  A    between atoms: O_6  and  C_21 
REMARK    5  A    between atoms: C_9  and  C_10 
ROOT
HETATM    1  O   UNK     0      26.141  38.557  88.157  0.00  0.00    -0.309 OA
HETATM    2  O   UNK     0      23.309  41.479  87.957  0.00  0.00    -0.287 OA
HETATM    3  C   UNK     0      25.587  40.887  87.750  0.00  0.00     0.081 A 
HETATM    4  C   UNK     0      26.503  39.840  87.835  0.00  0.00     0.095 A 
HETATM    5  C   UNK     0      24.804  38.294  88.418  0.00  0.00     0.090 A 
HETATM    6  C   UNK     0      24.167  40.610  88.017  0.00  0.00     0.190 A 
HETATM    7  C   UNK     0      23.828  39.214  88.362  0.00  0.00     0.094 A 
HETATM    8  C   UNK     0      26.014  42.174  87.417  0.00  0.00     0.085 A 
HETATM    9  C   UNK     0      27.855  40.075  87.586  0.00  0.00     0.075 A 
HETATM   10  C   UNK     0      28.286  41.360  87.253  0.00  0.00     0.071 A 
HETATM   11  C   UNK     0      27.367  42.406  87.169  0.00  0.00     0.074 A 
ENDROOT
BRANCH   5  12
HETATM   12  C   UNK     0      24.524  36.883  88.748  0.00  0.00     0.001 A 
HETATM   13  C   UNK     0      23.207  36.451  88.923  0.00  0.00     0.053 A 
HETATM   14  C   UNK     0      22.942  35.118  89.235  0.00  0.00     0.099 A 
HETATM   15  C   UNK     0      23.993  34.211  89.374  0.00  0.00     0.098 A 
HETATM   16  C   UNK     0      25.309  34.638  89.201  0.00  0.00     0.040 A 
HETATM   17  C   UNK     0      25.574  35.972  88.888  0.00  0.00     0.017 A 
BRANCH  14  18
HETATM   18  O   UNK     0      21.652  34.712  89.404  0.00  0.00    -0.358 OA
HETATM   19  H   UNK     0      21.346  34.313  88.571  0.00  0.00     0.217 HD
ENDBRANCH  14  18
BRANCH  15  20
HETATM   20  O   UNK     0      23.747  32.907  89.677  0.00  0.00    -0.358 OA
HETATM   21  H   UNK     0      24.105  32.344  88.971  0.00  0.00     0.217 HD
ENDBRANCH  15  20
ENDBRANCH   5  12
BRANCH   8  22
HETATM   22  O   UNK     0      25.158  43.229  87.322  0.00  0.00    -0.360 OA
HETATM   23  H   UNK     0      25.249  43.664  86.460  0.00  0.00     0.217 HD
ENDBRANCH   8  22
BRANCH  10  24
HETATM   24  O   UNK     0      29.605  41.593  87.008  0.00  0.00    -0.361 OA
HETATM   25  H   UNK     0      29.691  42.414  86.496  0.00  0.00     0.217 HD
ENDBRANCH  10  24
TORSDOF 5
ENDMDL
MODEL 9
REMARK VINA RESULT:      -9.6      5.563      9.782
REMARK  5 active torsions:
REMARK  status: ('A' for Active; 'I' for Inactive)
REMARK    1  A    between atoms: O_2  and  C_13 
REMARK    2  A    between atoms: O_4  and  C_16 
REMARK    3  A    between atoms: O_5  and  C_19 
REMARK    4  A    between atoms: O_6  and  C_21 
REMARK    5  A    between atoms: C_9  and  C_10 
ROOT
HETATM    1  O   UNK     0      30.558  16.566  90.767  0.00  0.00    -0.309 OA
HETATM    2  O   UNK     0      28.904  13.627  88.482  0.00  0.00    -0.287 OA
HETATM    3  C   UNK     0      29.220  15.941  88.838  0.00  0.00     0.081 A 
HETATM    4  C   UNK     0      29.814  16.895  89.662  0.00  0.00     0.095 A 
HETATM    5  C   UNK     0      30.718  15.225  91.080  0.00  0.00     0.090 A 
HETATM    6  C   UNK     0      29.395  14.516  89.162  0.00  0.00     0.190 A 
HETATM    7  C   UNK     0      30.201  14.214  90.363  0.00  0.00     0.094 A 
HETATM    8  C   UNK     0      28.473  16.335  87.726  0.00  0.00     0.085 A 
HETATM    9  C   UNK     0      29.666  18.252  89.377  0.00  0.00     0.075 A 
HETATM   10  C   UNK     0      28.921  18.649  88.266  0.00  0.00     0.071 A 
HETATM   11  C   UNK     0      28.326  17.693  87.443  0.00  0.00     0.074 A 
ENDROOT
BRANCH   5  12
HETATM   12  C   UNK     0      31.539  14.983  92.283  0.00  0.00     0.001 A 
HETATM   13  C   UNK     0      32.027  16.059  93.028  0.00  0.00     0.053 A 
HETATM   14  C   UNK     0      32.803  15.830  94.164  0.00  0.00     0.099 A 
HETATM   15  C   UNK     0      33.094  14.524  94.559  0.00  0.00     0.098 A 
HETATM   16  C   UNK     0      32.610  13.447  93.817  0.00  0.00     0.040 A 
HETATM   17  C   UNK     0      31.833  13.676  92.681  0.00  0.00     0.017 A 
BRANCH  14  18
HETATM   18  O   UNK     0      33.272  16.890  94.881  0.00  0.00    -0.358 OA
HETATM   19  H   UNK     0      32.540  17.249  95.409  0.00  0.00     0.217 HD
ENDBRANCH  14  18
BRANCH  15  20
HETATM   20  O   UNK     0      33.850  14.287  95.667  0.00  0.00    -0.358 OA
HETATM   21  H   UNK     0      34.740  14.012  95.390  0.00  0.00     0.217 HD
ENDBRANCH  15  20
ENDBRANCH   5  12
BRANCH   8  22
HETATM   22  O   UNK     0      27.874  15.441  86.891  0.00  0.00    -0.360 OA
HETATM   23  H   UNK     0      27.910  15.755  85.975  0.00  0.00     0.217 HD
ENDBRANCH   8  22
BRANCH  10  24
HETATM   24  O   UNK     0      28.774  19.974  87.984  0.00  0.00    -0.361 OA
HETATM   25  H   UNK     0      29.376  20.211  87.259  0.00  0.00     0.217 HD
ENDBRANCH  10  24
TORSDOF 5
ENDMDL
