MODEL 1
REMARK VINA RESULT:      -8.8      0.000      0.000
REMARK  11 active torsions:
REMARK  status: ('A' for Active; 'I' for Inactive)
REMARK    1  A    between atoms: O_2  and  C_16 
REMARK    2  A    between atoms: O_2  and  C_18 
REMARK    3  A    between atoms: O_3  and  C_12 
REMARK    4  A    between atoms: O_4  and  C_13 
REMARK    5  A    between atoms: O_5  and  C_14 
REMARK    6  A    between atoms: O_6  and  C_17 
REMARK    7  A    between atoms: O_8  and  C_23 
REMARK    8  A    between atoms: O_10  and  C_30 
REMARK    9  A    between atoms: O_11  and  C_32 
REMARK   10  A    between atoms: C_15  and  C_17 
REMARK   11  A    between atoms: C_25  and  C_27 
ROOT
HETATM    1  O   UNK     0     154.655 156.168 149.967  0.00  0.00    -0.348 OA
HETATM    2  C   UNK     0     155.175 155.328 152.664  0.00  0.00     0.183 C 
HETATM    3  C   UNK     0     155.332 156.780 152.212  0.00  0.00     0.180 C 
HETATM    4  C   UNK     0     155.264 154.367 151.479  0.00  0.00     0.205 C 
HETATM    5  C   UNK     0     154.405 157.085 151.033  0.00  0.00     0.179 C 
HETATM    6  C   UNK     0     154.366 154.818 150.327  0.00  0.00     0.298 C 
ENDROOT
BRANCH   5   7
HETATM    7  C   UNK     0     154.628 158.493 150.490  0.00  0.00     0.198 C 
BRANCH   7   8
HETATM    8  O   UNK     0     155.884 158.959 150.947  0.00  0.00    -0.398 OA
HETATM    9  H   UNK     0     156.145 158.409 151.707  0.00  0.00     0.209 HD
ENDBRANCH   7   8
ENDBRANCH   5   7
BRANCH   6  10
HETATM   10  O   UNK     0     154.611 153.959 149.215  0.00  0.00    -0.318 OA
BRANCH  10  11
HETATM   11  C   UNK     0     153.518 153.390 148.630  0.00  0.00     0.077 A 
HETATM   12  C   UNK     0     153.641 152.167 147.969  0.00  0.00     0.075 A 
HETATM   13  C   UNK     0     152.523 151.587 147.372  0.00  0.00     0.095 A 
HETATM   14  O   UNK     0     152.705 150.384 146.736  0.00  0.00    -0.309 OA
HETATM   15  C   UNK     0     151.287 152.229 147.435  0.00  0.00     0.081 A 
HETATM   16  C   UNK     0     151.609 149.781 146.138  0.00  0.00     0.090 A 
HETATM   17  C   UNK     0     150.372 150.302 146.127  0.00  0.00     0.094 A 
HETATM   18  C   UNK     0     150.124 151.595 146.795  0.00  0.00     0.190 A 
HETATM   19  O   UNK     0     149.012 152.104 146.810  0.00  0.00    -0.287 OA
HETATM   20  C   UNK     0     151.160 153.453 148.096  0.00  0.00     0.085 A 
HETATM   21  C   UNK     0     152.281 154.031 148.694  0.00  0.00     0.074 A 
BRANCH  16  22
HETATM   22  C   UNK     0     151.918 148.495 145.479  0.00  0.00     0.001 A 
HETATM   23  C   UNK     0     150.899 147.754 144.878  0.00  0.00     0.053 A 
HETATM   24  C   UNK     0     151.191 146.540 144.254  0.00  0.00     0.099 A 
HETATM   25  C   UNK     0     152.502 146.066 144.231  0.00  0.00     0.098 A 
HETATM   26  C   UNK     0     153.522 146.806 144.829  0.00  0.00     0.040 A 
HETATM   27  C   UNK     0     153.231 148.018 145.453  0.00  0.00     0.017 A 
BRANCH  24  28
HETATM   28  O   UNK     0     150.186 145.825 143.675  0.00  0.00    -0.358 OA
HETATM   29  H   UNK     0     150.551 144.978 143.369  0.00  0.00     0.217 HD
ENDBRANCH  24  28
BRANCH  25  30
HETATM   30  O   UNK     0     152.799 144.883 143.624  0.00  0.00    -0.358 OA
HETATM   31  H   UNK     0     153.733 144.668 143.790  0.00  0.00     0.217 HD
ENDBRANCH  25  30
ENDBRANCH  16  22
BRANCH  20  32
HETATM   32  O   UNK     0     149.975 154.118 148.186  0.00  0.00    -0.360 OA
HETATM   33  H   UNK     0     149.234 153.522 148.000  0.00  0.00     0.217 HD
ENDBRANCH  20  32
ENDBRANCH  10  11
ENDBRANCH   6  10
BRANCH   3  34
HETATM   34  O   UNK     0     155.014 157.649 153.298  0.00  0.00    -0.390 OA
HETATM   35  H   UNK     0     155.790 158.209 153.471  0.00  0.00     0.210 HD
ENDBRANCH   3  34
BRANCH   4  36
HETATM   36  O   UNK     0     154.844 153.067 151.891  0.00  0.00    -0.388 OA
HETATM   37  H   UNK     0     155.077 152.438 151.186  0.00  0.00     0.210 HD
ENDBRANCH   4  36
BRANCH   2  38
HETATM   38  O   UNK     0     156.222 155.038 153.592  0.00  0.00    -0.390 OA
HETATM   39  H   UNK     0     155.820 154.574 154.347  0.00  0.00     0.210 HD
ENDBRANCH   2  38
TORSDOF 11
ENDMDL
MODEL 2
REMARK VINA RESULT:      -8.8      2.726      5.995
REMARK  11 active torsions:
REMARK  status: ('A' for Active; 'I' for Inactive)
REMARK    1  A    between atoms: O_2  and  C_16 
REMARK    2  A    between atoms: O_2  and  C_18 
REMARK    3  A    between atoms: O_3  and  C_12 
REMARK    4  A    between atoms: O_4  and  C_13 
REMARK    5  A    between atoms: O_5  and  C_14 
REMARK    6  A    between atoms: O_6  and  C_17 
REMARK    7  A    between atoms: O_8  and  C_23 
REMARK    8  A    between atoms: O_10  and  C_30 
REMARK    9  A    between atoms: O_11  and  C_32 
REMARK   10  A    between atoms: C_15  and  C_17 
REMARK   11  A    between atoms: C_25  and  C_27 
ROOT
HETATM    1  O   UNK     0     154.198 155.871 149.999  0.00  0.00    -0.348 OA
HETATM    2  C   UNK     0     155.126 155.144 152.618  0.00  0.00     0.183 C 
HETATM    3  C   UNK     0     154.934 156.599 152.190  0.00  0.00     0.180 C 
HETATM    4  C   UNK     0     155.305 154.230 151.406  0.00  0.00     0.205 C 
HETATM    5  C   UNK     0     153.861 156.710 151.106  0.00  0.00     0.179 C 
HETATM    6  C   UNK     0     154.231 154.489 150.350  0.00  0.00     0.298 C 
ENDROOT
BRANCH   5   7
HETATM    7  C   UNK     0     153.734 158.136 150.580  0.00  0.00     0.198 C 
BRANCH   7   8
HETATM    8  O   UNK     0     154.833 158.891 151.057  0.00  0.00    -0.398 OA
HETATM    9  H   UNK     0     154.547 159.350 151.866  0.00  0.00     0.209 HD
ENDBRANCH   7   8
ENDBRANCH   5   7
BRANCH   6  10
HETATM   10  O   UNK     0     154.547 153.707 149.199  0.00  0.00    -0.318 OA
BRANCH  10  11
HETATM   11  C   UNK     0     153.494 153.215 148.487  0.00  0.00     0.077 A 
HETATM   12  C   UNK     0     152.256 153.858 148.542  0.00  0.00     0.075 A 
HETATM   13  C   UNK     0     151.180 153.353 147.812  0.00  0.00     0.095 A 
HETATM   14  O   UNK     0     149.988 154.027 147.906  0.00  0.00    -0.309 OA
HETATM   15  C   UNK     0     151.342 152.208 147.033  0.00  0.00     0.081 A 
HETATM   16  C   UNK     0     148.903 153.551 147.187  0.00  0.00     0.090 A 
HETATM   17  C   UNK     0     148.932 152.458 146.408  0.00  0.00     0.094 A 
HETATM   18  C   UNK     0     150.190 151.696 146.276  0.00  0.00     0.190 A 
HETATM   19  O   UNK     0     150.261 150.696 145.575  0.00  0.00    -0.287 OA
HETATM   20  C   UNK     0     152.579 151.562 146.976  0.00  0.00     0.085 A 
HETATM   21  C   UNK     0     153.655 152.071 147.706  0.00  0.00     0.074 A 
BRANCH  16  22
HETATM   22  C   UNK     0     147.671 154.347 147.364  0.00  0.00     0.001 A 
HETATM   23  C   UNK     0     147.693 155.728 147.155  0.00  0.00     0.053 A 
HETATM   24  C   UNK     0     146.529 156.479 147.321  0.00  0.00     0.099 A 
HETATM   25  C   UNK     0     145.341 155.852 147.696  0.00  0.00     0.098 A 
HETATM   26  C   UNK     0     145.316 154.473 147.904  0.00  0.00     0.040 A 
HETATM   27  C   UNK     0     146.479 153.721 147.738  0.00  0.00     0.017 A 
BRANCH  24  28
HETATM   28  O   UNK     0     146.566 157.826 147.117  0.00  0.00    -0.358 OA
HETATM   29  H   UNK     0     147.496 158.099 147.046  0.00  0.00     0.217 HD
ENDBRANCH  24  28
BRANCH  25  30
HETATM   30  O   UNK     0     144.198 156.575 147.860  0.00  0.00    -0.358 OA
HETATM   31  H   UNK     0     144.359 157.279 148.512  0.00  0.00     0.217 HD
ENDBRANCH  25  30
ENDBRANCH  16  22
BRANCH  20  32
HETATM   32  O   UNK     0     152.788 150.442 146.230  0.00  0.00    -0.360 OA
HETATM   33  H   UNK     0     153.175 149.738 146.771  0.00  0.00     0.217 HD
ENDBRANCH  20  32
ENDBRANCH  10  11
ENDBRANCH   6  10
BRANCH   3  34
HETATM   34  O   UNK     0     154.544 157.375 153.321  0.00  0.00    -0.390 OA
HETATM   35  H   UNK     0     153.614 157.170 153.519  0.00  0.00     0.210 HD
ENDBRANCH   3  34
BRANCH   4  36
HETATM   36  O   UNK     0     155.206 152.868 151.821  0.00  0.00    -0.388 OA
HETATM   37  H   UNK     0     154.556 152.425 151.249  0.00  0.00     0.210 HD
ENDBRANCH   4  36
BRANCH   2  38
HETATM   38  O   UNK     0     156.291 155.075 153.442  0.00  0.00    -0.390 OA
HETATM   39  H   UNK     0     156.993 154.652 152.918  0.00  0.00     0.210 HD
ENDBRANCH   2  38
TORSDOF 11
ENDMDL
MODEL 3
REMARK VINA RESULT:      -8.7      2.208      2.735
REMARK  11 active torsions:
REMARK  status: ('A' for Active; 'I' for Inactive)
REMARK    1  A    between atoms: O_2  and  C_16 
REMARK    2  A    between atoms: O_2  and  C_18 
REMARK    3  A    between atoms: O_3  and  C_12 
REMARK    4  A    between atoms: O_4  and  C_13 
REMARK    5  A    between atoms: O_5  and  C_14 
REMARK    6  A    between atoms: O_6  and  C_17 
REMARK    7  A    between atoms: O_8  and  C_23 
REMARK    8  A    between atoms: O_10  and  C_30 
REMARK    9  A    between atoms: O_11  and  C_32 
REMARK   10  A    between atoms: C_15  and  C_17 
REMARK   11  A    between atoms: C_25  and  C_27 
ROOT
HETATM    1  O   UNK     0     152.876 155.120 152.431  0.00  0.00    -0.348 OA
HETATM    2  C   UNK     0     155.717 154.883 152.084  0.00  0.00     0.183 C 
HETATM    3  C   UNK     0     154.994 156.229 152.038  0.00  0.00     0.180 C 
HETATM    4  C   UNK     0     154.759 153.730 151.783  0.00  0.00     0.205 C 
HETATM    5  C   UNK     0     153.714 156.188 152.875  0.00  0.00     0.179 C 
HETATM    6  C   UNK     0     153.478 153.840 152.611  0.00  0.00     0.298 C 
ENDROOT
BRANCH   5   7
HETATM    7  C   UNK     0     152.916 157.482 152.750  0.00  0.00     0.198 C 
BRANCH   7   8
HETATM    8  O   UNK     0     153.464 158.249 151.693  0.00  0.00    -0.398 OA
HETATM    9  H   UNK     0     154.068 158.903 152.085  0.00  0.00     0.209 HD
ENDBRANCH   7   8
ENDBRANCH   5   7
BRANCH   6  10
HETATM   10  O   UNK     0     152.582 152.820 152.174  0.00  0.00    -0.318 OA
BRANCH  10  11
HETATM   11  C   UNK     0     152.087 152.942 150.909  0.00  0.00     0.077 A 
HETATM   12  C   UNK     0     152.631 152.183 149.872  0.00  0.00     0.075 A 
HETATM   13  C   UNK     0     152.123 152.310 148.580  0.00  0.00     0.095 A 
HETATM   14  O   UNK     0     152.699 151.539 147.602  0.00  0.00    -0.309 OA
HETATM   15  C   UNK     0     151.076 153.195 148.326  0.00  0.00     0.081 A 
HETATM   16  C   UNK     0     152.210 151.640 146.308  0.00  0.00     0.090 A 
HETATM   17  C   UNK     0     151.212 152.458 145.939  0.00  0.00     0.094 A 
HETATM   18  C   UNK     0     150.561 153.311 146.953  0.00  0.00     0.190 A 
HETATM   19  O   UNK     0     149.647 154.068 146.660  0.00  0.00    -0.287 OA
HETATM   20  C   UNK     0     150.528 153.957 149.362  0.00  0.00     0.085 A 
HETATM   21  C   UNK     0     151.039 153.826 150.655  0.00  0.00     0.074 A 
BRANCH  16  22
HETATM   22  C   UNK     0     152.904 150.771 145.335  0.00  0.00     0.001 A 
HETATM   23  C   UNK     0     153.346 151.296 144.118  0.00  0.00     0.053 A 
HETATM   24  C   UNK     0     154.002 150.475 143.200  0.00  0.00     0.099 A 
HETATM   25  C   UNK     0     154.217 149.129 143.496  0.00  0.00     0.098 A 
HETATM   26  C   UNK     0     153.777 148.604 144.711  0.00  0.00     0.040 A 
HETATM   27  C   UNK     0     153.121 149.423 145.629  0.00  0.00     0.017 A 
BRANCH  24  28
HETATM   28  O   UNK     0     154.426 150.999 142.016  0.00  0.00    -0.358 OA
HETATM   29  H   UNK     0     155.293 151.414 142.159  0.00  0.00     0.217 HD
ENDBRANCH  24  28
BRANCH  25  30
HETATM   30  O   UNK     0     154.857 148.319 142.608  0.00  0.00    -0.358 OA
HETATM   31  H   UNK     0     154.428 148.399 141.739  0.00  0.00     0.217 HD
ENDBRANCH  25  30
ENDBRANCH  16  22
BRANCH  20  32
HETATM   32  O   UNK     0     149.505 154.833 149.165  0.00  0.00    -0.360 OA
HETATM   33  H   UNK     0     149.338 154.956 148.218  0.00  0.00     0.217 HD
ENDBRANCH  20  32
ENDBRANCH  10  11
ENDBRANCH   6  10
BRANCH   3  34
HETATM   34  O   UNK     0     155.857 157.245 152.545  0.00  0.00    -0.390 OA
HETATM   35  H   UNK     0     156.755 157.067 152.216  0.00  0.00     0.210 HD
ENDBRANCH   3  34
BRANCH   4  36
HETATM   36  O   UNK     0     155.393 152.492 152.103  0.00  0.00    -0.388 OA
HETATM   37  H   UNK     0     154.710 151.799 152.119  0.00  0.00     0.210 HD
ENDBRANCH   4  36
BRANCH   2  38
HETATM   38  O   UNK     0     156.757 154.905 151.106  0.00  0.00    -0.390 OA
HETATM   39  H   UNK     0     157.072 153.991 150.996  0.00  0.00     0.210 HD
ENDBRANCH   2  38
TORSDOF 11
ENDMDL
MODEL 4
REMARK VINA RESULT:      -8.7      4.086      7.359
REMARK  11 active torsions:
REMARK  status: ('A' for Active; 'I' for Inactive)
REMARK    1  A    between atoms: O_2  and  C_16 
REMARK    2  A    between atoms: O_2  and  C_18 
REMARK    3  A    between atoms: O_3  and  C_12 
REMARK    4  A    between atoms: O_4  and  C_13 
REMARK    5  A    between atoms: O_5  and  C_14 
REMARK    6  A    between atoms: O_6  and  C_17 
REMARK    7  A    between atoms: O_8  and  C_23 
REMARK    8  A    between atoms: O_10  and  C_30 
REMARK    9  A    between atoms: O_11  and  C_32 
REMARK   10  A    between atoms: C_15  and  C_17 
REMARK   11  A    between atoms: C_25  and  C_27 
ROOT
HETATM    1  O   UNK     0     152.871 155.071 152.258  0.00  0.00    -0.348 OA
HETATM    2  C   UNK     0     155.728 154.805 152.140  0.00  0.00     0.183 C 
HETATM    3  C   UNK     0     155.028 156.163 152.094  0.00  0.00     0.180 C 
HETATM    4  C   UNK     0     154.785 153.682 151.707  0.00  0.00     0.205 C 
HETATM    5  C   UNK     0     153.682 156.105 152.820  0.00  0.00     0.179 C 
HETATM    6  C   UNK     0     153.441 153.775 152.429  0.00  0.00     0.298 C 
ENDROOT
BRANCH   5   7
HETATM    7  C   UNK     0     152.913 157.416 152.687  0.00  0.00     0.198 C 
BRANCH   7   8
HETATM    8  O   UNK     0     153.400 158.112 151.555  0.00  0.00    -0.398 OA
HETATM    9  H   UNK     0     154.035 158.779 151.868  0.00  0.00     0.209 HD
ENDBRANCH   7   8
ENDBRANCH   5   7
BRANCH   6  10
HETATM   10  O   UNK     0     152.573 152.790 151.873  0.00  0.00    -0.318 OA
BRANCH  10  11
HETATM   11  C   UNK     0     151.919 153.129 150.725  0.00  0.00     0.077 A 
HETATM   12  C   UNK     0     150.746 153.883 150.790  0.00  0.00     0.075 A 
HETATM   13  C   UNK     0     150.079 154.230 149.616  0.00  0.00     0.095 A 
HETATM   14  O   UNK     0     148.932 154.971 149.742  0.00  0.00    -0.309 OA
HETATM   15  C   UNK     0     150.583 153.822 148.381  0.00  0.00     0.081 A 
HETATM   16  C   UNK     0     148.251 155.335 148.591  0.00  0.00     0.090 A 
HETATM   17  C   UNK     0     148.632 154.999 147.349  0.00  0.00     0.094 A 
HETATM   18  C   UNK     0     149.858 154.199 147.159  0.00  0.00     0.190 A 
HETATM   19  O   UNK     0     150.242 153.872 146.044  0.00  0.00    -0.287 OA
HETATM   20  C   UNK     0     151.757 153.066 148.312  0.00  0.00     0.085 A 
HETATM   21  C   UNK     0     152.423 152.722 149.490  0.00  0.00     0.074 A 
BRANCH  16  22
HETATM   22  C   UNK     0     147.028 156.126 148.842  0.00  0.00     0.001 A 
HETATM   23  C   UNK     0     147.123 157.490 149.127  0.00  0.00     0.053 A 
HETATM   24  C   UNK     0     145.967 158.237 149.362  0.00  0.00     0.099 A 
HETATM   25  C   UNK     0     144.717 157.622 149.315  0.00  0.00     0.098 A 
HETATM   26  C   UNK     0     144.620 156.260 149.029  0.00  0.00     0.040 A 
HETATM   27  C   UNK     0     145.773 155.513 148.793  0.00  0.00     0.017 A 
BRANCH  24  28
HETATM   28  O   UNK     0     146.074 159.567 149.642  0.00  0.00    -0.358 OA
HETATM   29  H   UNK     0     145.281 160.015 149.303  0.00  0.00     0.217 HD
ENDBRANCH  24  28
BRANCH  25  30
HETATM   30  O   UNK     0     143.583 158.341 149.542  0.00  0.00    -0.358 OA
HETATM   31  H   UNK     0     142.834 157.728 149.644  0.00  0.00     0.217 HD
ENDBRANCH  25  30
ENDBRANCH  16  22
BRANCH  20  32
HETATM   32  O   UNK     0     152.289 152.644 147.132  0.00  0.00    -0.360 OA
HETATM   33  H   UNK     0     152.497 151.699 147.170  0.00  0.00     0.217 HD
ENDBRANCH  20  32
ENDBRANCH  10  11
ENDBRANCH   6  10
BRANCH   3  34
HETATM   34  O   UNK     0     155.858 157.142 152.718  0.00  0.00    -0.390 OA
HETATM   35  H   UNK     0     156.762 156.785 152.760  0.00  0.00     0.210 HD
ENDBRANCH   3  34
BRANCH   4  36
HETATM   36  O   UNK     0     155.375 152.421 152.021  0.00  0.00    -0.388 OA
HETATM   37  H   UNK     0     155.487 152.372 152.986  0.00  0.00     0.210 HD
ENDBRANCH   4  36
BRANCH   2  38
HETATM   38  O   UNK     0     156.847 154.854 151.253  0.00  0.00    -0.390 OA
HETATM   39  H   UNK     0     157.569 154.351 151.668  0.00  0.00     0.210 HD
ENDBRANCH   2  38
TORSDOF 11
ENDMDL
MODEL 5
REMARK VINA RESULT:      -8.6      5.344      8.408
REMARK  11 active torsions:
REMARK  status: ('A' for Active; 'I' for Inactive)
REMARK    1  A    between atoms: O_2  and  C_16 
REMARK    2  A    between atoms: O_2  and  C_18 
REMARK    3  A    between atoms: O_3  and  C_12 
REMARK    4  A    between atoms: O_4  and  C_13 
REMARK    5  A    between atoms: O_5  and  C_14 
REMARK    6  A    between atoms: O_6  and  C_17 
REMARK    7  A    between atoms: O_8  and  C_23 
REMARK    8  A    between atoms: O_10  and  C_30 
REMARK    9  A    between atoms: O_11  and  C_32 
REMARK   10  A    between atoms: C_15  and  C_17 
REMARK   11  A    between atoms: C_25  and  C_27 
ROOT
HETATM    1  O   UNK     0     153.308 155.534 150.606  0.00  0.00    -0.348 OA
HETATM    2  C   UNK     0     154.719 154.809 153.000  0.00  0.00     0.183 C 
HETATM    3  C   UNK     0     153.538 153.998 152.466  0.00  0.00     0.180 C 
HETATM    4  C   UNK     0     154.687 156.245 152.474  0.00  0.00     0.205 C 
HETATM    5  C   UNK     0     153.416 154.151 150.948  0.00  0.00     0.179 C 
HETATM    6  C   UNK     0     154.472 156.278 150.961  0.00  0.00     0.298 C 
ENDROOT
BRANCH   5   7
HETATM    7  C   UNK     0     152.176 153.446 150.408  0.00  0.00     0.198 C 
BRANCH   7   8
HETATM    8  O   UNK     0     151.231 153.329 151.456  0.00  0.00    -0.398 OA
HETATM    9  H   UNK     0     150.498 152.777 151.133  0.00  0.00     0.209 HD
ENDBRANCH   7   8
ENDBRANCH   5   7
BRANCH   6  10
HETATM   10  O   UNK     0     154.311 157.641 150.570  0.00  0.00    -0.318 OA
BRANCH  10  11
HETATM   11  C   UNK     0     153.086 158.198 150.786  0.00  0.00     0.077 A 
HETATM   12  C   UNK     0     151.956 157.656 150.173  0.00  0.00     0.075 A 
HETATM   13  C   UNK     0     150.704 158.227 150.396  0.00  0.00     0.095 A 
HETATM   14  O   UNK     0     149.631 157.651 149.765  0.00  0.00    -0.309 OA
HETATM   15  C   UNK     0     150.584 159.339 151.229  0.00  0.00     0.081 A 
HETATM   16  C   UNK     0     148.373 158.195 149.973  0.00  0.00     0.090 A 
HETATM   17  C   UNK     0     148.130 159.265 150.746  0.00  0.00     0.094 A 
HETATM   18  C   UNK     0     149.252 159.924 151.444  0.00  0.00     0.190 A 
HETATM   19  O   UNK     0     149.075 160.900 152.159  0.00  0.00    -0.287 OA
HETATM   20  C   UNK     0     151.713 159.886 151.844  0.00  0.00     0.085 A 
HETATM   21  C   UNK     0     152.965 159.310 151.620  0.00  0.00     0.074 A 
BRANCH  16  22
HETATM   22  C   UNK     0     147.291 157.501 149.244  0.00  0.00     0.001 A 
HETATM   23  C   UNK     0     145.955 157.762 149.558  0.00  0.00     0.053 A 
HETATM   24  C   UNK     0     144.934 157.107 148.867  0.00  0.00     0.099 A 
HETATM   25  C   UNK     0     145.246 156.191 147.864  0.00  0.00     0.098 A 
HETATM   26  C   UNK     0     146.580 155.930 147.548  0.00  0.00     0.040 A 
HETATM   27  C   UNK     0     147.601 156.583 148.237  0.00  0.00     0.017 A 
BRANCH  24  28
HETATM   28  O   UNK     0     143.635 157.369 149.186  0.00  0.00    -0.358 OA
HETATM   29  H   UNK     0     143.152 156.526 149.215  0.00  0.00     0.217 HD
ENDBRANCH  24  28
BRANCH  25  30
HETATM   30  O   UNK     0     144.258 155.547 147.183  0.00  0.00    -0.358 OA
HETATM   31  H   UNK     0     144.424 154.589 147.213  0.00  0.00     0.217 HD
ENDBRANCH  25  30
ENDBRANCH  16  22
BRANCH  20  32
HETATM   32  O   UNK     0     151.647 160.970 152.665  0.00  0.00    -0.360 OA
HETATM   33  H   UNK     0     150.863 161.503 152.465  0.00  0.00     0.217 HD
ENDBRANCH  20  32
ENDBRANCH  10  11
ENDBRANCH   6  10
BRANCH   3  34
HETATM   34  O   UNK     0     153.728 152.622 152.787  0.00  0.00    -0.390 OA
HETATM   35  H   UNK     0     154.638 152.381 152.544  0.00  0.00     0.210 HD
ENDBRANCH   3  34
BRANCH   4  36
HETATM   36  O   UNK     0     155.931 156.882 152.763  0.00  0.00    -0.388 OA
HETATM   37  H   UNK     0     156.340 157.142 151.920  0.00  0.00     0.210 HD
ENDBRANCH   4  36
BRANCH   2  38
HETATM   38  O   UNK     0     154.637 154.823 154.426  0.00  0.00    -0.390 OA
HETATM   39  H   UNK     0     153.985 155.502 154.673  0.00  0.00     0.210 HD
ENDBRANCH   2  38
TORSDOF 11
ENDMDL
MODEL 6
REMARK VINA RESULT:      -8.6      5.265     10.020
REMARK  11 active torsions:
REMARK  status: ('A' for Active; 'I' for Inactive)
REMARK    1  A    between atoms: O_2  and  C_16 
REMARK    2  A    between atoms: O_2  and  C_18 
REMARK    3  A    between atoms: O_3  and  C_12 
REMARK    4  A    between atoms: O_4  and  C_13 
REMARK    5  A    between atoms: O_5  and  C_14 
REMARK    6  A    between atoms: O_6  and  C_17 
REMARK    7  A    between atoms: O_8  and  C_23 
REMARK    8  A    between atoms: O_10  and  C_30 
REMARK    9  A    between atoms: O_11  and  C_32 
REMARK   10  A    between atoms: C_15  and  C_17 
REMARK   11  A    between atoms: C_25  and  C_27 
ROOT
HETATM    1  O   UNK     0     147.735 156.803 148.594  0.00  0.00    -0.348 OA
HETATM    2  C   UNK     0     145.009 155.992 148.197  0.00  0.00     0.183 C 
HETATM    3  C   UNK     0     146.184 155.268 147.540  0.00  0.00     0.180 C 
HETATM    4  C   UNK     0     145.387 157.422 148.585  0.00  0.00     0.205 C 
HETATM    5  C   UNK     0     147.453 155.419 148.382  0.00  0.00     0.179 C 
HETATM    6  C   UNK     0     146.714 157.461 149.342  0.00  0.00     0.298 C 
ENDROOT
BRANCH   5   7
HETATM    7  C   UNK     0     148.666 154.804 147.689  0.00  0.00     0.198 C 
BRANCH   7   8
HETATM    8  O   UNK     0     148.698 153.419 147.982  0.00  0.00    -0.398 OA
HETATM    9  H   UNK     0     147.844 153.040 147.712  0.00  0.00     0.209 HD
ENDBRANCH   7   8
ENDBRANCH   5   7
BRANCH   6  10
HETATM   10  O   UNK     0     147.067 158.829 149.542  0.00  0.00    -0.318 OA
BRANCH  10  11
HETATM   11  C   UNK     0     148.257 159.068 150.162  0.00  0.00     0.077 A 
HETATM   12  C   UNK     0     149.195 158.042 150.288  0.00  0.00     0.075 A 
HETATM   13  C   UNK     0     150.411 158.289 150.923  0.00  0.00     0.095 A 
HETATM   14  O   UNK     0     151.293 157.241 151.018  0.00  0.00    -0.309 OA
HETATM   15  C   UNK     0     150.688 159.558 151.431  0.00  0.00     0.081 A 
HETATM   16  C   UNK     0     152.513 157.459 151.639  0.00  0.00     0.090 A 
HETATM   17  C   UNK     0     152.891 158.632 152.171  0.00  0.00     0.094 A 
HETATM   18  C   UNK     0     151.978 159.790 152.097  0.00  0.00     0.190 A 
HETATM   19  O   UNK     0     152.285 160.876 152.568  0.00  0.00    -0.287 OA
HETATM   20  C   UNK     0     149.752 160.587 151.306  0.00  0.00     0.085 A 
HETATM   21  C   UNK     0     148.536 160.337 150.669  0.00  0.00     0.074 A 
BRANCH  16  22
HETATM   22  C   UNK     0     153.381 156.265 151.691  0.00  0.00     0.001 A 
HETATM   23  C   UNK     0     154.440 156.208 152.600  0.00  0.00     0.053 A 
HETATM   24  C   UNK     0     155.259 155.079 152.649  0.00  0.00     0.099 A 
HETATM   25  C   UNK     0     155.022 154.007 151.791  0.00  0.00     0.098 A 
HETATM   26  C   UNK     0     153.964 154.061 150.883  0.00  0.00     0.040 A 
HETATM   27  C   UNK     0     153.145 155.188 150.832  0.00  0.00     0.017 A 
BRANCH  24  28
HETATM   28  O   UNK     0     156.291 155.038 153.539  0.00  0.00    -0.358 OA
HETATM   29  H   UNK     0     155.920 154.922 154.431  0.00  0.00     0.217 HD
ENDBRANCH  24  28
BRANCH  25  30
HETATM   30  O   UNK     0     155.814 152.899 151.831  0.00  0.00    -0.358 OA
HETATM   31  H   UNK     0     155.384 152.221 152.380  0.00  0.00     0.217 HD
ENDBRANCH  25  30
ENDBRANCH  16  22
BRANCH  20  32
HETATM   32  O   UNK     0     149.975 161.842 151.785  0.00  0.00    -0.360 OA
HETATM   33  H   UNK     0     149.155 162.229 152.126  0.00  0.00     0.217 HD
ENDBRANCH  20  32
ENDBRANCH  10  11
ENDBRANCH   6  10
BRANCH   3  34
HETATM   34  O   UNK     0     145.869 153.884 147.407  0.00  0.00    -0.390 OA
HETATM   35  H   UNK     0     145.586 153.728 146.489  0.00  0.00     0.210 HD
ENDBRANCH   3  34
BRANCH   4  36
HETATM   36  O   UNK     0     144.373 157.967 149.429  0.00  0.00    -0.388 OA
HETATM   37  H   UNK     0     144.251 157.363 150.181  0.00  0.00     0.210 HD
ENDBRANCH   4  36
BRANCH   2  38
HETATM   38  O   UNK     0     143.929 156.023 147.261  0.00  0.00    -0.390 OA
HETATM   39  H   UNK     0     144.002 156.854 146.761  0.00  0.00     0.210 HD
ENDBRANCH   2  38
TORSDOF 11
ENDMDL
MODEL 7
REMARK VINA RESULT:      -8.5      1.608      9.888
REMARK  11 active torsions:
REMARK  status: ('A' for Active; 'I' for Inactive)
REMARK    1  A    between atoms: O_2  and  C_16 
REMARK    2  A    between atoms: O_2  and  C_18 
REMARK    3  A    between atoms: O_3  and  C_12 
REMARK    4  A    between atoms: O_4  and  C_13 
REMARK    5  A    between atoms: O_5  and  C_14 
REMARK    6  A    between atoms: O_6  and  C_17 
REMARK    7  A    between atoms: O_8  and  C_23 
REMARK    8  A    between atoms: O_10  and  C_30 
REMARK    9  A    between atoms: O_11  and  C_32 
REMARK   10  A    between atoms: C_15  and  C_17 
REMARK   11  A    between atoms: C_25  and  C_27 
ROOT
HETATM    1  O   UNK     0     152.039 147.944 145.139  0.00  0.00    -0.348 OA
HETATM    2  C   UNK     0     153.653 148.356 142.800  0.00  0.00     0.183 C 
HETATM    3  C   UNK     0     152.703 147.167 142.943  0.00  0.00     0.180 C 
HETATM    4  C   UNK     0     154.036 148.925 144.166  0.00  0.00     0.205 C 
HETATM    5  C   UNK     0     151.538 147.510 143.873  0.00  0.00     0.179 C 
HETATM    6  C   UNK     0     152.803 149.145 145.043  0.00  0.00     0.298 C 
ENDROOT
BRANCH   5   7
HETATM    7  C   UNK     0     150.640 146.302 144.123  0.00  0.00     0.198 C 
BRANCH   7   8
HETATM    8  O   UNK     0     151.407 145.126 143.942  0.00  0.00    -0.398 OA
HETATM    9  H   UNK     0     152.151 145.159 144.568  0.00  0.00     0.209 HD
ENDBRANCH   7   8
ENDBRANCH   5   7
BRANCH   6  10
HETATM   10  O   UNK     0     153.250 149.537 146.340  0.00  0.00    -0.318 OA
BRANCH  10  11
HETATM   11  C   UNK     0     152.585 150.573 146.927  0.00  0.00     0.077 A 
HETATM   12  C   UNK     0     153.270 151.453 147.766  0.00  0.00     0.075 A 
HETATM   13  C   UNK     0     152.589 152.511 148.365  0.00  0.00     0.095 A 
HETATM   14  O   UNK     0     153.315 153.343 149.180  0.00  0.00    -0.309 OA
HETATM   15  C   UNK     0     151.226 152.687 148.128  0.00  0.00     0.081 A 
HETATM   16  C   UNK     0     152.665 154.408 149.785  0.00  0.00     0.090 A 
HETATM   17  C   UNK     0     151.358 154.677 149.639  0.00  0.00     0.094 A 
HETATM   18  C   UNK     0     150.531 153.810 148.775  0.00  0.00     0.190 A 
HETATM   19  O   UNK     0     149.338 154.021 148.613  0.00  0.00    -0.287 OA
HETATM   20  C   UNK     0     150.536 151.807 147.289  0.00  0.00     0.085 A 
HETATM   21  C   UNK     0     151.222 150.750 146.690  0.00  0.00     0.074 A 
BRANCH  16  22
HETATM   22  C   UNK     0     153.538 155.235 150.643  0.00  0.00     0.001 A 
HETATM   23  C   UNK     0     154.713 154.696 151.172  0.00  0.00     0.053 A 
HETATM   24  C   UNK     0     155.538 155.479 151.982  0.00  0.00     0.099 A 
HETATM   25  C   UNK     0     155.190 156.799 152.264  0.00  0.00     0.098 A 
HETATM   26  C   UNK     0     154.018 157.339 151.735  0.00  0.00     0.040 A 
HETATM   27  C   UNK     0     153.192 156.559 150.927  0.00  0.00     0.017 A 
BRANCH  24  28
HETATM   28  O   UNK     0     156.680 154.940 152.494  0.00  0.00    -0.358 OA
HETATM   29  H   UNK     0     156.818 154.069 152.083  0.00  0.00     0.217 HD
ENDBRANCH  24  28
BRANCH  25  30
HETATM   30  O   UNK     0     155.988 157.572 153.051  0.00  0.00    -0.358 OA
HETATM   31  H   UNK     0     156.640 158.028 152.492  0.00  0.00     0.217 HD
ENDBRANCH  25  30
ENDBRANCH  16  22
BRANCH  20  32
HETATM   32  O   UNK     0     149.207 151.937 147.026  0.00  0.00    -0.360 OA
HETATM   33  H   UNK     0     148.805 152.595 147.613  0.00  0.00     0.217 HD
ENDBRANCH  20  32
ENDBRANCH  10  11
ENDBRANCH   6  10
BRANCH   3  34
HETATM   34  O   UNK     0     152.192 146.815 141.658  0.00  0.00    -0.390 OA
HETATM   35  H   UNK     0     151.378 146.299 141.790  0.00  0.00     0.210 HD
ENDBRANCH   3  34
BRANCH   4  36
HETATM   36  O   UNK     0     154.689 150.182 143.990  0.00  0.00    -0.388 OA
HETATM   37  H   UNK     0     154.028 150.823 143.677  0.00  0.00     0.210 HD
ENDBRANCH   4  36
BRANCH   2  38
HETATM   38  O   UNK     0     154.829 147.905 142.126  0.00  0.00    -0.390 OA
HETATM   39  H   UNK     0     155.432 148.665 142.054  0.00  0.00     0.210 HD
ENDBRANCH   2  38
TORSDOF 11
ENDMDL
MODEL 8
REMARK VINA RESULT:      -8.5      2.508      3.581
REMARK  11 active torsions:
REMARK  status: ('A' for Active; 'I' for Inactive)
REMARK    1  A    between atoms: O_2  and  C_16 
REMARK    2  A    between atoms: O_2  and  C_18 
REMARK    3  A    between atoms: O_3  and  C_12 
REMARK    4  A    between atoms: O_4  and  C_13 
REMARK    5  A    between atoms: O_5  and  C_14 
REMARK    6  A    between atoms: O_6  and  C_17 
REMARK    7  A    between atoms: O_8  and  C_23 
REMARK    8  A    between atoms: O_10  and  C_30 
REMARK    9  A    between atoms: O_11  and  C_32 
REMARK   10  A    between atoms: C_15  and  C_17 
REMARK   11  A    between atoms: C_25  and  C_27 
ROOT
HETATM    1  O   UNK     0     153.288 155.288 152.107  0.00  0.00    -0.348 OA
HETATM    2  C   UNK     0     153.703 158.120 151.874  0.00  0.00     0.183 C 
HETATM    3  C   UNK     0     154.666 157.209 152.636  0.00  0.00     0.180 C 
HETATM    4  C   UNK     0     152.316 157.486 151.759  0.00  0.00     0.205 C 
HETATM    5  C   UNK     0     154.626 155.786 152.075  0.00  0.00     0.179 C 
HETATM    6  C   UNK     0     152.405 156.039 151.276  0.00  0.00     0.298 C 
ENDROOT
BRANCH   5   7
HETATM    7  C   UNK     0     155.491 154.833 152.894  0.00  0.00     0.198 C 
BRANCH   7   8
HETATM    8  O   UNK     0     156.844 155.017 152.518  0.00  0.00    -0.398 OA
HETATM    9  H   UNK     0     156.941 155.931 152.199  0.00  0.00     0.209 HD
ENDBRANCH   7   8
ENDBRANCH   5   7
BRANCH   6  10
HETATM   10  O   UNK     0     151.095 155.475 151.331  0.00  0.00    -0.318 OA
BRANCH  10  11
HETATM   11  C   UNK     0     150.608 154.947 150.172  0.00  0.00     0.077 A 
HETATM   12  C   UNK     0     151.417 154.121 149.390  0.00  0.00     0.075 A 
HETATM   13  C   UNK     0     150.917 153.582 148.206  0.00  0.00     0.095 A 
HETATM   14  O   UNK     0     151.759 152.778 147.479  0.00  0.00    -0.309 OA
HETATM   15  C   UNK     0     149.613 153.868 147.805  0.00  0.00     0.081 A 
HETATM   16  C   UNK     0     151.286 152.223 146.299  0.00  0.00     0.090 A 
HETATM   17  C   UNK     0     150.055 152.429 145.807  0.00  0.00     0.094 A 
HETATM   18  C   UNK     0     149.112 153.288 146.550  0.00  0.00     0.190 A 
HETATM   19  O   UNK     0     147.980 153.500 146.138  0.00  0.00    -0.287 OA
HETATM   20  C   UNK     0     148.800 154.695 148.585  0.00  0.00     0.085 A 
HETATM   21  C   UNK     0     149.303 155.232 149.771  0.00  0.00     0.074 A 
BRANCH  16  22
HETATM   22  C   UNK     0     152.275 151.380 145.595  0.00  0.00     0.001 A 
HETATM   23  C   UNK     0     152.702 151.726 144.311  0.00  0.00     0.053 A 
HETATM   24  C   UNK     0     153.636 150.931 143.647  0.00  0.00     0.099 A 
HETATM   25  C   UNK     0     154.145 149.788 144.263  0.00  0.00     0.098 A 
HETATM   26  C   UNK     0     153.720 149.442 145.546  0.00  0.00     0.040 A 
HETATM   27  C   UNK     0     152.787 150.235 146.211  0.00  0.00     0.017 A 
BRANCH  24  28
HETATM   28  O   UNK     0     154.042 151.278 142.393  0.00  0.00    -0.358 OA
HETATM   29  H   UNK     0     153.514 152.041 142.102  0.00  0.00     0.217 HD
ENDBRANCH  24  28
BRANCH  25  30
HETATM   30  O   UNK     0     155.058 149.005 143.625  0.00  0.00    -0.358 OA
HETATM   31  H   UNK     0     154.611 148.211 143.285  0.00  0.00     0.217 HD
ENDBRANCH  25  30
ENDBRANCH  16  22
BRANCH  20  32
HETATM   32  O   UNK     0     147.520 155.004 148.237  0.00  0.00    -0.360 OA
HETATM   33  H   UNK     0     146.952 154.221 148.294  0.00  0.00     0.217 HD
ENDBRANCH  20  32
ENDBRANCH  10  11
ENDBRANCH   6  10
BRANCH   3  34
HETATM   34  O   UNK     0     155.991 157.724 152.522  0.00  0.00    -0.390 OA
HETATM   35  H   UNK     0     156.294 157.572 151.610  0.00  0.00     0.210 HD
ENDBRANCH   3  34
BRANCH   4  36
HETATM   36  O   UNK     0     151.535 158.224 150.820  0.00  0.00    -0.388 OA
HETATM   37  H   UNK     0     150.621 157.894 150.862  0.00  0.00     0.210 HD
ENDBRANCH   4  36
BRANCH   2  38
HETATM   38  O   UNK     0     153.604 159.355 152.586  0.00  0.00    -0.390 OA
HETATM   39  H   UNK     0     153.968 159.207 153.476  0.00  0.00     0.210 HD
ENDBRANCH   2  38
TORSDOF 11
ENDMDL
MODEL 9
REMARK VINA RESULT:      -8.4      3.005      4.552
REMARK  11 active torsions:
REMARK  status: ('A' for Active; 'I' for Inactive)
REMARK    1  A    between atoms: O_2  and  C_16 
REMARK    2  A    between atoms: O_2  and  C_18 
REMARK    3  A    between atoms: O_3  and  C_12 
REMARK    4  A    between atoms: O_4  and  C_13 
REMARK    5  A    between atoms: O_5  and  C_14 
REMARK    6  A    between atoms: O_6  and  C_17 
REMARK    7  A    between atoms: O_8  and  C_23 
REMARK    8  A    between atoms: O_10  and  C_30 
REMARK    9  A    between atoms: O_11  and  C_32 
REMARK   10  A    between atoms: C_15  and  C_17 
REMARK   11  A    between atoms: C_25  and  C_27 
ROOT
HETATM    1  O   UNK     0     153.720 153.115 149.892  0.00  0.00    -0.348 OA
HETATM    2  C   UNK     0     151.623 154.876 150.758  0.00  0.00     0.183 C 
HETATM    3  C   UNK     0     153.015 154.886 151.389  0.00  0.00     0.180 C 
HETATM    4  C   UNK     0     151.336 153.539 150.072  0.00  0.00     0.205 C 
HETATM    5  C   UNK     0     154.069 154.410 150.386  0.00  0.00     0.179 C 
HETATM    6  C   UNK     0     152.493 153.120 149.165  0.00  0.00     0.298 C 
ENDROOT
BRANCH   5   7
HETATM    7  C   UNK     0     155.449 154.301 151.028  0.00  0.00     0.198 C 
BRANCH   7   8
HETATM    8  O   UNK     0     155.533 153.061 151.706  0.00  0.00    -0.398 OA
HETATM    9  H   UNK     0     154.628 152.784 151.930  0.00  0.00     0.209 HD
ENDBRANCH   7   8
ENDBRANCH   5   7
BRANCH   6  10
HETATM   10  O   UNK     0     152.216 151.808 148.678  0.00  0.00    -0.318 OA
BRANCH  10  11
HETATM   11  C   UNK     0     152.298 151.628 147.329  0.00  0.00     0.077 A 
HETATM   12  C   UNK     0     151.236 151.040 146.640  0.00  0.00     0.075 A 
HETATM   13  C   UNK     0     151.322 150.856 145.260  0.00  0.00     0.095 A 
HETATM   14  O   UNK     0     150.248 150.273 144.637  0.00  0.00    -0.309 OA
HETATM   15  C   UNK     0     152.467 151.258 144.573  0.00  0.00     0.081 A 
HETATM   16  C   UNK     0     150.303 150.083 143.265  0.00  0.00     0.090 A 
HETATM   17  C   UNK     0     151.349 150.422 142.497  0.00  0.00     0.094 A 
HETATM   18  C   UNK     0     152.532 151.051 143.119  0.00  0.00     0.190 A 
HETATM   19  O   UNK     0     153.506 151.377 142.455  0.00  0.00    -0.287 OA
HETATM   20  C   UNK     0     153.533 151.847 145.260  0.00  0.00     0.085 A 
HETATM   21  C   UNK     0     153.443 152.030 146.641  0.00  0.00     0.074 A 
BRANCH  16  22
HETATM   22  C   UNK     0     149.097 149.444 142.699  0.00  0.00     0.001 A 
HETATM   23  C   UNK     0     149.217 148.296 141.913  0.00  0.00     0.053 A 
HETATM   24  C   UNK     0     148.077 147.691 141.380  0.00  0.00     0.099 A 
HETATM   25  C   UNK     0     146.818 148.233 141.630  0.00  0.00     0.098 A 
HETATM   26  C   UNK     0     146.696 149.380 142.416  0.00  0.00     0.040 A 
HETATM   27  C   UNK     0     147.833 149.985 142.949  0.00  0.00     0.017 A 
BRANCH  24  28
HETATM   28  O   UNK     0     148.209 146.572 140.612  0.00  0.00    -0.358 OA
HETATM   29  H   UNK     0     148.103 145.795 141.186  0.00  0.00     0.217 HD
ENDBRANCH  24  28
BRANCH  25  30
HETATM   30  O   UNK     0     145.699 147.652 141.116  0.00  0.00    -0.358 OA
HETATM   31  H   UNK     0     145.961 146.911 140.542  0.00  0.00     0.217 HD
ENDBRANCH  25  30
ENDBRANCH  16  22
BRANCH  20  32
HETATM   32  O   UNK     0     154.671 152.256 144.635  0.00  0.00    -0.360 OA
HETATM   33  H   UNK     0     155.453 151.997 145.145  0.00  0.00     0.217 HD
ENDBRANCH  20  32
ENDBRANCH  10  11
ENDBRANCH   6  10
BRANCH   3  34
HETATM   34  O   UNK     0     153.331 156.211 151.811  0.00  0.00    -0.390 OA
HETATM   35  H   UNK     0     152.537 156.760 151.693  0.00  0.00     0.210 HD
ENDBRANCH   3  34
BRANCH   4  36
HETATM   36  O   UNK     0     150.161 153.661 149.271  0.00  0.00    -0.388 OA
HETATM   37  H   UNK     0     150.198 152.981 148.577  0.00  0.00     0.210 HD
ENDBRANCH   4  36
BRANCH   2  38
HETATM   38  O   UNK     0     150.665 155.092 151.796  0.00  0.00    -0.390 OA
HETATM   39  H   UNK     0     150.884 155.940 152.221  0.00  0.00     0.210 HD
ENDBRANCH   2  38
TORSDOF 11
ENDMDL
MODEL 10
REMARK VINA RESULT:      -8.4      2.732      3.410
REMARK  11 active torsions:
REMARK  status: ('A' for Active; 'I' for Inactive)
REMARK    1  A    between atoms: O_2  and  C_16 
REMARK    2  A    between atoms: O_2  and  C_18 
REMARK    3  A    between atoms: O_3  and  C_12 
REMARK    4  A    between atoms: O_4  and  C_13 
REMARK    5  A    between atoms: O_5  and  C_14 
REMARK    6  A    between atoms: O_6  and  C_17 
REMARK    7  A    between atoms: O_8  and  C_23 
REMARK    8  A    between atoms: O_10  and  C_30 
REMARK    9  A    between atoms: O_11  and  C_32 
REMARK   10  A    between atoms: C_15  and  C_17 
REMARK   11  A    between atoms: C_25  and  C_27 
ROOT
HETATM    1  O   UNK     0     153.761 156.231 150.648  0.00  0.00    -0.348 OA
HETATM    2  C   UNK     0     154.708 153.769 151.786  0.00  0.00     0.183 C 
HETATM    3  C   UNK     0     155.154 155.138 152.303  0.00  0.00     0.180 C 
HETATM    4  C   UNK     0     154.198 153.861 150.347  0.00  0.00     0.205 C 
HETATM    5  C   UNK     0     154.079 156.194 152.040  0.00  0.00     0.179 C 
HETATM    6  C   UNK     0     153.199 155.005 150.183  0.00  0.00     0.298 C 
ENDROOT
BRANCH   5   7
HETATM    7  C   UNK     0     154.549 157.589 152.442  0.00  0.00     0.198 C 
BRANCH   7   8
HETATM    8  O   UNK     0     155.931 157.530 152.741  0.00  0.00    -0.398 OA
HETATM    9  H   UNK     0     156.143 158.290 153.310  0.00  0.00     0.209 HD
ENDBRANCH   7   8
ENDBRANCH   5   7
BRANCH   6  10
HETATM   10  O   UNK     0     152.881 155.116 148.796  0.00  0.00    -0.318 OA
BRANCH  10  11
HETATM   11  C   UNK     0     151.611 154.783 148.432  0.00  0.00     0.077 A 
HETATM   12  C   UNK     0     151.400 153.818 147.446  0.00  0.00     0.075 A 
HETATM   13  C   UNK     0     150.099 153.478 147.075  0.00  0.00     0.095 A 
HETATM   14  O   UNK     0     149.955 152.524 146.100  0.00  0.00    -0.309 OA
HETATM   15  C   UNK     0     149.014 154.104 147.687  0.00  0.00     0.081 A 
HETATM   16  C   UNK     0     148.673 152.162 145.715  0.00  0.00     0.090 A 
HETATM   17  C   UNK     0     147.552 152.695 146.225  0.00  0.00     0.094 A 
HETATM   18  C   UNK     0     147.653 153.728 147.274  0.00  0.00     0.190 A 
HETATM   19  O   UNK     0     146.657 154.238 147.767  0.00  0.00    -0.287 OA
HETATM   20  C   UNK     0     149.221 155.071 148.674  0.00  0.00     0.085 A 
HETATM   21  C   UNK     0     150.524 155.407 149.044  0.00  0.00     0.074 A 
BRANCH  16  22
HETATM   22  C   UNK     0     148.633 151.132 144.656  0.00  0.00     0.001 A 
HETATM   23  C   UNK     0     149.768 150.878 143.882  0.00  0.00     0.053 A 
HETATM   24  C   UNK     0     149.729 149.903 142.884  0.00  0.00     0.099 A 
HETATM   25  C   UNK     0     148.558 149.182 142.657  0.00  0.00     0.098 A 
HETATM   26  C   UNK     0     147.424 149.434 143.430  0.00  0.00     0.040 A 
HETATM   27  C   UNK     0     147.461 150.407 144.427  0.00  0.00     0.017 A 
BRANCH  24  28
HETATM   28  O   UNK     0     150.843 149.668 142.135  0.00  0.00    -0.358 OA
HETATM   29  H   UNK     0     150.598 149.078 141.401  0.00  0.00     0.217 HD
ENDBRANCH  24  28
BRANCH  25  30
HETATM   30  O   UNK     0     148.509 148.228 141.686  0.00  0.00    -0.358 OA
HETATM   31  H   UNK     0     148.827 148.610 140.850  0.00  0.00     0.217 HD
ENDBRANCH  25  30
ENDBRANCH  16  22
BRANCH  20  32
HETATM   32  O   UNK     0     148.195 155.709 149.301  0.00  0.00    -0.360 OA
HETATM   33  H   UNK     0     147.345 155.461 148.905  0.00  0.00     0.217 HD
ENDBRANCH  20  32
ENDBRANCH  10  11
ENDBRANCH   6  10
BRANCH   3  34
HETATM   34  O   UNK     0     155.400 155.054 153.705  0.00  0.00    -0.390 OA
HETATM   35  H   UNK     0     156.351 155.194 153.851  0.00  0.00     0.210 HD
ENDBRANCH   3  34
BRANCH   4  36
HETATM   36  O   UNK     0     153.544 152.641 149.999  0.00  0.00    -0.388 OA
HETATM   37  H   UNK     0     153.678 152.009 150.726  0.00  0.00     0.210 HD
ENDBRANCH   4  36
BRANCH   2  38
HETATM   38  O   UNK     0     155.832 152.889 151.838  0.00  0.00    -0.390 OA
HETATM   39  H   UNK     0     155.882 152.535 152.743  0.00  0.00     0.210 HD
ENDBRANCH   2  38
TORSDOF 11
ENDMDL
