MODEL 1
REMARK VINA RESULT:      -9.3      0.000      0.000
REMARK  12 active torsions:
REMARK  status: ('A' for Active; 'I' for Inactive)
REMARK    1  A    between atoms: O_1  and  C_10 
REMARK    2  A    between atoms: O_2  and  C_17 
REMARK    3  A    between atoms: O_3  and  C_20 
REMARK    4  A    between atoms: O_4  and  C_27 
REMARK    5  A    between atoms: O_6  and  C_29 
REMARK    6  A    between atoms: O_7  and  C_28 
REMARK    7  A    between atoms: O_8  and  C_33 
REMARK    8  A    between atoms: C_11  and  C_20 
REMARK    9  A    between atoms: C_20  and  C_28 
REMARK   10  A    between atoms: C_28  and  C_31 
REMARK   11  A    between atoms: C_31  and  C_32 
REMARK   12  A    between atoms: C_32  and  C_33 
ROOT
HETATM    1  O   UNK     0     182.509 179.403 179.380  0.00  0.00    -0.384 OA
HETATM    2  H   UNK     0     181.779 179.856 178.933  0.00  0.00     0.211 HD
ENDROOT
BRANCH   1   3
HETATM    3  C   UNK     0     182.569 178.009 179.002  0.00  0.00     0.090 C 
HETATM    4  C   UNK     0     183.594 177.270 179.900  0.00  0.00    -0.000 C 
HETATM    5  C   UNK     0     184.907 177.986 179.488  0.00  0.00     0.034 C 
HETATM    6  C   UNK     0     183.201 177.483 181.368  0.00  0.00     0.045 C 
HETATM    7  C   UNK     0     183.679 175.748 179.601  0.00  0.00     0.019 C 
HETATM    8  C   UNK     0     184.763 178.168 177.960  0.00  0.00     0.012 C 
HETATM    9  C   UNK     0     183.264 177.986 177.633  0.00  0.00     0.044 C 
HETATM   10  C   UNK     0     181.772 176.973 181.650  0.00  0.00     0.128 C 
HETATM   11  C   UNK     0     180.674 177.532 180.670  0.00  0.00     0.055 C 
HETATM   12  C   UNK     0     179.231 176.895 180.889  0.00  0.00    -0.021 C 
HETATM   13  C   UNK     0     181.170 177.465 179.210  0.00  0.00    -0.034 C 
HETATM   14  C   UNK     0     178.334 177.150 179.643  0.00  0.00     0.071 C 
HETATM   15  C   UNK     0     178.532 177.480 182.172  0.00  0.00     0.045 C 
HETATM   16  C   UNK     0     179.335 175.356 181.084  0.00  0.00     0.017 C 
HETATM   17  C   UNK     0     177.889 178.609 179.441  0.00  0.00     0.047 C 
HETATM   18  C   UNK     0     179.012 176.669 178.376  0.00  0.00     0.154 C 
HETATM   19  C   UNK     0     177.744 179.393 180.741  0.00  0.00     0.147 C 
HETATM   20  C   UNK     0     177.405 178.486 181.916  0.00  0.00     0.147 C 
HETATM   21  O   UNK     0     178.396 176.083 177.489  0.00  0.00    -0.293 OA
HETATM   22  C   UNK     0     180.434 177.014 178.184  0.00  0.00     0.057 C 
BRANCH   5  23
HETATM   23  C   UNK     0     186.209 177.300 179.882  0.00  0.00     0.084 C 
HETATM   24  C   UNK     0     187.123 178.297 180.613  0.00  0.00     0.049 C 
BRANCH  23  25
HETATM   25  O   UNK     0     185.904 176.244 180.802  0.00  0.00    -0.387 OA
HETATM   26  H   UNK     0     185.614 175.464 180.301  0.00  0.00     0.210 HD
ENDBRANCH  23  25
BRANCH  23  27
HETATM   27  C   UNK     0     186.939 176.681 178.659  0.00  0.00     0.152 C 
BRANCH  27  28
HETATM   28  O   UNK     0     186.873 175.253 178.733  0.00  0.00    -0.393 OA
HETATM   29  H   UNK     0     186.183 175.027 179.380  0.00  0.00     0.210 HD
ENDBRANCH  27  28
BRANCH  27  30
HETATM   30  C   UNK     0     188.419 177.092 178.532  0.00  0.00     0.037 C 
BRANCH  30  31
HETATM   31  C   UNK     0     189.248 176.036 177.778  0.00  0.00     0.040 C 
BRANCH  31  32
HETATM   32  C   UNK     0     190.610 175.709 178.427  0.00  0.00     0.051 C 
HETATM   33  C   UNK     0     191.292 177.007 178.871  0.00  0.00     0.045 C 
HETATM   34  C   UNK     0     190.478 174.755 179.617  0.00  0.00     0.045 C 
BRANCH  32  35
HETATM   35  O   UNK     0     191.441 175.091 177.442  0.00  0.00    -0.391 OA
HETATM   36  H   UNK     0     192.333 175.470 177.507  0.00  0.00     0.210 HD
ENDBRANCH  32  35
ENDBRANCH  31  32
ENDBRANCH  30  31
ENDBRANCH  27  30
ENDBRANCH  23  27
ENDBRANCH   5  23
BRANCH  10  37
HETATM   37  O   UNK     0     181.462 177.315 182.998  0.00  0.00    -0.395 OA
HETATM   38  H   UNK     0     181.115 178.224 183.000  0.00  0.00     0.210 HD
ENDBRANCH  10  37
BRANCH  19  39
HETATM   39  O   UNK     0     176.733 180.382 180.569  0.00  0.00    -0.393 OA
HETATM   40  H   UNK     0     176.405 180.638 181.447  0.00  0.00     0.210 HD
ENDBRANCH  19  39
BRANCH  20  41
HETATM   41  O   UNK     0     176.194 177.773 181.661  0.00  0.00    -0.393 OA
HETATM   42  H   UNK     0     176.086 177.114 182.368  0.00  0.00     0.210 HD
ENDBRANCH  20  41
ENDBRANCH   1   3
TORSDOF 12
ENDMDL
MODEL 2
REMARK VINA RESULT:      -9.1      1.918      3.929
REMARK  12 active torsions:
REMARK  status: ('A' for Active; 'I' for Inactive)
REMARK    1  A    between atoms: O_1  and  C_10 
REMARK    2  A    between atoms: O_2  and  C_17 
REMARK    3  A    between atoms: O_3  and  C_20 
REMARK    4  A    between atoms: O_4  and  C_27 
REMARK    5  A    between atoms: O_6  and  C_29 
REMARK    6  A    between atoms: O_7  and  C_28 
REMARK    7  A    between atoms: O_8  and  C_33 
REMARK    8  A    between atoms: C_11  and  C_20 
REMARK    9  A    between atoms: C_20  and  C_28 
REMARK   10  A    between atoms: C_28  and  C_31 
REMARK   11  A    between atoms: C_31  and  C_32 
REMARK   12  A    between atoms: C_32  and  C_33 
ROOT
HETATM    1  O   UNK     0     185.061 175.266 178.809  0.00  0.00    -0.384 OA
HETATM    2  H   UNK     0     184.197 175.345 178.380  0.00  0.00     0.211 HD
ENDROOT
BRANCH   1   3
HETATM    3  C   UNK     0     185.122 176.064 180.014  0.00  0.00     0.090 C 
HETATM    4  C   UNK     0     185.862 177.394 179.719  0.00  0.00    -0.000 C 
HETATM    5  C   UNK     0     187.277 176.866 179.363  0.00  0.00     0.034 C 
HETATM    6  C   UNK     0     185.150 178.103 178.559  0.00  0.00     0.045 C 
HETATM    7  C   UNK     0     185.921 178.342 180.949  0.00  0.00     0.019 C 
HETATM    8  C   UNK     0     187.505 175.718 180.374  0.00  0.00     0.012 C 
HETATM    9  C   UNK     0     186.116 175.339 180.933  0.00  0.00     0.044 C 
HETATM   10  C   UNK     0     183.667 178.372 178.887  0.00  0.00     0.128 C 
HETATM   11  C   UNK     0     182.865 177.108 179.371  0.00  0.00     0.055 C 
HETATM   12  C   UNK     0     181.374 177.428 179.831  0.00  0.00    -0.021 C 
HETATM   13  C   UNK     0     183.683 176.317 180.414  0.00  0.00    -0.034 C 
HETATM   14  C   UNK     0     180.811 176.256 180.688  0.00  0.00     0.071 C 
HETATM   15  C   UNK     0     180.432 177.681 178.597  0.00  0.00     0.045 C 
HETATM   16  C   UNK     0     181.336 178.710 180.710  0.00  0.00     0.017 C 
HETATM   17  C   UNK     0     180.516 174.960 179.913  0.00  0.00     0.047 C 
HETATM   18  C   UNK     0     181.736 175.932 181.843  0.00  0.00     0.154 C 
HETATM   19  C   UNK     0     180.119 175.189 178.458  0.00  0.00     0.147 C 
HETATM   20  C   UNK     0     179.460 176.547 178.257  0.00  0.00     0.147 C 
HETATM   21  O   UNK     0     181.309 175.669 182.965  0.00  0.00    -0.293 OA
HETATM   22  C   UNK     0     183.182 175.841 181.562  0.00  0.00     0.057 C 
BRANCH   5  23
HETATM   23  C   UNK     0     188.405 177.888 179.364  0.00  0.00     0.084 C 
HETATM   24  C   UNK     0     188.745 178.291 177.920  0.00  0.00     0.049 C 
BRANCH  23  25
HETATM   25  O   UNK     0     187.949 179.066 180.042  0.00  0.00    -0.387 OA
HETATM   26  H   UNK     0     186.980 179.036 180.107  0.00  0.00     0.210 HD
ENDBRANCH  23  25
BRANCH  23  27
HETATM   27  C   UNK     0     189.670 177.366 180.099  0.00  0.00     0.152 C 
BRANCH  27  28
HETATM   28  O   UNK     0     190.130 178.356 181.025  0.00  0.00    -0.393 OA
HETATM   29  H   UNK     0     190.413 179.128 180.507  0.00  0.00     0.210 HD
ENDBRANCH  27  28
BRANCH  27  30
HETATM   30  C   UNK     0     190.838 176.996 179.165  0.00  0.00     0.037 C 
BRANCH  30  31
HETATM   31  C   UNK     0     191.384 175.586 179.454  0.00  0.00     0.040 C 
BRANCH  31  32
HETATM   32  C   UNK     0     190.768 174.470 178.584  0.00  0.00     0.051 C 
HETATM   33  C   UNK     0     189.859 173.589 179.449  0.00  0.00     0.045 C 
HETATM   34  C   UNK     0     189.979 175.022 177.394  0.00  0.00     0.045 C 
BRANCH  32  35
HETATM   35  O   UNK     0     191.826 173.651 178.085  0.00  0.00    -0.391 OA
HETATM   36  H   UNK     0     191.877 173.763 177.121  0.00  0.00     0.210 HD
ENDBRANCH  32  35
ENDBRANCH  31  32
ENDBRANCH  30  31
ENDBRANCH  27  30
ENDBRANCH  23  27
ENDBRANCH   5  23
BRANCH  10  37
HETATM   37  O   UNK     0     183.071 178.926 177.717  0.00  0.00    -0.395 OA
HETATM   38  H   UNK     0     183.623 178.674 176.957  0.00  0.00     0.210 HD
ENDBRANCH  10  37
BRANCH  19  39
HETATM   39  O   UNK     0     179.239 174.144 178.053  0.00  0.00    -0.393 OA
HETATM   40  H   UNK     0     179.300 174.052 177.088  0.00  0.00     0.210 HD
ENDBRANCH  19  39
BRANCH  20  41
HETATM   41  O   UNK     0     178.301 176.664 179.084  0.00  0.00    -0.393 OA
HETATM   42  H   UNK     0     178.581 176.529 180.004  0.00  0.00     0.210 HD
ENDBRANCH  20  41
ENDBRANCH   1   3
TORSDOF 12
ENDMDL
MODEL 3
REMARK VINA RESULT:      -9.0      1.671      9.566
REMARK  12 active torsions:
REMARK  status: ('A' for Active; 'I' for Inactive)
REMARK    1  A    between atoms: O_1  and  C_10 
REMARK    2  A    between atoms: O_2  and  C_17 
REMARK    3  A    between atoms: O_3  and  C_20 
REMARK    4  A    between atoms: O_4  and  C_27 
REMARK    5  A    between atoms: O_6  and  C_29 
REMARK    6  A    between atoms: O_7  and  C_28 
REMARK    7  A    between atoms: O_8  and  C_33 
REMARK    8  A    between atoms: C_11  and  C_20 
REMARK    9  A    between atoms: C_20  and  C_28 
REMARK   10  A    between atoms: C_28  and  C_31 
REMARK   11  A    between atoms: C_31  and  C_32 
REMARK   12  A    between atoms: C_32  and  C_33 
ROOT
HETATM    1  O   UNK     0     185.003 175.171 178.763  0.00  0.00    -0.384 OA
HETATM    2  H   UNK     0     185.019 175.064 177.801  0.00  0.00     0.211 HD
ENDROOT
BRANCH   1   3
HETATM    3  C   UNK     0     185.215 176.551 179.139  0.00  0.00     0.090 C 
HETATM    4  C   UNK     0     184.658 176.792 180.566  0.00  0.00    -0.000 C 
HETATM    5  C   UNK     0     183.146 176.535 180.334  0.00  0.00     0.034 C 
HETATM    6  C   UNK     0     185.322 175.794 181.525  0.00  0.00     0.045 C 
HETATM    7  C   UNK     0     184.899 178.241 181.075  0.00  0.00     0.019 C 
HETATM    8  C   UNK     0     182.871 177.182 178.956  0.00  0.00     0.012 C 
HETATM    9  C   UNK     0     184.244 177.365 178.272  0.00  0.00     0.044 C 
HETATM   10  C   UNK     0     186.858 175.937 181.514  0.00  0.00     0.128 C 
HETATM   11  C   UNK     0     187.509 175.883 180.082  0.00  0.00     0.055 C 
HETATM   12  C   UNK     0     189.077 176.164 180.077  0.00  0.00    -0.021 C 
HETATM   13  C   UNK     0     186.715 176.764 179.095  0.00  0.00    -0.034 C 
HETATM   14  C   UNK     0     189.554 176.528 178.641  0.00  0.00     0.071 C 
HETATM   15  C   UNK     0     189.886 174.922 180.605  0.00  0.00     0.045 C 
HETATM   16  C   UNK     0     189.421 177.365 181.002  0.00  0.00     0.017 C 
HETATM   17  C   UNK     0     189.548 175.364 177.633  0.00  0.00     0.047 C 
HETATM   18  C   UNK     0     188.742 177.671 178.069  0.00  0.00     0.154 C 
HETATM   19  C   UNK     0     189.792 173.999 178.267  0.00  0.00     0.147 C 
HETATM   20  C   UNK     0     190.622 174.104 179.539  0.00  0.00     0.147 C 
HETATM   21  O   UNK     0     189.258 178.577 177.419  0.00  0.00    -0.293 OA
HETATM   22  C   UNK     0     187.275 177.619 178.228  0.00  0.00     0.057 C 
BRANCH   5  23
HETATM   23  C   UNK     0     182.198 177.027 181.418  0.00  0.00     0.084 C 
HETATM   24  C   UNK     0     181.396 175.844 181.985  0.00  0.00     0.049 C 
BRANCH  23  25
HETATM   25  O   UNK     0     182.979 177.569 182.491  0.00  0.00    -0.387 OA
HETATM   26  H   UNK     0     183.837 177.859 182.141  0.00  0.00     0.210 HD
ENDBRANCH  23  25
BRANCH  23  27
HETATM   27  C   UNK     0     181.244 178.139 180.904  0.00  0.00     0.152 C 
BRANCH  27  28
HETATM   28  O   UNK     0     181.715 179.417 181.345  0.00  0.00    -0.393 OA
HETATM   29  H   UNK     0     181.078 179.753 181.997  0.00  0.00     0.210 HD
ENDBRANCH  27  28
BRANCH  27  30
HETATM   30  C   UNK     0     179.781 177.979 181.359  0.00  0.00     0.037 C 
BRANCH  30  31
HETATM   31  C   UNK     0     178.797 178.057 180.178  0.00  0.00     0.040 C 
BRANCH  31  32
HETATM   32  C   UNK     0     177.331 178.322 180.582  0.00  0.00     0.051 C 
HETATM   33  C   UNK     0     176.897 177.301 181.639  0.00  0.00     0.045 C 
HETATM   34  C   UNK     0     177.116 179.742 181.111  0.00  0.00     0.045 C 
BRANCH  32  35
HETATM   35  O   UNK     0     176.506 178.138 179.430  0.00  0.00    -0.391 OA
HETATM   36  H   UNK     0     176.694 177.264 179.049  0.00  0.00     0.210 HD
ENDBRANCH  32  35
ENDBRANCH  31  32
ENDBRANCH  30  31
ENDBRANCH  27  30
ENDBRANCH  23  27
ENDBRANCH   5  23
BRANCH  10  37
HETATM   37  O   UNK     0     187.382 174.902 182.342  0.00  0.00    -0.395 OA
HETATM   38  H   UNK     0     187.347 175.214 183.263  0.00  0.00     0.210 HD
ENDBRANCH  10  37
BRANCH  19  39
HETATM   39  O   UNK     0     190.443 173.162 177.316  0.00  0.00    -0.393 OA
HETATM   40  H   UNK     0     190.581 173.675 176.502  0.00  0.00     0.210 HD
ENDBRANCH  19  39
BRANCH  20  41
HETATM   41  O   UNK     0     191.879 174.725 179.263  0.00  0.00    -0.393 OA
HETATM   42  H   UNK     0     192.576 174.073 179.447  0.00  0.00     0.210 HD
ENDBRANCH  20  41
ENDBRANCH   1   3
TORSDOF 12
ENDMDL
MODEL 4
REMARK VINA RESULT:      -8.9      1.942      9.404
REMARK  12 active torsions:
REMARK  status: ('A' for Active; 'I' for Inactive)
REMARK    1  A    between atoms: O_1  and  C_10 
REMARK    2  A    between atoms: O_2  and  C_17 
REMARK    3  A    between atoms: O_3  and  C_20 
REMARK    4  A    between atoms: O_4  and  C_27 
REMARK    5  A    between atoms: O_6  and  C_29 
REMARK    6  A    between atoms: O_7  and  C_28 
REMARK    7  A    between atoms: O_8  and  C_33 
REMARK    8  A    between atoms: C_11  and  C_20 
REMARK    9  A    between atoms: C_20  and  C_28 
REMARK   10  A    between atoms: C_28  and  C_31 
REMARK   11  A    between atoms: C_31  and  C_32 
REMARK   12  A    between atoms: C_32  and  C_33 
ROOT
HETATM    1  O   UNK     0     186.602 177.814 181.879  0.00  0.00    -0.384 OA
HETATM    2  H   UNK     0     186.791 178.513 181.236  0.00  0.00     0.211 HD
ENDROOT
BRANCH   1   3
HETATM    3  C   UNK     0     186.050 176.644 181.232  0.00  0.00     0.090 C 
HETATM    4  C   UNK     0     184.890 177.067 180.294  0.00  0.00    -0.000 C 
HETATM    5  C   UNK     0     183.876 177.629 181.324  0.00  0.00     0.034 C 
HETATM    6  C   UNK     0     185.420 178.113 179.304  0.00  0.00     0.045 C 
HETATM    7  C   UNK     0     184.276 175.874 179.511  0.00  0.00     0.019 C 
HETATM    8  C   UNK     0     183.982 176.651 182.517  0.00  0.00     0.012 C 
HETATM    9  C   UNK     0     185.308 175.879 182.338  0.00  0.00     0.044 C 
HETATM   10  C   UNK     0     186.605 177.564 178.482  0.00  0.00     0.128 C 
HETATM   11  C   UNK     0     187.766 176.945 179.345  0.00  0.00     0.055 C 
HETATM   12  C   UNK     0     188.918 176.265 178.481  0.00  0.00    -0.021 C 
HETATM   13  C   UNK     0     187.191 176.030 180.447  0.00  0.00    -0.034 C 
HETATM   14  C   UNK     0     189.772 175.316 179.372  0.00  0.00     0.071 C 
HETATM   15  C   UNK     0     189.849 177.342 177.813  0.00  0.00     0.045 C 
HETATM   16  C   UNK     0     188.310 175.408 177.335  0.00  0.00     0.017 C 
HETATM   17  C   UNK     0     190.673 176.019 180.403  0.00  0.00     0.047 C 
HETATM   18  C   UNK     0     188.897 174.313 180.095  0.00  0.00     0.154 C 
HETATM   19  C   UNK     0     191.153 177.397 179.963  0.00  0.00     0.147 C 
HETATM   20  C   UNK     0     191.233 177.513 178.447  0.00  0.00     0.147 C 
HETATM   21  O   UNK     0     189.223 173.135 180.221  0.00  0.00    -0.293 OA
HETATM   22  C   UNK     0     187.667 174.812 180.741  0.00  0.00     0.057 C 
BRANCH   5  23
HETATM   23  C   UNK     0     182.445 177.816 180.838  0.00  0.00     0.084 C 
HETATM   24  C   UNK     0     181.508 176.861 181.595  0.00  0.00     0.049 C 
BRANCH  23  25
HETATM   25  O   UNK     0     182.033 179.154 181.147  0.00  0.00    -0.387 OA
HETATM   26  H   UNK     0     182.584 179.777 180.646  0.00  0.00     0.210 HD
ENDBRANCH  23  25
BRANCH  23  27
HETATM   27  C   UNK     0     182.315 177.612 179.304  0.00  0.00     0.152 C 
BRANCH  27  28
HETATM   28  O   UNK     0     182.260 178.885 178.653  0.00  0.00    -0.393 OA
HETATM   29  H   UNK     0     182.158 178.721 177.700  0.00  0.00     0.210 HD
ENDBRANCH  27  28
BRANCH  27  30
HETATM   30  C   UNK     0     181.079 176.796 178.878  0.00  0.00     0.037 C 
BRANCH  30  31
HETATM   31  C   UNK     0     180.246 177.526 177.809  0.00  0.00     0.040 C 
BRANCH  31  32
HETATM   32  C   UNK     0     178.722 177.489 178.050  0.00  0.00     0.051 C 
HETATM   33  C   UNK     0     178.424 177.834 179.513  0.00  0.00     0.045 C 
HETATM   34  C   UNK     0     177.959 178.442 177.125  0.00  0.00     0.045 C 
BRANCH  32  35
HETATM   35  O   UNK     0     178.259 176.159 177.809  0.00  0.00    -0.391 OA
HETATM   36  H   UNK     0     179.013 175.615 177.525  0.00  0.00     0.210 HD
ENDBRANCH  32  35
ENDBRANCH  31  32
ENDBRANCH  30  31
ENDBRANCH  27  30
ENDBRANCH  23  27
ENDBRANCH   5  23
BRANCH  10  37
HETATM   37  O   UNK     0     187.093 178.636 177.680  0.00  0.00    -0.395 OA
HETATM   38  H   UNK     0     187.201 179.411 178.257  0.00  0.00     0.210 HD
ENDBRANCH  10  37
BRANCH  19  39
HETATM   39  O   UNK     0     192.427 177.648 180.549  0.00  0.00    -0.393 OA
HETATM   40  H   UNK     0     192.327 178.360 181.202  0.00  0.00     0.210 HD
ENDBRANCH  19  39
BRANCH  20  41
HETATM   41  O   UNK     0     192.113 176.519 177.918  0.00  0.00    -0.393 OA
HETATM   42  H   UNK     0     191.632 175.674 177.912  0.00  0.00     0.210 HD
ENDBRANCH  20  41
ENDBRANCH   1   3
TORSDOF 12
ENDMDL
MODEL 5
REMARK VINA RESULT:      -8.8      1.814      8.921
REMARK  12 active torsions:
REMARK  status: ('A' for Active; 'I' for Inactive)
REMARK    1  A    between atoms: O_1  and  C_10 
REMARK    2  A    between atoms: O_2  and  C_17 
REMARK    3  A    between atoms: O_3  and  C_20 
REMARK    4  A    between atoms: O_4  and  C_27 
REMARK    5  A    between atoms: O_6  and  C_29 
REMARK    6  A    between atoms: O_7  and  C_28 
REMARK    7  A    between atoms: O_8  and  C_33 
REMARK    8  A    between atoms: C_11  and  C_20 
REMARK    9  A    between atoms: C_20  and  C_28 
REMARK   10  A    between atoms: C_28  and  C_31 
REMARK   11  A    between atoms: C_31  and  C_32 
REMARK   12  A    between atoms: C_32  and  C_33 
ROOT
HETATM    1  O   UNK     0     183.959 175.499 179.242  0.00  0.00    -0.384 OA
HETATM    2  H   UNK     0     183.116 175.095 178.992  0.00  0.00     0.211 HD
ENDROOT
BRANCH   1   3
HETATM    3  C   UNK     0     183.763 176.824 179.787  0.00  0.00     0.090 C 
HETATM    4  C   UNK     0     183.022 176.722 181.146  0.00  0.00    -0.000 C 
HETATM    5  C   UNK     0     181.662 176.132 180.689  0.00  0.00     0.034 C 
HETATM    6  C   UNK     0     183.824 175.798 182.072  0.00  0.00     0.045 C 
HETATM    7  C   UNK     0     182.822 178.101 181.833  0.00  0.00     0.019 C 
HETATM    8  C   UNK     0     181.366 176.872 179.364  0.00  0.00     0.012 C 
HETATM    9  C   UNK     0     182.704 177.482 178.891  0.00  0.00     0.044 C 
HETATM   10  C   UNK     0     185.262 176.318 182.280  0.00  0.00     0.128 C 
HETATM   11  C   UNK     0     186.045 176.623 180.950  0.00  0.00     0.055 C 
HETATM   12  C   UNK     0     187.476 177.282 181.181  0.00  0.00    -0.021 C 
HETATM   13  C   UNK     0     185.151 177.406 179.965  0.00  0.00    -0.034 C 
HETATM   14  C   UNK     0     187.984 177.945 179.868  0.00  0.00     0.071 C 
HETATM   15  C   UNK     0     188.526 176.220 181.677  0.00  0.00     0.045 C 
HETATM   16  C   UNK     0     187.399 178.393 182.266  0.00  0.00     0.017 C 
HETATM   17  C   UNK     0     188.384 176.965 178.750  0.00  0.00     0.047 C 
HETATM   18  C   UNK     0     186.961 178.918 179.318  0.00  0.00     0.154 C 
HETATM   19  C   UNK     0     188.913 175.630 179.262  0.00  0.00     0.147 C 
HETATM   20  C   UNK     0     189.554 175.763 180.637  0.00  0.00     0.147 C 
HETATM   21  O   UNK     0     187.284 180.004 178.842  0.00  0.00    -0.293 OA
HETATM   22  C   UNK     0     185.551 178.483 179.275  0.00  0.00     0.057 C 
BRANCH   5  23
HETATM   23  C   UNK     0     180.513 176.221 181.685  0.00  0.00     0.084 C 
HETATM   24  C   UNK     0     179.543 175.048 181.467  0.00  0.00     0.049 C 
BRANCH  23  25
HETATM   25  O   UNK     0     181.050 176.093 183.008  0.00  0.00    -0.387 OA
HETATM   26  H   UNK     0     181.950 175.731 182.950  0.00  0.00     0.210 HD
ENDBRANCH  23  25
BRANCH  23  27
HETATM   27  C   UNK     0     179.762 177.577 181.596  0.00  0.00     0.152 C 
BRANCH  27  28
HETATM   28  O   UNK     0     179.688 178.171 182.896  0.00  0.00    -0.393 OA
HETATM   29  H   UNK     0     179.140 177.590 183.451  0.00  0.00     0.210 HD
ENDBRANCH  27  28
BRANCH  27  30
HETATM   30  C   UNK     0     178.333 177.473 181.029  0.00  0.00     0.037 C 
BRANCH  30  31
HETATM   31  C   UNK     0     178.103 178.448 179.861  0.00  0.00     0.040 C 
BRANCH  31  32
HETATM   32  C   UNK     0     177.575 177.787 178.569  0.00  0.00     0.051 C 
HETATM   33  C   UNK     0     178.313 178.367 177.358  0.00  0.00     0.045 C 
HETATM   34  C   UNK     0     177.722 176.264 178.588  0.00  0.00     0.045 C 
BRANCH  32  35
HETATM   35  O   UNK     0     176.189 178.107 178.434  0.00  0.00    -0.391 OA
HETATM   36  H   UNK     0     176.109 178.932 177.927  0.00  0.00     0.210 HD
ENDBRANCH  32  35
ENDBRANCH  31  32
ENDBRANCH  30  31
ENDBRANCH  27  30
ENDBRANCH  23  27
ENDBRANCH   5  23
BRANCH  10  37
HETATM   37  O   UNK     0     185.953 175.342 183.055  0.00  0.00    -0.395 OA
HETATM   38  H   UNK     0     185.304 174.677 183.341  0.00  0.00     0.210 HD
ENDBRANCH  10  37
BRANCH  19  39
HETATM   39  O   UNK     0     189.853 175.118 178.322  0.00  0.00    -0.393 OA
HETATM   40  H   UNK     0     189.888 174.152 178.421  0.00  0.00     0.210 HD
ENDBRANCH  19  39
BRANCH  20  41
HETATM   41  O   UNK     0     190.625 176.707 180.596  0.00  0.00    -0.393 OA
HETATM   42  H   UNK     0     190.249 177.586 180.771  0.00  0.00     0.210 HD
ENDBRANCH  20  41
ENDBRANCH   1   3
TORSDOF 12
ENDMDL
MODEL 6
REMARK VINA RESULT:      -8.8      2.061      3.864
REMARK  12 active torsions:
REMARK  status: ('A' for Active; 'I' for Inactive)
REMARK    1  A    between atoms: O_1  and  C_10 
REMARK    2  A    between atoms: O_2  and  C_17 
REMARK    3  A    between atoms: O_3  and  C_20 
REMARK    4  A    between atoms: O_4  and  C_27 
REMARK    5  A    between atoms: O_6  and  C_29 
REMARK    6  A    between atoms: O_7  and  C_28 
REMARK    7  A    between atoms: O_8  and  C_33 
REMARK    8  A    between atoms: C_11  and  C_20 
REMARK    9  A    between atoms: C_20  and  C_28 
REMARK   10  A    between atoms: C_28  and  C_31 
REMARK   11  A    between atoms: C_31  and  C_32 
REMARK   12  A    between atoms: C_32  and  C_33 
ROOT
HETATM    1  O   UNK     0     183.615 174.858 179.353  0.00  0.00    -0.384 OA
HETATM    2  H   UNK     0     183.456 174.922 178.400  0.00  0.00     0.211 HD
ENDROOT
BRANCH   1   3
HETATM    3  C   UNK     0     183.240 176.080 180.028  0.00  0.00     0.090 C 
HETATM    4  C   UNK     0     183.723 177.300 179.202  0.00  0.00    -0.000 C 
HETATM    5  C   UNK     0     185.261 177.107 179.274  0.00  0.00     0.034 C 
HETATM    6  C   UNK     0     183.145 177.190 177.785  0.00  0.00     0.045 C 
HETATM    7  C   UNK     0     183.309 178.661 179.829  0.00  0.00     0.019 C 
HETATM    8  C   UNK     0     185.505 176.636 180.726  0.00  0.00     0.012 C 
HETATM    9  C   UNK     0     184.142 176.153 181.269  0.00  0.00     0.044 C 
HETATM   10  C   UNK     0     181.604 177.131 177.807  0.00  0.00     0.128 C 
HETATM   11  C   UNK     0     181.006 176.032 178.762  0.00  0.00     0.055 C 
HETATM   12  C   UNK     0     179.418 176.071 178.875  0.00  0.00    -0.021 C 
HETATM   13  C   UNK     0     181.729 176.051 180.126  0.00  0.00    -0.034 C 
HETATM   14  C   UNK     0     178.947 175.282 180.131  0.00  0.00     0.071 C 
HETATM   15  C   UNK     0     178.735 175.473 177.589  0.00  0.00     0.045 C 
HETATM   16  C   UNK     0     178.916 177.534 179.025  0.00  0.00     0.017 C 
HETATM   17  C   UNK     0     179.112 173.754 180.048  0.00  0.00     0.047 C 
HETATM   18  C   UNK     0     179.646 175.779 181.380  0.00  0.00     0.154 C 
HETATM   19  C   UNK     0     179.001 173.200 178.632  0.00  0.00     0.147 C 
HETATM   20  C   UNK     0     178.126 174.076 177.746  0.00  0.00     0.147 C 
HETATM   21  O   UNK     0     179.053 175.921 182.447  0.00  0.00    -0.293 OA
HETATM   22  C   UNK     0     181.104 176.000 181.311  0.00  0.00     0.057 C 
BRANCH   5  23
HETATM   23  C   UNK     0     186.116 178.306 178.889  0.00  0.00     0.084 C 
HETATM   24  C   UNK     0     186.659 178.123 177.462  0.00  0.00     0.049 C 
BRANCH  23  25
HETATM   25  O   UNK     0     185.284 179.473 178.884  0.00  0.00    -0.387 OA
HETATM   26  H   UNK     0     185.847 180.262 178.811  0.00  0.00     0.210 HD
ENDBRANCH  23  25
BRANCH  23  27
HETATM   27  C   UNK     0     187.279 178.544 179.891  0.00  0.00     0.152 C 
BRANCH  27  28
HETATM   28  O   UNK     0     187.303 179.922 180.279  0.00  0.00    -0.393 OA
HETATM   29  H   UNK     0     186.403 180.161 180.558  0.00  0.00     0.210 HD
ENDBRANCH  27  28
BRANCH  27  30
HETATM   30  C   UNK     0     188.671 178.170 179.346  0.00  0.00     0.037 C 
BRANCH  30  31
HETATM   31  C   UNK     0     189.062 176.725 179.706  0.00  0.00     0.040 C 
BRANCH  31  32
HETATM   32  C   UNK     0     189.898 176.001 178.629  0.00  0.00     0.051 C 
HETATM   33  C   UNK     0     190.923 175.085 179.306  0.00  0.00     0.045 C 
HETATM   34  C   UNK     0     189.031 175.189 177.663  0.00  0.00     0.045 C 
BRANCH  32  35
HETATM   35  O   UNK     0     190.614 176.983 177.879  0.00  0.00    -0.391 OA
HETATM   36  H   UNK     0     190.083 177.796 177.845  0.00  0.00     0.210 HD
ENDBRANCH  32  35
ENDBRANCH  31  32
ENDBRANCH  30  31
ENDBRANCH  27  30
ENDBRANCH  23  27
ENDBRANCH   5  23
BRANCH  10  37
HETATM   37  O   UNK     0     181.172 176.918 176.466  0.00  0.00    -0.395 OA
HETATM   38  H   UNK     0     180.291 176.508 176.500  0.00  0.00     0.210 HD
ENDBRANCH  10  37
BRANCH  19  39
HETATM   39  O   UNK     0     178.475 171.878 178.697  0.00  0.00    -0.393 OA
HETATM   40  H   UNK     0     178.780 171.469 179.525  0.00  0.00     0.210 HD
ENDBRANCH  19  39
BRANCH  20  41
HETATM   41  O   UNK     0     176.817 174.200 178.306  0.00  0.00    -0.393 OA
HETATM   42  H   UNK     0     176.176 174.006 177.602  0.00  0.00     0.210 HD
ENDBRANCH  20  41
ENDBRANCH   1   3
TORSDOF 12
ENDMDL
MODEL 7
REMARK VINA RESULT:      -8.8     33.725     38.017
REMARK  12 active torsions:
REMARK  status: ('A' for Active; 'I' for Inactive)
REMARK    1  A    between atoms: O_1  and  C_10 
REMARK    2  A    between atoms: O_2  and  C_17 
REMARK    3  A    between atoms: O_3  and  C_20 
REMARK    4  A    between atoms: O_4  and  C_27 
REMARK    5  A    between atoms: O_6  and  C_29 
REMARK    6  A    between atoms: O_7  and  C_28 
REMARK    7  A    between atoms: O_8  and  C_33 
REMARK    8  A    between atoms: C_11  and  C_20 
REMARK    9  A    between atoms: C_20  and  C_28 
REMARK   10  A    between atoms: C_28  and  C_31 
REMARK   11  A    between atoms: C_31  and  C_32 
REMARK   12  A    between atoms: C_32  and  C_33 
ROOT
HETATM    1  O   UNK     0     155.422 190.070 156.810  0.00  0.00    -0.384 OA
HETATM    2  H   UNK     0     156.310 190.390 156.592  0.00  0.00     0.211 HD
ENDROOT
BRANCH   1   3
HETATM    3  C   UNK     0     155.202 188.741 156.286  0.00  0.00     0.090 C 
HETATM    4  C   UNK     0     155.001 187.746 157.458  0.00  0.00    -0.000 C 
HETATM    5  C   UNK     0     156.391 187.821 158.142  0.00  0.00     0.034 C 
HETATM    6  C   UNK     0     153.845 188.251 158.334  0.00  0.00     0.045 C 
HETATM    7  C   UNK     0     154.698 186.298 156.982  0.00  0.00     0.019 C 
HETATM    8  C   UNK     0     157.381 187.888 156.957  0.00  0.00     0.012 C 
HETATM    9  C   UNK     0     156.557 188.297 155.716  0.00  0.00     0.044 C 
HETATM   10  C   UNK     0     152.543 188.396 157.520  0.00  0.00     0.128 C 
HETATM   11  C   UNK     0     152.686 189.248 156.205  0.00  0.00     0.055 C 
HETATM   12  C   UNK     0     151.368 189.278 155.310  0.00  0.00    -0.021 C 
HETATM   13  C   UNK     0     153.955 188.835 155.430  0.00  0.00    -0.034 C 
HETATM   14  C   UNK     0     151.708 189.744 153.865  0.00  0.00     0.071 C 
HETATM   15  C   UNK     0     150.274 190.225 155.928  0.00  0.00     0.045 C 
HETATM   16  C   UNK     0     150.743 187.858 155.208  0.00  0.00     0.017 C 
HETATM   17  C   UNK     0     152.087 191.230 153.727  0.00  0.00     0.047 C 
HETATM   18  C   UNK     0     152.816 188.903 153.267  0.00  0.00     0.154 C 
HETATM   19  C   UNK     0     151.414 192.134 154.753  0.00  0.00     0.147 C 
HETATM   20  C   UNK     0     150.079 191.569 155.220  0.00  0.00     0.147 C 
HETATM   21  O   UNK     0     152.791 188.529 152.096  0.00  0.00    -0.293 OA
HETATM   22  C   UNK     0     153.995 188.619 154.108  0.00  0.00     0.057 C 
BRANCH   5  23
HETATM   23  C   UNK     0     156.724 186.711 159.130  0.00  0.00     0.084 C 
HETATM   24  C   UNK     0     155.782 186.791 160.342  0.00  0.00     0.049 C 
BRANCH  23  25
HETATM   25  O   UNK     0     156.491 185.450 158.489  0.00  0.00    -0.387 OA
HETATM   26  H   UNK     0     155.542 185.361 158.304  0.00  0.00     0.210 HD
ENDBRANCH  23  25
BRANCH  23  27
HETATM   27  C   UNK     0     158.208 186.756 159.585  0.00  0.00     0.152 C 
BRANCH  27  28
HETATM   28  O   UNK     0     158.535 185.545 160.275  0.00  0.00    -0.393 OA
HETATM   29  H   UNK     0     157.867 185.416 160.969  0.00  0.00     0.210 HD
ENDBRANCH  27  28
BRANCH  27  30
HETATM   30  C   UNK     0     158.553 187.945 160.502  0.00  0.00     0.037 C 
BRANCH  30  31
HETATM   31  C   UNK     0     160.064 188.238 160.524  0.00  0.00     0.040 C 
BRANCH  31  32
HETATM   32  C   UNK     0     160.758 187.928 161.867  0.00  0.00     0.051 C 
HETATM   33  C   UNK     0     162.260 188.202 161.745  0.00  0.00     0.045 C 
HETATM   34  C   UNK     0     160.174 188.738 163.029  0.00  0.00     0.045 C 
BRANCH  32  35
HETATM   35  O   UNK     0     160.586 186.539 162.153  0.00  0.00    -0.391 OA
HETATM   36  H   UNK     0     160.654 186.040 161.322  0.00  0.00     0.210 HD
ENDBRANCH  32  35
ENDBRANCH  31  32
ENDBRANCH  30  31
ENDBRANCH  27  30
ENDBRANCH  23  27
ENDBRANCH   5  23
BRANCH  10  37
HETATM   37  O   UNK     0     151.569 188.971 158.386  0.00  0.00    -0.395 OA
HETATM   38  H   UNK     0     151.195 189.748 157.937  0.00  0.00     0.210 HD
ENDBRANCH  10  37
BRANCH  19  39
HETATM   39  O   UNK     0     151.233 193.425 154.178  0.00  0.00    -0.393 OA
HETATM   40  H   UNK     0     150.897 194.022 154.867  0.00  0.00     0.210 HD
ENDBRANCH  19  39
BRANCH  20  41
HETATM   41  O   UNK     0     149.201 191.386 154.108  0.00  0.00    -0.393 OA
HETATM   42  H   UNK     0     149.635 191.764 153.325  0.00  0.00     0.210 HD
ENDBRANCH  20  41
ENDBRANCH   1   3
TORSDOF 12
ENDMDL
MODEL 8
REMARK VINA RESULT:      -8.4     13.228     17.807
REMARK  12 active torsions:
REMARK  status: ('A' for Active; 'I' for Inactive)
REMARK    1  A    between atoms: O_1  and  C_10 
REMARK    2  A    between atoms: O_2  and  C_17 
REMARK    3  A    between atoms: O_3  and  C_20 
REMARK    4  A    between atoms: O_4  and  C_27 
REMARK    5  A    between atoms: O_6  and  C_29 
REMARK    6  A    between atoms: O_7  and  C_28 
REMARK    7  A    between atoms: O_8  and  C_33 
REMARK    8  A    between atoms: C_11  and  C_20 
REMARK    9  A    between atoms: C_20  and  C_28 
REMARK   10  A    between atoms: C_28  and  C_31 
REMARK   11  A    between atoms: C_31  and  C_32 
REMARK   12  A    between atoms: C_32  and  C_33 
ROOT
HETATM    1  O   UNK     0     170.861 184.172 172.894  0.00  0.00    -0.384 OA
HETATM    2  H   UNK     0     171.706 184.423 172.495  0.00  0.00     0.211 HD
ENDROOT
BRANCH   1   3
HETATM    3  C   UNK     0     169.883 183.835 171.884  0.00  0.00     0.090 C 
HETATM    4  C   UNK     0     170.373 184.334 170.500  0.00  0.00    -0.000 C 
HETATM    5  C   UNK     0     170.385 185.868 170.733  0.00  0.00     0.034 C 
HETATM    6  C   UNK     0     171.759 183.733 170.226  0.00  0.00     0.045 C 
HETATM    7  C   UNK     0     169.407 183.960 169.341  0.00  0.00     0.019 C 
HETATM    8  C   UNK     0     169.110 186.122 171.570  0.00  0.00     0.012 C 
HETATM    9  C   UNK     0     168.684 184.756 172.152  0.00  0.00     0.044 C 
HETATM   10  C   UNK     0     171.723 182.192 170.261  0.00  0.00     0.128 C 
HETATM   11  C   UNK     0     171.075 181.583 171.560  0.00  0.00     0.055 C 
HETATM   12  C   UNK     0     170.925 179.998 171.523  0.00  0.00    -0.021 C 
HETATM   13  C   UNK     0     169.767 182.325 171.909  0.00  0.00    -0.034 C 
HETATM   14  C   UNK     0     169.907 179.527 172.602  0.00  0.00     0.071 C 
HETATM   15  C   UNK     0     172.307 179.283 171.752  0.00  0.00     0.045 C 
HETATM   16  C   UNK     0     170.389 179.531 170.140  0.00  0.00     0.017 C 
HETATM   17  C   UNK     0     170.388 179.656 174.058  0.00  0.00     0.047 C 
HETATM   18  C   UNK     0     168.586 180.255 172.460  0.00  0.00     0.154 C 
HETATM   19  C   UNK     0     171.897 179.512 174.223  0.00  0.00     0.147 C 
HETATM   20  C   UNK     0     172.507 178.645 173.130  0.00  0.00     0.147 C 
HETATM   21  O   UNK     0     167.507 179.680 172.590  0.00  0.00    -0.293 OA
HETATM   22  C   UNK     0     168.624 181.716 172.255  0.00  0.00     0.057 C 
BRANCH   5  23
HETATM   23  C   UNK     0     170.462 186.745 169.491  0.00  0.00     0.084 C 
HETATM   24  C   UNK     0     169.045 187.041 168.973  0.00  0.00     0.049 C 
BRANCH  23  25
HETATM   25  O   UNK     0     171.055 187.998 169.857  0.00  0.00    -0.387 OA
HETATM   26  H   UNK     0     170.586 188.355 170.629  0.00  0.00     0.210 HD
ENDBRANCH  23  25
BRANCH  23  27
HETATM   27  C   UNK     0     171.331 186.106 168.374  0.00  0.00     0.152 C 
BRANCH  27  28
HETATM   28  O   UNK     0     172.680 186.570 168.491  0.00  0.00    -0.393 OA
HETATM   29  H   UNK     0     172.912 187.005 167.653  0.00  0.00     0.210 HD
ENDBRANCH  27  28
BRANCH  27  30
HETATM   30  C   UNK     0     170.840 186.401 166.943  0.00  0.00     0.037 C 
BRANCH  30  31
HETATM   31  C   UNK     0     171.281 185.314 165.946  0.00  0.00     0.040 C 
BRANCH  31  32
HETATM   32  C   UNK     0     170.150 184.372 165.483  0.00  0.00     0.051 C 
HETATM   33  C   UNK     0     170.044 184.408 163.955  0.00  0.00     0.045 C 
HETATM   34  C   UNK     0     170.357 182.931 165.956  0.00  0.00     0.045 C 
BRANCH  32  35
HETATM   35  O   UNK     0     168.916 184.851 166.020  0.00  0.00    -0.391 OA
HETATM   36  H   UNK     0     168.644 185.638 165.519  0.00  0.00     0.210 HD
ENDBRANCH  32  35
ENDBRANCH  31  32
ENDBRANCH  30  31
ENDBRANCH  27  30
ENDBRANCH  23  27
ENDBRANCH   5  23
BRANCH  10  37
HETATM   37  O   UNK     0     173.064 181.736 170.110  0.00  0.00    -0.395 OA
HETATM   38  H   UNK     0     173.370 182.004 169.226  0.00  0.00     0.210 HD
ENDBRANCH  10  37
BRANCH  19  39
HETATM   39  O   UNK     0     172.167 178.957 175.507  0.00  0.00    -0.393 OA
HETATM   40  H   UNK     0     173.009 179.322 175.826  0.00  0.00     0.210 HD
ENDBRANCH  19  39
BRANCH  20  41
HETATM   41  O   UNK     0     171.908 177.347 173.133  0.00  0.00    -0.393 OA
HETATM   42  H   UNK     0     171.645 177.143 172.220  0.00  0.00     0.210 HD
ENDBRANCH  20  41
ENDBRANCH   1   3
TORSDOF 12
ENDMDL
MODEL 9
REMARK VINA RESULT:      -8.3     13.159     17.377
REMARK  12 active torsions:
REMARK  status: ('A' for Active; 'I' for Inactive)
REMARK    1  A    between atoms: O_1  and  C_10 
REMARK    2  A    between atoms: O_2  and  C_17 
REMARK    3  A    between atoms: O_3  and  C_20 
REMARK    4  A    between atoms: O_4  and  C_27 
REMARK    5  A    between atoms: O_6  and  C_29 
REMARK    6  A    between atoms: O_7  and  C_28 
REMARK    7  A    between atoms: O_8  and  C_33 
REMARK    8  A    between atoms: C_11  and  C_20 
REMARK    9  A    between atoms: C_20  and  C_28 
REMARK   10  A    between atoms: C_28  and  C_31 
REMARK   11  A    between atoms: C_31  and  C_32 
REMARK   12  A    between atoms: C_32  and  C_33 
ROOT
HETATM    1  O   UNK     0     169.557 182.455 170.523  0.00  0.00    -0.384 OA
HETATM    2  H   UNK     0     169.165 183.011 169.835  0.00  0.00     0.211 HD
ENDROOT
BRANCH   1   3
HETATM    3  C   UNK     0     170.243 183.253 171.514  0.00  0.00     0.090 C 
HETATM    4  C   UNK     0     171.646 182.651 171.786  0.00  0.00    -0.000 C 
HETATM    5  C   UNK     0     171.259 181.277 172.392  0.00  0.00     0.034 C 
HETATM    6  C   UNK     0     172.404 182.556 170.455  0.00  0.00     0.045 C 
HETATM    7  C   UNK     0     172.479 183.485 172.800  0.00  0.00     0.019 C 
HETATM    8  C   UNK     0     170.043 181.600 173.290  0.00  0.00     0.012 C 
HETATM    9  C   UNK     0     169.513 182.979 172.836  0.00  0.00     0.044 C 
HETATM   10  C   UNK     0     172.531 183.937 169.778  0.00  0.00     0.128 C 
HETATM   11  C   UNK     0     171.172 184.713 169.616  0.00  0.00     0.055 C 
HETATM   12  C   UNK     0     171.337 186.188 169.038  0.00  0.00    -0.021 C 
HETATM   13  C   UNK     0     170.352 184.643 170.921  0.00  0.00    -0.034 C 
HETATM   14  C   UNK     0     170.054 187.023 169.316  0.00  0.00     0.071 C 
HETATM   15  C   UNK     0     171.632 186.171 167.492  0.00  0.00     0.045 C 
HETATM   16  C   UNK     0     172.527 186.915 169.725  0.00  0.00     0.017 C 
HETATM   17  C   UNK     0     168.816 186.616 168.498  0.00  0.00     0.047 C 
HETATM   18  C   UNK     0     169.694 186.995 170.787  0.00  0.00     0.154 C 
HETATM   19  C   UNK     0     169.148 186.039 167.126  0.00  0.00     0.147 C 
HETATM   20  C   UNK     0     170.465 186.578 166.587  0.00  0.00     0.147 C 
HETATM   21  O   UNK     0     169.299 187.996 171.381  0.00  0.00    -0.293 OA
HETATM   22  C   UNK     0     169.736 185.694 171.482  0.00  0.00     0.057 C 
BRANCH   5  23
HETATM   23  C   UNK     0     172.356 180.524 173.131  0.00  0.00     0.084 C 
HETATM   24  C   UNK     0     173.382 179.977 172.125  0.00  0.00     0.049 C 
BRANCH  23  25
HETATM   25  O   UNK     0     173.044 181.449 173.984  0.00  0.00    -0.387 OA
HETATM   26  H   UNK     0     172.403 181.853 174.592  0.00  0.00     0.210 HD
ENDBRANCH  23  25
BRANCH  23  27
HETATM   27  C   UNK     0     171.791 179.379 174.014  0.00  0.00     0.152 C 
BRANCH  27  28
HETATM   28  O   UNK     0     172.660 179.161 175.131  0.00  0.00    -0.393 OA
HETATM   29  H   UNK     0     172.213 179.510 175.920  0.00  0.00     0.210 HD
ENDBRANCH  27  28
BRANCH  27  30
HETATM   30  C   UNK     0     171.608 178.040 173.274  0.00  0.00     0.037 C 
BRANCH  30  31
HETATM   31  C   UNK     0     170.166 177.854 172.766  0.00  0.00     0.040 C 
BRANCH  31  32
HETATM   32  C   UNK     0     170.060 177.363 171.306  0.00  0.00     0.051 C 
HETATM   33  C   UNK     0     168.588 177.136 170.947  0.00  0.00     0.045 C 
HETATM   34  C   UNK     0     170.695 178.339 170.312  0.00  0.00     0.045 C 
BRANCH  32  35
HETATM   35  O   UNK     0     170.736 176.109 171.203  0.00  0.00    -0.391 OA
HETATM   36  H   UNK     0     170.976 175.811 172.096  0.00  0.00     0.210 HD
ENDBRANCH  32  35
ENDBRANCH  31  32
ENDBRANCH  30  31
ENDBRANCH  27  30
ENDBRANCH  23  27
ENDBRANCH   5  23
BRANCH  10  37
HETATM   37  O   UNK     0     173.144 183.727 168.509  0.00  0.00    -0.395 OA
HETATM   38  H   UNK     0     172.698 182.975 168.085  0.00  0.00     0.210 HD
ENDBRANCH  10  37
BRANCH  19  39
HETATM   39  O   UNK     0     168.082 186.344 166.230  0.00  0.00    -0.393 OA
HETATM   40  H   UNK     0     167.255 186.370 166.739  0.00  0.00     0.210 HD
ENDBRANCH  19  39
BRANCH  20  41
HETATM   41  O   UNK     0     170.421 188.003 166.498  0.00  0.00    -0.393 OA
HETATM   42  H   UNK     0     170.796 188.256 165.637  0.00  0.00     0.210 HD
ENDBRANCH  20  41
ENDBRANCH   1   3
TORSDOF 12
ENDMDL
