REMARK VINA RESULT:      -5.1     20.677     21.457
REMARK  5 active torsions:
REMARK  status: ('A' for Active; 'I' for Inactive)
REMARK    1  A    between atoms: C_3  and  O_1 
REMARK    2  A    between atoms: C_4  and  O_14 
REMARK    3  A    between atoms: C_7  and  C_8 
REMARK    4  A    between atoms: C_9  and  C_10 
REMARK    5  A    between atoms: C_10  and  O_12 
ROOT
ATOM      1  C   LIG     1     186.195 184.274 173.478  0.00  0.00     0.162 A 
ATOM      2  C   LIG     1     186.586 185.175 174.469  0.00  0.00     0.158 A 
ATOM      3  C   LIG     1     185.677 185.569 175.451  0.00  0.00     0.050 A 
ATOM      4  C   LIG     1     184.377 185.062 175.441  0.00  0.00     0.012 A 
ATOM      5  C   LIG     1     183.987 184.162 174.451  0.00  0.00    -0.021 A 
ATOM      6  C   LIG     1     184.895 183.768 173.469  0.00  0.00     0.057 A 
ENDROOT
BRANCH   5   7
ATOM      7  C   LIG     1     182.632 183.634 174.442  0.00  0.00     0.015 C 
ATOM      8  C   LIG     1     181.735 183.799 173.444  0.00  0.00     0.092 C 
BRANCH   8   9
ATOM      9  C   LIG     1     180.389 183.200 173.552  0.00  0.00     0.330 C 
ATOM     10  O   LIG     1     180.044 182.112 173.124  0.00  0.00    -0.246 OA
BRANCH   9  11
ATOM     11  O   LIG     1     179.583 184.063 174.213  0.00  0.00    -0.478 OA
ATOM     12  H   LIG     1     179.555 183.875 175.176  0.00  0.00     0.295 HD
ENDBRANCH   9  11
ENDBRANCH   8   9
ENDBRANCH   5   7
BRANCH   1  13
ATOM     13  O   LIG     1     187.074 183.883 172.513  0.00  0.00    -0.491 OA
ATOM     14  C   LIG     1     186.973 184.528 171.245  0.00  0.00     0.277 C 
ENDBRANCH   1  13
BRANCH   2  15
ATOM     15  O   LIG     1     187.852 185.678 174.488  0.00  0.00    -0.503 OA
ATOM     16  H   LIG     1     188.452 185.011 174.866  0.00  0.00     0.292 HD
ENDBRANCH   2  15
TORSDOF 5
