MODEL 1
REMARK VINA RESULT:      -8.0      0.000      0.000
REMARK  11 active torsions:
REMARK  status: ('A' for Active; 'I' for Inactive)
REMARK    1  A    between atoms: O_2  and  C_16 
REMARK    2  A    between atoms: O_2  and  C_18 
REMARK    3  A    between atoms: O_3  and  C_12 
REMARK    4  A    between atoms: O_4  and  C_13 
REMARK    5  A    between atoms: O_5  and  C_14 
REMARK    6  A    between atoms: O_6  and  C_17 
REMARK    7  A    between atoms: O_8  and  C_23 
REMARK    8  A    between atoms: O_10  and  C_30 
REMARK    9  A    between atoms: O_11  and  C_32 
REMARK   10  A    between atoms: C_15  and  C_17 
REMARK   11  A    between atoms: C_25  and  C_27 
ROOT
HETATM    1  O   UNK     0     -13.653  43.828  40.083  0.00  0.00    -0.348 OA
HETATM    2  C   UNK     0     -12.033  41.469  39.844  0.00  0.00     0.183 C 
HETATM    3  C   UNK     0     -13.296  41.513  40.704  0.00  0.00     0.180 C 
HETATM    4  C   UNK     0     -11.470  42.872  39.614  0.00  0.00     0.205 C 
HETATM    5  C   UNK     0     -14.285  42.549  40.164  0.00  0.00     0.179 C 
HETATM    6  C   UNK     0     -12.562  43.842  39.164  0.00  0.00     0.298 C 
ENDROOT
BRANCH   5   7
HETATM    7  C   UNK     0     -15.502  42.694  41.072  0.00  0.00     0.198 C 
BRANCH   7   8
HETATM    8  O   UNK     0     -16.510  41.809  40.620  0.00  0.00    -0.398 OA
HETATM    9  H   UNK     0     -16.075  41.099  40.115  0.00  0.00     0.209 HD
ENDBRANCH   7   8
ENDBRANCH   5   7
BRANCH   6  10
HETATM   10  O   UNK     0     -11.994  45.150  39.110  0.00  0.00    -0.318 OA
BRANCH  10  11
HETATM   11  C   UNK     0     -12.194  45.856  37.961  0.00  0.00     0.077 A 
HETATM   12  C   UNK     0     -12.706  45.215  36.831  0.00  0.00     0.075 A 
HETATM   13  C   UNK     0     -12.909  45.939  35.657  0.00  0.00     0.095 A 
HETATM   14  O   UNK     0     -13.414  45.256  34.579  0.00  0.00    -0.309 OA
HETATM   15  C   UNK     0     -12.599  47.298  35.613  0.00  0.00     0.081 A 
HETATM   16  C   UNK     0     -13.632  45.952  33.400  0.00  0.00     0.090 A 
HETATM   17  C   UNK     0     -13.368  47.257  33.232  0.00  0.00     0.094 A 
HETATM   18  C   UNK     0     -12.821  48.036  34.360  0.00  0.00     0.190 A 
HETATM   19  O   UNK     0     -12.568  49.228  34.251  0.00  0.00    -0.287 OA
HETATM   20  C   UNK     0     -12.086  47.942  36.741  0.00  0.00     0.085 A 
HETATM   21  C   UNK     0     -11.885  47.215  37.916  0.00  0.00     0.074 A 
BRANCH  16  22
HETATM   22  C   UNK     0     -14.172  45.120  32.304  0.00  0.00     0.001 A 
HETATM   23  C   UNK     0     -14.985  44.022  32.594  0.00  0.00     0.053 A 
HETATM   24  C   UNK     0     -15.496  43.238  31.558  0.00  0.00     0.099 A 
HETATM   25  C   UNK     0     -15.195  43.549  30.233  0.00  0.00     0.098 A 
HETATM   26  C   UNK     0     -14.383  44.646  29.942  0.00  0.00     0.040 A 
HETATM   27  C   UNK     0     -13.872  45.430  30.975  0.00  0.00     0.017 A 
BRANCH  24  28
HETATM   28  O   UNK     0     -16.287  42.168  31.855  0.00  0.00    -0.358 OA
HETATM   29  H   UNK     0     -15.918  41.724  32.638  0.00  0.00     0.217 HD
ENDBRANCH  24  28
BRANCH  25  30
HETATM   30  O   UNK     0     -15.689  42.792  29.215  0.00  0.00    -0.358 OA
HETATM   31  H   UNK     0     -15.278  43.077  28.380  0.00  0.00     0.217 HD
ENDBRANCH  25  30
ENDBRANCH  16  22
BRANCH  20  32
HETATM   32  O   UNK     0     -11.768  49.266  36.748  0.00  0.00    -0.360 OA
HETATM   33  H   UNK     0     -12.495  49.794  36.385  0.00  0.00     0.217 HD
ENDBRANCH  20  32
ENDBRANCH  10  11
ENDBRANCH   6  10
BRANCH   3  34
HETATM   34  O   UNK     0     -13.913  40.227  40.701  0.00  0.00    -0.390 OA
HETATM   35  H   UNK     0     -14.056  39.962  41.626  0.00  0.00     0.210 HD
ENDBRANCH   3  34
BRANCH   4  36
HETATM   36  O   UNK     0     -10.470  42.820  38.597  0.00  0.00    -0.388 OA
HETATM   37  H   UNK     0      -9.620  43.072  38.998  0.00  0.00     0.210 HD
ENDBRANCH   4  36
BRANCH   2  38
HETATM   38  O   UNK     0     -11.062  40.673  40.525  0.00  0.00    -0.390 OA
HETATM   39  H   UNK     0     -11.088  39.783  40.132  0.00  0.00     0.210 HD
ENDBRANCH   2  38
TORSDOF 11
ENDMDL
MODEL 2
REMARK VINA RESULT:      -7.8     25.334     30.177
REMARK  11 active torsions:
REMARK  status: ('A' for Active; 'I' for Inactive)
REMARK    1  A    between atoms: O_2  and  C_16 
REMARK    2  A    between atoms: O_2  and  C_18 
REMARK    3  A    between atoms: O_3  and  C_12 
REMARK    4  A    between atoms: O_4  and  C_13 
REMARK    5  A    between atoms: O_5  and  C_14 
REMARK    6  A    between atoms: O_6  and  C_17 
REMARK    7  A    between atoms: O_8  and  C_23 
REMARK    8  A    between atoms: O_10  and  C_30 
REMARK    9  A    between atoms: O_11  and  C_32 
REMARK   10  A    between atoms: C_15  and  C_17 
REMARK   11  A    between atoms: C_25  and  C_27 
ROOT
HETATM    1  O   UNK     0     -10.629  41.288   8.432  0.00  0.00    -0.348 OA
HETATM    2  C   UNK     0     -10.523  42.057  11.198  0.00  0.00     0.183 C 
HETATM    3  C   UNK     0     -10.813  43.057  10.078  0.00  0.00     0.180 C 
HETATM    4  C   UNK     0      -9.788  40.827  10.663  0.00  0.00     0.205 C 
HETATM    5  C   UNK     0     -11.462  42.359   8.881  0.00  0.00     0.179 C 
HETATM    6  C   UNK     0     -10.473  40.267   9.417  0.00  0.00     0.298 C 
ENDROOT
BRANCH   5   7
HETATM    7  C   UNK     0     -11.654  43.314   7.707  0.00  0.00     0.198 C 
BRANCH   7   8
HETATM    8  O   UNK     0     -10.977  44.524   7.996  0.00  0.00    -0.398 OA
HETATM    9  H   UNK     0     -10.026  44.369   7.866  0.00  0.00     0.209 HD
ENDBRANCH   7   8
ENDBRANCH   5   7
BRANCH   6  10
HETATM   10  O   UNK     0      -9.655  39.219   8.898  0.00  0.00    -0.318 OA
BRANCH  10  11
HETATM   11  C   UNK     0     -10.226  37.984   8.815  0.00  0.00     0.077 A 
HETATM   12  C   UNK     0     -10.376  37.369   7.571  0.00  0.00     0.075 A 
HETATM   13  C   UNK     0     -10.961  36.106   7.489  0.00  0.00     0.095 A 
HETATM   14  O   UNK     0     -11.082  35.552   6.239  0.00  0.00    -0.309 OA
HETATM   15  C   UNK     0     -11.394  35.461   8.647  0.00  0.00     0.081 A 
HETATM   16  C   UNK     0     -11.654  34.294   6.127  0.00  0.00     0.090 A 
HETATM   17  C   UNK     0     -12.114  33.577   7.165  0.00  0.00     0.094 A 
HETATM   18  C   UNK     0     -12.009  34.130   8.530  0.00  0.00     0.190 A 
HETATM   19  O   UNK     0     -12.414  33.510   9.503  0.00  0.00    -0.287 OA
HETATM   20  C   UNK     0     -11.246  36.073   9.894  0.00  0.00     0.085 A 
HETATM   21  C   UNK     0     -10.660  37.338   9.973  0.00  0.00     0.074 A 
BRANCH  16  22
HETATM   22  C   UNK     0     -11.740  33.795   4.739  0.00  0.00     0.001 A 
HETATM   23  C   UNK     0     -10.596  33.324   4.092  0.00  0.00     0.053 A 
HETATM   24  C   UNK     0     -10.678  32.852   2.781  0.00  0.00     0.099 A 
HETATM   25  C   UNK     0     -11.903  32.852   2.115  0.00  0.00     0.098 A 
HETATM   26  C   UNK     0     -13.047  33.322   2.760  0.00  0.00     0.040 A 
HETATM   27  C   UNK     0     -12.966  33.793   4.069  0.00  0.00     0.017 A 
BRANCH  24  28
HETATM   28  O   UNK     0      -9.553  32.397   2.160  0.00  0.00    -0.358 OA
HETATM   29  H   UNK     0      -9.250  33.079   1.538  0.00  0.00     0.217 HD
ENDBRANCH  24  28
BRANCH  25  30
HETATM   30  O   UNK     0     -11.995  32.393   0.836  0.00  0.00    -0.358 OA
HETATM   31  H   UNK     0     -12.278  33.122   0.257  0.00  0.00     0.217 HD
ENDBRANCH  25  30
ENDBRANCH  16  22
BRANCH  20  32
HETATM   32  O   UNK     0     -11.653  35.485  11.052  0.00  0.00    -0.360 OA
HETATM   33  H   UNK     0     -12.325  36.027  11.493  0.00  0.00     0.217 HD
ENDBRANCH  20  32
ENDBRANCH  10  11
ENDBRANCH   6  10
BRANCH   3  34
HETATM   34  O   UNK     0     -11.692  44.068  10.567  0.00  0.00    -0.390 OA
HETATM   35  H   UNK     0     -12.331  43.646  11.166  0.00  0.00     0.210 HD
ENDBRANCH   3  34
BRANCH   4  36
HETATM   36  O   UNK     0      -9.779  39.809  11.664  0.00  0.00    -0.388 OA
HETATM   37  H   UNK     0     -10.226  40.159  12.454  0.00  0.00     0.210 HD
ENDBRANCH   4  36
BRANCH   2  38
HETATM   38  O   UNK     0      -9.710  42.709  12.174  0.00  0.00    -0.390 OA
HETATM   39  H   UNK     0      -8.845  42.884  11.763  0.00  0.00     0.210 HD
ENDBRANCH   2  38
TORSDOF 11
ENDMDL
MODEL 3
REMARK VINA RESULT:      -7.7     20.187     26.763
REMARK  11 active torsions:
REMARK  status: ('A' for Active; 'I' for Inactive)
REMARK    1  A    between atoms: O_2  and  C_16 
REMARK    2  A    between atoms: O_2  and  C_18 
REMARK    3  A    between atoms: O_3  and  C_12 
REMARK    4  A    between atoms: O_4  and  C_13 
REMARK    5  A    between atoms: O_5  and  C_14 
REMARK    6  A    between atoms: O_6  and  C_17 
REMARK    7  A    between atoms: O_8  and  C_23 
REMARK    8  A    between atoms: O_10  and  C_30 
REMARK    9  A    between atoms: O_11  and  C_32 
REMARK   10  A    between atoms: C_15  and  C_17 
REMARK   11  A    between atoms: C_25  and  C_27 
ROOT
HETATM    1  O   UNK     0     -22.772  55.584  11.001  0.00  0.00    -0.348 OA
HETATM    2  C   UNK     0     -20.965  57.668  11.803  0.00  0.00     0.183 C 
HETATM    3  C   UNK     0     -21.424  57.491  10.355  0.00  0.00     0.180 C 
HETATM    4  C   UNK     0     -21.113  56.367  12.592  0.00  0.00     0.205 C 
HETATM    5  C   UNK     0     -22.801  56.828  10.298  0.00  0.00     0.179 C 
HETATM    6  C   UNK     0     -22.496  55.747  12.391  0.00  0.00     0.298 C 
ENDROOT
BRANCH   5   7
HETATM    7  C   UNK     0     -23.228  56.536   8.863  0.00  0.00     0.198 C 
BRANCH   7   8
HETATM    8  O   UNK     0     -23.747  57.724   8.296  0.00  0.00    -0.398 OA
HETATM    9  H   UNK     0     -24.684  57.568   8.087  0.00  0.00     0.209 HD
ENDBRANCH   7   8
ENDBRANCH   5   7
BRANCH   6  10
HETATM   10  O   UNK     0     -22.506  54.475  13.037  0.00  0.00    -0.318 OA
BRANCH  10  11
HETATM   11  C   UNK     0     -21.488  53.624  12.727  0.00  0.00     0.077 A 
HETATM   12  C   UNK     0     -20.853  52.902  13.739  0.00  0.00     0.075 A 
HETATM   13  C   UNK     0     -19.811  52.032  13.420  0.00  0.00     0.095 A 
HETATM   14  O   UNK     0     -19.225  51.349  14.456  0.00  0.00    -0.309 OA
HETATM   15  C   UNK     0     -19.405  51.886  12.093  0.00  0.00     0.081 A 
HETATM   16  C   UNK     0     -18.190  50.472  14.167  0.00  0.00     0.090 A 
HETATM   17  C   UNK     0     -17.708  50.252  12.935  0.00  0.00     0.094 A 
HETATM   18  C   UNK     0     -18.302  50.964  11.786  0.00  0.00     0.190 A 
HETATM   19  O   UNK     0     -17.894  50.790  10.646  0.00  0.00    -0.287 OA
HETATM   20  C   UNK     0     -20.038  52.608  11.078  0.00  0.00     0.085 A 
HETATM   21  C   UNK     0     -21.081  53.478  11.401  0.00  0.00     0.074 A 
BRANCH  16  22
HETATM   22  C   UNK     0     -17.629  49.795  15.355  0.00  0.00     0.001 A 
HETATM   23  C   UNK     0     -17.868  48.435  15.564  0.00  0.00     0.053 A 
HETATM   24  C   UNK     0     -17.337  47.796  16.685  0.00  0.00     0.099 A 
HETATM   25  C   UNK     0     -16.568  48.514  17.599  0.00  0.00     0.098 A 
HETATM   26  C   UNK     0     -16.328  49.873  17.392  0.00  0.00     0.040 A 
HETATM   27  C   UNK     0     -16.858  50.513  16.272  0.00  0.00     0.017 A 
BRANCH  24  28
HETATM   28  O   UNK     0     -17.579  46.468  16.877  0.00  0.00    -0.358 OA
HETATM   29  H   UNK     0     -18.495  46.367  17.188  0.00  0.00     0.217 HD
ENDBRANCH  24  28
BRANCH  25  30
HETATM   30  O   UNK     0     -16.043  47.901  18.696  0.00  0.00    -0.358 OA
HETATM   31  H   UNK     0     -15.264  47.384  18.428  0.00  0.00     0.217 HD
ENDBRANCH  25  30
ENDBRANCH  16  22
BRANCH  20  32
HETATM   32  O   UNK     0     -19.678  52.501   9.769  0.00  0.00    -0.360 OA
HETATM   33  H   UNK     0     -19.038  53.189   9.534  0.00  0.00     0.217 HD
ENDBRANCH  20  32
ENDBRANCH  10  11
ENDBRANCH   6  10
BRANCH   3  34
HETATM   34  O   UNK     0     -21.489  58.768   9.723  0.00  0.00    -0.390 OA
HETATM   35  H   UNK     0     -22.383  59.125   9.860  0.00  0.00     0.210 HD
ENDBRANCH   3  34
BRANCH   4  36
HETATM   36  O   UNK     0     -20.941  56.635  13.984  0.00  0.00    -0.388 OA
HETATM   37  H   UNK     0     -21.630  57.266  14.256  0.00  0.00     0.210 HD
ENDBRANCH   4  36
BRANCH   2  38
HETATM   38  O   UNK     0     -19.592  58.062  11.788  0.00  0.00    -0.390 OA
HETATM   39  H   UNK     0     -19.557  59.001  12.042  0.00  0.00     0.210 HD
ENDBRANCH   2  38
TORSDOF 11
ENDMDL
MODEL 4
REMARK VINA RESULT:      -7.5     19.936     26.331
REMARK  11 active torsions:
REMARK  status: ('A' for Active; 'I' for Inactive)
REMARK    1  A    between atoms: O_2  and  C_16 
REMARK    2  A    between atoms: O_2  and  C_18 
REMARK    3  A    between atoms: O_3  and  C_12 
REMARK    4  A    between atoms: O_4  and  C_13 
REMARK    5  A    between atoms: O_5  and  C_14 
REMARK    6  A    between atoms: O_6  and  C_17 
REMARK    7  A    between atoms: O_8  and  C_23 
REMARK    8  A    between atoms: O_10  and  C_30 
REMARK    9  A    between atoms: O_11  and  C_32 
REMARK   10  A    between atoms: C_15  and  C_17 
REMARK   11  A    between atoms: C_25  and  C_27 
ROOT
HETATM    1  O   UNK     0     -11.195  39.949   8.281  0.00  0.00    -0.348 OA
HETATM    2  C   UNK     0     -11.094  37.320   7.130  0.00  0.00     0.183 C 
HETATM    3  C   UNK     0     -12.084  38.385   6.658  0.00  0.00     0.180 C 
HETATM    4  C   UNK     0     -10.606  37.608   8.550  0.00  0.00     0.205 C 
HETATM    5  C   UNK     0     -11.528  39.789   6.901  0.00  0.00     0.179 C 
HETATM    6  C   UNK     0     -10.159  39.062   8.700  0.00  0.00     0.298 C 
ENDROOT
BRANCH   5   7
HETATM    7  C   UNK     0     -12.546  40.868   6.545  0.00  0.00     0.198 C 
BRANCH   7   8
HETATM    8  O   UNK     0     -11.864  41.946   5.930  0.00  0.00    -0.398 OA
HETATM    9  H   UNK     0     -11.028  41.601   5.572  0.00  0.00     0.209 HD
ENDBRANCH   7   8
ENDBRANCH   5   7
BRANCH   6  10
HETATM   10  O   UNK     0      -9.856  39.290  10.075  0.00  0.00    -0.318 OA
BRANCH  10  11
HETATM   11  C   UNK     0     -10.195  40.510  10.581  0.00  0.00     0.077 A 
HETATM   12  C   UNK     0     -11.294  40.629  11.434  0.00  0.00     0.075 A 
HETATM   13  C   UNK     0     -11.638  41.878  11.950  0.00  0.00     0.095 A 
HETATM   14  O   UNK     0     -12.728  41.933  12.782  0.00  0.00    -0.309 OA
HETATM   15  C   UNK     0     -10.887  43.003  11.613  0.00  0.00     0.081 A 
HETATM   16  C   UNK     0     -13.090  43.161  13.315  0.00  0.00     0.090 A 
HETATM   17  C   UNK     0     -12.451  44.313  13.061  0.00  0.00     0.094 A 
HETATM   18  C   UNK     0     -11.274  44.308  12.170  0.00  0.00     0.190 A 
HETATM   19  O   UNK     0     -10.662  45.336  11.914  0.00  0.00    -0.287 OA
HETATM   20  C   UNK     0      -9.786  42.888  10.759  0.00  0.00     0.085 A 
HETATM   21  C   UNK     0      -9.444  41.637  10.245  0.00  0.00     0.074 A 
BRANCH  16  22
HETATM   22  C   UNK     0     -14.279  43.107  14.191  0.00  0.00     0.001 A 
HETATM   23  C   UNK     0     -14.128  43.147  15.579  0.00  0.00     0.053 A 
HETATM   24  C   UNK     0     -15.251  43.098  16.406  0.00  0.00     0.099 A 
HETATM   25  C   UNK     0     -16.525  43.007  15.849  0.00  0.00     0.098 A 
HETATM   26  C   UNK     0     -16.678  42.968  14.462  0.00  0.00     0.040 A 
HETATM   27  C   UNK     0     -15.557  43.017  13.635  0.00  0.00     0.017 A 
BRANCH  24  28
HETATM   28  O   UNK     0     -15.089  43.135  17.759  0.00  0.00    -0.358 OA
HETATM   29  H   UNK     0     -15.028  42.221  18.085  0.00  0.00     0.217 HD
ENDBRANCH  24  28
BRANCH  25  30
HETATM   30  O   UNK     0     -17.628  42.959  16.646  0.00  0.00    -0.358 OA
HETATM   31  H   UNK     0     -17.352  42.769  17.559  0.00  0.00     0.217 HD
ENDBRANCH  25  30
ENDBRANCH  16  22
BRANCH  20  32
HETATM   32  O   UNK     0      -9.022  43.956  10.401  0.00  0.00    -0.360 OA
HETATM   33  H   UNK     0      -9.372  44.772  10.789  0.00  0.00     0.217 HD
ENDBRANCH  20  32
ENDBRANCH  10  11
ENDBRANCH   6  10
BRANCH   3  34
HETATM   34  O   UNK     0     -12.334  38.211   5.265  0.00  0.00    -0.390 OA
HETATM   35  H   UNK     0     -11.536  38.484   4.781  0.00  0.00     0.210 HD
ENDBRANCH   3  34
BRANCH   4  36
HETATM   36  O   UNK     0      -9.494  36.765   8.849  0.00  0.00    -0.388 OA
HETATM   37  H   UNK     0      -9.164  36.394   8.013  0.00  0.00     0.210 HD
ENDBRANCH   4  36
BRANCH   2  38
HETATM   38  O   UNK     0     -11.758  36.055   7.103  0.00  0.00    -0.390 OA
HETATM   39  H   UNK     0     -12.636  36.179   7.503  0.00  0.00     0.210 HD
ENDBRANCH   2  38
TORSDOF 11
ENDMDL
MODEL 5
REMARK VINA RESULT:      -7.5     18.531     22.515
REMARK  11 active torsions:
REMARK  status: ('A' for Active; 'I' for Inactive)
REMARK    1  A    between atoms: O_2  and  C_16 
REMARK    2  A    between atoms: O_2  and  C_18 
REMARK    3  A    between atoms: O_3  and  C_12 
REMARK    4  A    between atoms: O_4  and  C_13 
REMARK    5  A    between atoms: O_5  and  C_14 
REMARK    6  A    between atoms: O_6  and  C_17 
REMARK    7  A    between atoms: O_8  and  C_23 
REMARK    8  A    between atoms: O_10  and  C_30 
REMARK    9  A    between atoms: O_11  and  C_32 
REMARK   10  A    between atoms: C_15  and  C_17 
REMARK   11  A    between atoms: C_25  and  C_27 
ROOT
HETATM    1  O   UNK     0     -12.820  43.060  12.343  0.00  0.00    -0.348 OA
HETATM    2  C   UNK     0     -11.382  40.575  12.422  0.00  0.00     0.183 C 
HETATM    3  C   UNK     0     -10.933  41.756  11.562  0.00  0.00     0.180 C 
HETATM    4  C   UNK     0     -12.872  40.667  12.753  0.00  0.00     0.205 C 
HETATM    5  C   UNK     0     -11.402  43.080  12.169  0.00  0.00     0.179 C 
HETATM    6  C   UNK     0     -13.243  42.058  13.266  0.00  0.00     0.298 C 
ENDROOT
BRANCH   5   7
HETATM    7  C   UNK     0     -11.066  44.264  11.267  0.00  0.00     0.198 C 
BRANCH   7   8
HETATM    8  O   UNK     0     -10.646  45.344  12.081  0.00  0.00    -0.398 OA
HETATM    9  H   UNK     0     -10.913  46.169  11.638  0.00  0.00     0.209 HD
ENDBRANCH   7   8
ENDBRANCH   5   7
BRANCH   6  10
HETATM   10  O   UNK     0     -14.661  42.108  13.415  0.00  0.00    -0.318 OA
BRANCH  10  11
HETATM   11  C   UNK     0     -15.136  42.693  14.551  0.00  0.00     0.077 A 
HETATM   12  C   UNK     0     -15.751  43.944  14.485  0.00  0.00     0.075 A 
HETATM   13  C   UNK     0     -16.236  44.540  15.649  0.00  0.00     0.095 A 
HETATM   14  O   UNK     0     -16.831  45.770  15.521  0.00  0.00    -0.309 OA
HETATM   15  C   UNK     0     -16.104  43.888  16.874  0.00  0.00     0.081 A 
HETATM   16  C   UNK     0     -17.327  46.385  16.661  0.00  0.00     0.090 A 
HETATM   17  C   UNK     0     -17.254  45.861  17.894  0.00  0.00     0.094 A 
HETATM   18  C   UNK     0     -16.622  44.541  18.086  0.00  0.00     0.190 A 
HETATM   19  O   UNK     0     -16.536  44.027  19.192  0.00  0.00    -0.287 OA
HETATM   20  C   UNK     0     -15.488  42.636  16.944  0.00  0.00     0.085 A 
HETATM   21  C   UNK     0     -15.005  42.041  15.777  0.00  0.00     0.074 A 
BRANCH  16  22
HETATM   22  C   UNK     0     -17.941  47.705  16.411  0.00  0.00     0.001 A 
HETATM   23  C   UNK     0     -18.389  48.483  17.481  0.00  0.00     0.053 A 
HETATM   24  C   UNK     0     -18.967  49.731  17.245  0.00  0.00     0.099 A 
HETATM   25  C   UNK     0     -19.100  50.203  15.940  0.00  0.00     0.098 A 
HETATM   26  C   UNK     0     -18.652  49.428  14.870  0.00  0.00     0.040 A 
HETATM   27  C   UNK     0     -18.074  48.181  15.104  0.00  0.00     0.017 A 
BRANCH  24  28
HETATM   28  O   UNK     0     -19.403  50.478  18.298  0.00  0.00    -0.358 OA
HETATM   29  H   UNK     0     -18.647  50.975  18.654  0.00  0.00     0.217 HD
ENDBRANCH  24  28
BRANCH  25  30
HETATM   30  O   UNK     0     -19.662  51.419  15.697  0.00  0.00    -0.358 OA
HETATM   31  H   UNK     0     -20.508  51.291  15.235  0.00  0.00     0.217 HD
ENDBRANCH  25  30
ENDBRANCH  16  22
BRANCH  20  32
HETATM   32  O   UNK     0     -15.335  41.959  18.116  0.00  0.00    -0.360 OA
HETATM   33  H   UNK     0     -15.704  42.466  18.854  0.00  0.00     0.217 HD
ENDBRANCH  20  32
ENDBRANCH  10  11
ENDBRANCH   6  10
BRANCH   3  34
HETATM   34  O   UNK     0      -9.510  41.758  11.470  0.00  0.00    -0.390 OA
HETATM   35  H   UNK     0      -9.152  41.546  12.350  0.00  0.00     0.210 HD
ENDBRANCH   3  34
BRANCH   4  36
HETATM   36  O   UNK     0     -13.191  39.716  13.768  0.00  0.00    -0.388 OA
HETATM   37  H   UNK     0     -14.157  39.610  13.789  0.00  0.00     0.210 HD
ENDBRANCH   4  36
BRANCH   2  38
HETATM   38  O   UNK     0     -11.130  39.374  11.691  0.00  0.00    -0.390 OA
HETATM   39  H   UNK     0     -10.318  39.513  11.174  0.00  0.00     0.210 HD
ENDBRANCH   2  38
TORSDOF 11
ENDMDL
MODEL 6
REMARK VINA RESULT:      -7.5      5.760      9.547
REMARK  11 active torsions:
REMARK  status: ('A' for Active; 'I' for Inactive)
REMARK    1  A    between atoms: O_2  and  C_16 
REMARK    2  A    between atoms: O_2  and  C_18 
REMARK    3  A    between atoms: O_3  and  C_12 
REMARK    4  A    between atoms: O_4  and  C_13 
REMARK    5  A    between atoms: O_5  and  C_14 
REMARK    6  A    between atoms: O_6  and  C_17 
REMARK    7  A    between atoms: O_8  and  C_23 
REMARK    8  A    between atoms: O_10  and  C_30 
REMARK    9  A    between atoms: O_11  and  C_32 
REMARK   10  A    between atoms: C_15  and  C_17 
REMARK   11  A    between atoms: C_25  and  C_27 
ROOT
HETATM    1  O   UNK     0     -11.722  48.545  36.603  0.00  0.00    -0.348 OA
HETATM    2  C   UNK     0     -11.327  45.766  35.996  0.00  0.00     0.183 C 
HETATM    3  C   UNK     0     -10.676  46.443  37.202  0.00  0.00     0.180 C 
HETATM    4  C   UNK     0     -11.707  46.790  34.925  0.00  0.00     0.205 C 
HETATM    5  C   UNK     0     -11.517  47.628  37.680  0.00  0.00     0.179 C 
HETATM    6  C   UNK     0     -12.465  47.972  35.530  0.00  0.00     0.298 C 
ENDROOT
BRANCH   5   7
HETATM    7  C   UNK     0     -10.829  48.390  38.809  0.00  0.00     0.198 C 
BRANCH   7   8
HETATM    8  O   UNK     0      -9.485  47.952  38.894  0.00  0.00    -0.398 OA
HETATM    9  H   UNK     0      -9.128  47.917  37.990  0.00  0.00     0.209 HD
ENDBRANCH   7   8
ENDBRANCH   5   7
BRANCH   6  10
HETATM   10  O   UNK     0     -12.656  48.943  34.503  0.00  0.00    -0.318 OA
BRANCH  10  11
HETATM   11  C   UNK     0     -13.413  50.031  34.825  0.00  0.00     0.077 A 
HETATM   12  C   UNK     0     -12.804  51.274  35.003  0.00  0.00     0.075 A 
HETATM   13  C   UNK     0     -13.579  52.385  35.332  0.00  0.00     0.095 A 
HETATM   14  O   UNK     0     -12.925  53.580  35.495  0.00  0.00    -0.309 OA
HETATM   15  C   UNK     0     -14.959  52.252  35.483  0.00  0.00     0.081 A 
HETATM   16  C   UNK     0     -13.671  54.703  35.817  0.00  0.00     0.090 A 
HETATM   17  C   UNK     0     -15.002  54.701  35.994  0.00  0.00     0.094 A 
HETATM   18  C   UNK     0     -15.753  53.440  35.833  0.00  0.00     0.190 A 
HETATM   19  O   UNK     0     -16.965  53.395  35.984  0.00  0.00    -0.287 OA
HETATM   20  C   UNK     0     -15.572  51.009  35.306  0.00  0.00     0.085 A 
HETATM   21  C   UNK     0     -14.793  49.899  34.976  0.00  0.00     0.074 A 
BRANCH  16  22
HETATM   22  C   UNK     0     -12.867  55.933  35.974  0.00  0.00     0.001 A 
HETATM   23  C   UNK     0     -13.209  57.088  35.267  0.00  0.00     0.053 A 
HETATM   24  C   UNK     0     -12.450  58.250  35.417  0.00  0.00     0.099 A 
HETATM   25  C   UNK     0     -11.349  58.258  36.271  0.00  0.00     0.098 A 
HETATM   26  C   UNK     0     -11.007  57.106  36.979  0.00  0.00     0.040 A 
HETATM   27  C   UNK     0     -11.764  55.945  36.831  0.00  0.00     0.017 A 
BRANCH  24  28
HETATM   28  O   UNK     0     -12.793  59.369  34.719  0.00  0.00    -0.358 OA
HETATM   29  H   UNK     0     -12.003  59.928  34.630  0.00  0.00     0.217 HD
ENDBRANCH  24  28
BRANCH  25  30
HETATM   30  O   UNK     0     -10.602  59.387  36.426  0.00  0.00    -0.358 OA
HETATM   31  H   UNK     0     -10.988  59.927  37.137  0.00  0.00     0.217 HD
ENDBRANCH  25  30
ENDBRANCH  16  22
BRANCH  20  32
HETATM   32  O   UNK     0     -16.915  50.829  35.443  0.00  0.00    -0.360 OA
HETATM   33  H   UNK     0     -17.147  50.685  36.372  0.00  0.00     0.217 HD
ENDBRANCH  20  32
ENDBRANCH  10  11
ENDBRANCH   6  10
BRANCH   3  34
HETATM   34  O   UNK     0     -10.550  45.497  38.262  0.00  0.00    -0.390 OA
HETATM   35  H   UNK     0      -9.902  44.825  37.988  0.00  0.00     0.210 HD
ENDBRANCH   3  34
BRANCH   4  36
HETATM   36  O   UNK     0     -12.548  46.169  33.954  0.00  0.00    -0.388 OA
HETATM   37  H   UNK     0     -13.422  46.593  33.996  0.00  0.00     0.210 HD
ENDBRANCH   4  36
BRANCH   2  38
HETATM   38  O   UNK     0     -10.391  44.834  35.452  0.00  0.00    -0.390 OA
HETATM   39  H   UNK     0      -9.859  45.309  34.790  0.00  0.00     0.210 HD
ENDBRANCH   2  38
TORSDOF 11
ENDMDL
MODEL 7
REMARK VINA RESULT:      -7.4     19.495     26.307
REMARK  11 active torsions:
REMARK  status: ('A' for Active; 'I' for Inactive)
REMARK    1  A    between atoms: O_2  and  C_16 
REMARK    2  A    between atoms: O_2  and  C_18 
REMARK    3  A    between atoms: O_3  and  C_12 
REMARK    4  A    between atoms: O_4  and  C_13 
REMARK    5  A    between atoms: O_5  and  C_14 
REMARK    6  A    between atoms: O_6  and  C_17 
REMARK    7  A    between atoms: O_8  and  C_23 
REMARK    8  A    between atoms: O_10  and  C_30 
REMARK    9  A    between atoms: O_11  and  C_32 
REMARK   10  A    between atoms: C_15  and  C_17 
REMARK   11  A    between atoms: C_25  and  C_27 
ROOT
HETATM    1  O   UNK     0     -21.689  55.049  10.029  0.00  0.00    -0.348 OA
HETATM    2  C   UNK     0     -22.373  56.723  12.260  0.00  0.00     0.183 C 
HETATM    3  C   UNK     0     -22.586  57.160  10.811  0.00  0.00     0.180 C 
HETATM    4  C   UNK     0     -21.311  55.627  12.357  0.00  0.00     0.205 C 
HETATM    5  C   UNK     0     -22.794  55.946   9.902  0.00  0.00     0.179 C 
HETATM    6  C   UNK     0     -21.569  54.511  11.345  0.00  0.00     0.298 C 
ENDROOT
BRANCH   5   7
HETATM    7  C   UNK     0     -22.892  56.350   8.435  0.00  0.00     0.198 C 
BRANCH   7   8
HETATM    8  O   UNK     0     -22.133  57.530   8.241  0.00  0.00    -0.398 OA
HETATM    9  H   UNK     0     -22.393  57.911   7.384  0.00  0.00     0.209 HD
ENDBRANCH   7   8
ENDBRANCH   5   7
BRANCH   6  10
HETATM   10  O   UNK     0     -20.468  53.606  11.397  0.00  0.00    -0.318 OA
BRANCH  10  11
HETATM   11  C   UNK     0     -20.671  52.435  12.066  0.00  0.00     0.077 A 
HETATM   12  C   UNK     0     -19.748  52.012  13.024  0.00  0.00     0.075 A 
HETATM   13  C   UNK     0     -19.957  50.814  13.706  0.00  0.00     0.095 A 
HETATM   14  O   UNK     0     -19.016  50.450  14.636  0.00  0.00    -0.309 OA
HETATM   15  C   UNK     0     -21.085  50.042  13.429  0.00  0.00     0.081 A 
HETATM   16  C   UNK     0     -19.202  49.266  15.334  0.00  0.00     0.090 A 
HETATM   17  C   UNK     0     -20.241  48.437  15.153  0.00  0.00     0.094 A 
HETATM   18  C   UNK     0     -21.280  48.782  14.162  0.00  0.00     0.190 A 
HETATM   19  O   UNK     0     -22.244  48.055  13.967  0.00  0.00    -0.287 OA
HETATM   20  C   UNK     0     -22.011  50.462  12.470  0.00  0.00     0.085 A 
HETATM   21  C   UNK     0     -21.798  51.662  11.790  0.00  0.00     0.074 A 
BRANCH  16  22
HETATM   22  C   UNK     0     -18.128  48.968  16.305  0.00  0.00     0.001 A 
HETATM   23  C   UNK     0     -18.087  47.727  16.944  0.00  0.00     0.053 A 
HETATM   24  C   UNK     0     -17.072  47.446  17.860  0.00  0.00     0.099 A 
HETATM   25  C   UNK     0     -16.099  48.404  18.139  0.00  0.00     0.098 A 
HETATM   26  C   UNK     0     -16.138  49.644  17.501  0.00  0.00     0.040 A 
HETATM   27  C   UNK     0     -17.151  49.926  16.586  0.00  0.00     0.017 A 
BRANCH  24  28
HETATM   28  O   UNK     0     -17.045  46.232  18.478  0.00  0.00    -0.358 OA
HETATM   29  H   UNK     0     -16.655  46.347  19.361  0.00  0.00     0.217 HD
ENDBRANCH  24  28
BRANCH  25  30
HETATM   30  O   UNK     0     -15.103  48.141  19.030  0.00  0.00    -0.358 OA
HETATM   31  H   UNK     0     -14.407  48.814  18.937  0.00  0.00     0.217 HD
ENDBRANCH  25  30
ENDBRANCH  16  22
BRANCH  20  32
HETATM   32  O   UNK     0     -23.126  49.744  12.165  0.00  0.00    -0.360 OA
HETATM   33  H   UNK     0     -23.160  48.927  12.685  0.00  0.00     0.217 HD
ENDBRANCH  20  32
ENDBRANCH  10  11
ENDBRANCH   6  10
BRANCH   3  34
HETATM   34  O   UNK     0     -23.732  58.005  10.737  0.00  0.00    -0.390 OA
HETATM   35  H   UNK     0     -23.605  58.738  11.364  0.00  0.00     0.210 HD
ENDBRANCH   3  34
BRANCH   4  36
HETATM   36  O   UNK     0     -21.337  55.058  13.666  0.00  0.00    -0.388 OA
HETATM   37  H   UNK     0     -21.039  54.134  13.599  0.00  0.00     0.210 HD
ENDBRANCH   4  36
BRANCH   2  38
HETATM   38  O   UNK     0     -21.949  57.863  13.009  0.00  0.00    -0.390 OA
HETATM   39  H   UNK     0     -21.051  58.089  12.711  0.00  0.00     0.210 HD
ENDBRANCH   2  38
TORSDOF 11
ENDMDL
MODEL 8
REMARK VINA RESULT:      -7.4     21.548     26.228
REMARK  11 active torsions:
REMARK  status: ('A' for Active; 'I' for Inactive)
REMARK    1  A    between atoms: O_2  and  C_16 
REMARK    2  A    between atoms: O_2  and  C_18 
REMARK    3  A    between atoms: O_3  and  C_12 
REMARK    4  A    between atoms: O_4  and  C_13 
REMARK    5  A    between atoms: O_5  and  C_14 
REMARK    6  A    between atoms: O_6  and  C_17 
REMARK    7  A    between atoms: O_8  and  C_23 
REMARK    8  A    between atoms: O_10  and  C_30 
REMARK    9  A    between atoms: O_11  and  C_32 
REMARK   10  A    between atoms: C_15  and  C_17 
REMARK   11  A    between atoms: C_25  and  C_27 
ROOT
HETATM    1  O   UNK     0     -22.100  69.525  32.795  0.00  0.00    -0.348 OA
HETATM    2  C   UNK     0     -21.428  72.281  32.348  0.00  0.00     0.183 C 
HETATM    3  C   UNK     0     -22.855  71.823  32.653  0.00  0.00     0.180 C 
HETATM    4  C   UNK     0     -20.587  71.134  31.786  0.00  0.00     0.205 C 
HETATM    5  C   UNK     0     -22.847  70.534  33.477  0.00  0.00     0.179 C 
HETATM    6  C   UNK     0     -20.726  69.873  32.638  0.00  0.00     0.298 C 
ENDROOT
BRANCH   5   7
HETATM    7  C   UNK     0     -24.258  69.995  33.694  0.00  0.00     0.198 C 
BRANCH   7   8
HETATM    8  O   UNK     0     -25.001  70.188  32.505  0.00  0.00    -0.398 OA
HETATM    9  H   UNK     0     -24.408  70.015  31.754  0.00  0.00     0.209 HD
ENDBRANCH   7   8
ENDBRANCH   5   7
BRANCH   6  10
HETATM   10  O   UNK     0     -20.034  68.816  31.976  0.00  0.00    -0.318 OA
BRANCH  10  11
HETATM   11  C   UNK     0     -19.346  67.945  32.769  0.00  0.00     0.077 A 
HETATM   12  C   UNK     0     -18.458  68.431  33.729  0.00  0.00     0.075 A 
HETATM   13  C   UNK     0     -17.756  67.539  34.539  0.00  0.00     0.095 A 
HETATM   14  O   UNK     0     -16.897  68.076  35.465  0.00  0.00    -0.309 OA
HETATM   15  C   UNK     0     -17.942  66.165  34.387  0.00  0.00     0.081 A 
HETATM   16  C   UNK     0     -16.190  67.212  36.287  0.00  0.00     0.090 A 
HETATM   17  C   UNK     0     -16.278  65.874  36.233  0.00  0.00     0.094 A 
HETATM   18  C   UNK     0     -17.187  65.247  35.253  0.00  0.00     0.190 A 
HETATM   19  O   UNK     0     -17.299  64.032  35.171  0.00  0.00    -0.287 OA
HETATM   20  C   UNK     0     -18.830  65.675  33.426  0.00  0.00     0.085 A 
HETATM   21  C   UNK     0     -19.532  66.571  32.618  0.00  0.00     0.074 A 
BRANCH  16  22
HETATM   22  C   UNK     0     -15.291  67.894  37.242  0.00  0.00     0.001 A 
HETATM   23  C   UNK     0     -13.910  67.881  37.035  0.00  0.00     0.053 A 
HETATM   24  C   UNK     0     -13.062  68.527  37.936  0.00  0.00     0.099 A 
HETATM   25  C   UNK     0     -13.592  69.185  39.044  0.00  0.00     0.098 A 
HETATM   26  C   UNK     0     -14.972  69.201  39.252  0.00  0.00     0.040 A 
HETATM   27  C   UNK     0     -15.820  68.556  38.353  0.00  0.00     0.017 A 
BRANCH  24  28
HETATM   28  O   UNK     0     -11.716  68.503  37.724  0.00  0.00    -0.358 OA
HETATM   29  H   UNK     0     -11.362  69.390  37.908  0.00  0.00     0.217 HD
ENDBRANCH  24  28
BRANCH  25  30
HETATM   30  O   UNK     0     -12.775  69.820  39.930  0.00  0.00    -0.358 OA
HETATM   31  H   UNK     0     -11.989  69.268  40.087  0.00  0.00     0.217 HD
ENDBRANCH  25  30
ENDBRANCH  16  22
BRANCH  20  32
HETATM   32  O   UNK     0     -19.046  64.344  33.240  0.00  0.00    -0.360 OA
HETATM   33  H   UNK     0     -18.550  63.823  33.890  0.00  0.00     0.217 HD
ENDBRANCH  20  32
ENDBRANCH  10  11
ENDBRANCH   6  10
BRANCH   3  34
HETATM   34  O   UNK     0     -23.531  72.845  33.382  0.00  0.00    -0.390 OA
HETATM   35  H   UNK     0     -22.963  73.634  33.389  0.00  0.00     0.210 HD
ENDBRANCH   3  34
BRANCH   4  36
HETATM   36  O   UNK     0     -19.213  71.517  31.773  0.00  0.00    -0.388 OA
HETATM   37  H   UNK     0     -19.124  72.303  31.208  0.00  0.00     0.210 HD
ENDBRANCH   4  36
BRANCH   2  38
HETATM   38  O   UNK     0     -21.497  73.335  31.386  0.00  0.00    -0.390 OA
HETATM   39  H   UNK     0     -20.899  73.102  30.656  0.00  0.00     0.210 HD
ENDBRANCH   2  38
TORSDOF 11
ENDMDL
MODEL 9
REMARK VINA RESULT:      -7.4     19.658     25.457
REMARK  11 active torsions:
REMARK  status: ('A' for Active; 'I' for Inactive)
REMARK    1  A    between atoms: O_2  and  C_16 
REMARK    2  A    between atoms: O_2  and  C_18 
REMARK    3  A    between atoms: O_3  and  C_12 
REMARK    4  A    between atoms: O_4  and  C_13 
REMARK    5  A    between atoms: O_5  and  C_14 
REMARK    6  A    between atoms: O_6  and  C_17 
REMARK    7  A    between atoms: O_8  and  C_23 
REMARK    8  A    between atoms: O_10  and  C_30 
REMARK    9  A    between atoms: O_11  and  C_32 
REMARK   10  A    between atoms: C_15  and  C_17 
REMARK   11  A    between atoms: C_25  and  C_27 
ROOT
HETATM    1  O   UNK     0     -11.429  37.314  10.633  0.00  0.00    -0.348 OA
HETATM    2  C   UNK     0     -11.002  37.223   7.794  0.00  0.00     0.183 C 
HETATM    3  C   UNK     0     -11.648  36.071   8.564  0.00  0.00     0.180 C 
HETATM    4  C   UNK     0     -10.160  38.103   8.718  0.00  0.00     0.205 C 
HETATM    5  C   UNK     0     -12.352  36.585   9.821  0.00  0.00     0.179 C 
HETATM    6  C   UNK     0     -10.932  38.482   9.982  0.00  0.00     0.298 C 
ENDROOT
BRANCH   5   7
HETATM    7  C   UNK     0     -12.904  35.441  10.667  0.00  0.00     0.198 C 
BRANCH   7   8
HETATM    8  O   UNK     0     -14.197  35.114  10.193  0.00  0.00    -0.398 OA
HETATM    9  H   UNK     0     -14.676  35.947  10.042  0.00  0.00     0.209 HD
ENDBRANCH   7   8
ENDBRANCH   5   7
BRANCH   6  10
HETATM   10  O   UNK     0     -10.040  39.176  10.852  0.00  0.00    -0.318 OA
BRANCH  10  11
HETATM   11  C   UNK     0     -10.395  40.444  11.206  0.00  0.00     0.077 A 
HETATM   12  C   UNK     0     -11.476  40.649  12.064  0.00  0.00     0.075 A 
HETATM   13  C   UNK     0     -11.837  41.947  12.425  0.00  0.00     0.095 A 
HETATM   14  O   UNK     0     -12.909  42.087  13.271  0.00  0.00    -0.309 OA
HETATM   15  C   UNK     0     -11.120  43.034  11.928  0.00  0.00     0.081 A 
HETATM   16  C   UNK     0     -13.287  43.365  13.652  0.00  0.00     0.090 A 
HETATM   17  C   UNK     0     -12.680  44.488  13.237  0.00  0.00     0.094 A 
HETATM   18  C   UNK     0     -11.524  44.392  12.323  0.00  0.00     0.190 A 
HETATM   19  O   UNK     0     -10.942  45.390  11.923  0.00  0.00    -0.287 OA
HETATM   20  C   UNK     0     -10.037  42.833  11.068  0.00  0.00     0.085 A 
HETATM   21  C   UNK     0      -9.677  41.532  10.710  0.00  0.00     0.074 A 
BRANCH  16  22
HETATM   22  C   UNK     0     -14.453  43.400  14.558  0.00  0.00     0.001 A 
HETATM   23  C   UNK     0     -14.319  42.997  15.889  0.00  0.00     0.053 A 
HETATM   24  C   UNK     0     -15.420  43.033  16.745  0.00  0.00     0.099 A 
HETATM   25  C   UNK     0     -16.657  43.468  16.273  0.00  0.00     0.098 A 
HETATM   26  C   UNK     0     -16.794  43.872  14.944  0.00  0.00     0.040 A 
HETATM   27  C   UNK     0     -15.694  43.838  14.088  0.00  0.00     0.017 A 
BRANCH  24  28
HETATM   28  O   UNK     0     -15.276  42.634  18.040  0.00  0.00    -0.358 OA
HETATM   29  H   UNK     0     -16.161  42.542  18.432  0.00  0.00     0.217 HD
ENDBRANCH  24  28
BRANCH  25  30
HETATM   30  O   UNK     0     -17.739  43.508  17.099  0.00  0.00    -0.358 OA
HETATM   31  H   UNK     0     -18.443  42.949  16.727  0.00  0.00     0.217 HD
ENDBRANCH  25  30
ENDBRANCH  16  22
BRANCH  20  32
HETATM   32  O   UNK     0      -9.306  43.861  10.557  0.00  0.00    -0.360 OA
HETATM   33  H   UNK     0      -9.141  44.533  11.235  0.00  0.00     0.217 HD
ENDBRANCH  20  32
ENDBRANCH  10  11
ENDBRANCH   6  10
BRANCH   3  34
HETATM   34  O   UNK     0     -12.598  35.418   7.725  0.00  0.00    -0.390 OA
HETATM   35  H   UNK     0     -12.730  35.970   6.935  0.00  0.00     0.210 HD
ENDBRANCH   3  34
BRANCH   4  36
HETATM   36  O   UNK     0      -9.804  39.304   8.034  0.00  0.00    -0.388 OA
HETATM   37  H   UNK     0      -9.076  39.098   7.422  0.00  0.00     0.210 HD
ENDBRANCH   4  36
BRANCH   2  38
HETATM   38  O   UNK     0     -10.167  36.663   6.779  0.00  0.00    -0.390 OA
HETATM   39  H   UNK     0      -9.292  36.509   7.175  0.00  0.00     0.210 HD
ENDBRANCH   2  38
TORSDOF 11
ENDMDL
