MODEL 1
REMARK VINA RESULT:      -9.2      0.000      0.000
REMARK  10 active torsions:
REMARK  status: ('A' for Active; 'I' for Inactive)
REMARK    1  A    between atoms: O_2  and  C_12 
REMARK    2  A    between atoms: O_2  and  C_14 
REMARK    3  A    between atoms: O_3  and  C_8 
REMARK    4  A    between atoms: O_4  and  C_9 
REMARK    5  A    between atoms: O_5  and  C_10 
REMARK    6  A    between atoms: O_6  and  C_13 
REMARK    7  A    between atoms: O_7  and  C_21 
REMARK    8  A    between atoms: C_11  and  C_13 
REMARK    9  A    between atoms: C_14  and  C_15 
REMARK   10  A    between atoms: C_15  and  C_16 
ROOT
HETATM    1  O   UNK     0      26.582  40.704  88.476  0.00  0.00    -0.348 OA
HETATM    2  C   UNK     0      28.530  42.114  86.907  0.00  0.00     0.183 C 
HETATM    3  C   UNK     0      27.055  42.515  86.937  0.00  0.00     0.180 C 
HETATM    4  C   UNK     0      28.715  40.653  87.317  0.00  0.00     0.204 C 
HETATM    5  C   UNK     0      26.408  42.106  88.261  0.00  0.00     0.179 C 
HETATM    6  C   UNK     0      27.954  40.336  88.604  0.00  0.00     0.291 C 
ENDROOT
BRANCH   5   7
HETATM    7  C   UNK     0      24.909  42.388  88.269  0.00  0.00     0.198 C 
BRANCH   7   8
HETATM    8  O   UNK     0      24.687  43.629  88.912  0.00  0.00    -0.398 OA
HETATM    9  H   UNK     0      25.373  43.735  89.593  0.00  0.00     0.209 HD
ENDBRANCH   7   8
ENDBRANCH   5   7
BRANCH   6  10
HETATM   10  O   UNK     0      28.056  38.933  88.841  0.00  0.00    -0.358 OA
BRANCH  10  11
HETATM   11  C   UNK     0      27.041  38.218  88.153  0.00  0.00     0.175 C 
BRANCH  11  12
HETATM   12  C   UNK     0      27.036  36.763  88.609  0.00  0.00     0.065 C 
BRANCH  12  13
HETATM   13  C   UNK     0      25.638  36.228  88.804  0.00  0.00    -0.056 A 
HETATM   14  C   UNK     0      25.464  34.933  89.260  0.00  0.00     0.010 A 
HETATM   15  C   UNK     0      24.172  34.438  89.441  0.00  0.00     0.037 A 
HETATM   16  C   UNK     0      23.071  35.248  89.161  0.00  0.00     0.065 A 
HETATM   17  C   UNK     0      23.261  36.551  88.703  0.00  0.00     0.037 A 
HETATM   18  C   UNK     0      24.553  37.045  88.523  0.00  0.00     0.010 A 
BRANCH  16  19
HETATM   19  O   UNK     0      21.810  34.765  89.337  0.00  0.00    -0.361 OA
HETATM   20  H   UNK     0      21.818  34.122  90.067  0.00  0.00     0.217 HD
ENDBRANCH  16  19
ENDBRANCH  12  13
ENDBRANCH  11  12
ENDBRANCH  10  11
ENDBRANCH   6  10
BRANCH   3  21
HETATM   21  O   UNK     0      26.947  43.927  86.776  0.00  0.00    -0.390 OA
HETATM   22  H   UNK     0      27.640  44.213  86.157  0.00  0.00     0.210 HD
ENDBRANCH   3  21
BRANCH   4  23
HETATM   23  O   UNK     0      30.101  40.396  87.543  0.00  0.00    -0.388 OA
HETATM   24  H   UNK     0      30.204  39.449  87.738  0.00  0.00     0.210 HD
ENDBRANCH   4  23
BRANCH   2  25
HETATM   25  O   UNK     0      29.011  42.299  85.575  0.00  0.00    -0.390 OA
HETATM   26  H   UNK     0      29.982  42.256  85.607  0.00  0.00     0.210 HD
ENDBRANCH   2  25
TORSDOF 10
ENDMDL
MODEL 2
REMARK VINA RESULT:      -8.9     17.077     23.487
REMARK  10 active torsions:
REMARK  status: ('A' for Active; 'I' for Inactive)
REMARK    1  A    between atoms: O_2  and  C_12 
REMARK    2  A    between atoms: O_2  and  C_14 
REMARK    3  A    between atoms: O_3  and  C_8 
REMARK    4  A    between atoms: O_4  and  C_9 
REMARK    5  A    between atoms: O_5  and  C_10 
REMARK    6  A    between atoms: O_6  and  C_13 
REMARK    7  A    between atoms: O_7  and  C_21 
REMARK    8  A    between atoms: C_11  and  C_13 
REMARK    9  A    between atoms: C_14  and  C_15 
REMARK   10  A    between atoms: C_15  and  C_16 
ROOT
HETATM    1  O   UNK     0      13.264  19.813  92.145  0.00  0.00    -0.348 OA
HETATM    2  C   UNK     0      11.413  18.107  90.762  0.00  0.00     0.183 C 
HETATM    3  C   UNK     0      12.848  17.680  91.072  0.00  0.00     0.180 C 
HETATM    4  C   UNK     0      11.277  19.630  90.761  0.00  0.00     0.204 C 
HETATM    5  C   UNK     0      13.372  18.399  92.317  0.00  0.00     0.179 C 
HETATM    6  C   UNK     0      11.912  20.246  92.007  0.00  0.00     0.291 C 
ENDROOT
BRANCH   5   7
HETATM    7  C   UNK     0      14.840  18.080  92.579  0.00  0.00     0.198 C 
BRANCH   7   8
HETATM    8  O   UNK     0      14.914  17.098  93.596  0.00  0.00    -0.398 OA
HETATM    9  H   UNK     0      14.168  16.487  93.471  0.00  0.00     0.209 HD
ENDBRANCH   7   8
ENDBRANCH   5   7
BRANCH   6  10
HETATM   10  O   UNK     0      11.873  21.665  91.864  0.00  0.00    -0.358 OA
BRANCH  10  11
HETATM   11  C   UNK     0      12.962  22.136  91.084  0.00  0.00     0.175 C 
BRANCH  11  12
HETATM   12  C   UNK     0      12.593  23.463  90.431  0.00  0.00     0.065 C 
BRANCH  12  13
HETATM   13  C   UNK     0      13.739  24.446  90.443  0.00  0.00    -0.056 A 
HETATM   14  C   UNK     0      13.534  25.722  90.939  0.00  0.00     0.010 A 
HETATM   15  C   UNK     0      14.593  26.630  90.950  0.00  0.00     0.037 A 
HETATM   16  C   UNK     0      15.843  26.248  90.462  0.00  0.00     0.065 A 
HETATM   17  C   UNK     0      16.035  24.960  89.965  0.00  0.00     0.037 A 
HETATM   18  C   UNK     0      14.975  24.052  89.955  0.00  0.00     0.010 A 
BRANCH  16  19
HETATM   19  O   UNK     0      16.877  27.134  90.472  0.00  0.00    -0.361 OA
HETATM   20  H   UNK     0      16.612  27.933  89.984  0.00  0.00     0.217 HD
ENDBRANCH  16  19
ENDBRANCH  12  13
ENDBRANCH  11  12
ENDBRANCH  10  11
ENDBRANCH   6  10
BRANCH   3  21
HETATM   21  O   UNK     0      12.884  16.272  91.292  0.00  0.00    -0.390 OA
HETATM   22  H   UNK     0      12.058  15.893  90.948  0.00  0.00     0.210 HD
ENDBRANCH   3  21
BRANCH   4  23
HETATM   23  O   UNK     0       9.894  19.982  90.743  0.00  0.00    -0.388 OA
HETATM   24  H   UNK     0       9.649  20.198  89.827  0.00  0.00     0.210 HD
ENDBRANCH   4  23
BRANCH   2  25
HETATM   25  O   UNK     0      11.070  17.597  89.473  0.00  0.00    -0.390 OA
HETATM   26  H   UNK     0      11.828  17.757  88.885  0.00  0.00     0.210 HD
ENDBRANCH   2  25
TORSDOF 10
ENDMDL
MODEL 3
REMARK VINA RESULT:      -8.5      1.685      3.319
REMARK  10 active torsions:
REMARK  status: ('A' for Active; 'I' for Inactive)
REMARK    1  A    between atoms: O_2  and  C_12 
REMARK    2  A    between atoms: O_2  and  C_14 
REMARK    3  A    between atoms: O_3  and  C_8 
REMARK    4  A    between atoms: O_4  and  C_9 
REMARK    5  A    between atoms: O_5  and  C_10 
REMARK    6  A    between atoms: O_6  and  C_13 
REMARK    7  A    between atoms: O_7  and  C_21 
REMARK    8  A    between atoms: C_11  and  C_13 
REMARK    9  A    between atoms: C_14  and  C_15 
REMARK   10  A    between atoms: C_15  and  C_16 
ROOT
HETATM    1  O   UNK     0      27.135  40.137  87.942  0.00  0.00    -0.348 OA
HETATM    2  C   UNK     0      25.300  42.328  88.229  0.00  0.00     0.183 C 
HETATM    3  C   UNK     0      26.763  42.529  87.836  0.00  0.00     0.180 C 
HETATM    4  C   UNK     0      25.100  40.995  88.952  0.00  0.00     0.204 C 
HETATM    5  C   UNK     0      27.309  41.292  87.120  0.00  0.00     0.179 C 
HETATM    6  C   UNK     0      25.761  39.845  88.192  0.00  0.00     0.291 C 
ENDROOT
BRANCH   5   7
HETATM    7  C   UNK     0      28.799  41.423  86.822  0.00  0.00     0.198 C 
BRANCH   7   8
HETATM    8  O   UNK     0      28.955  41.911  85.503  0.00  0.00    -0.398 OA
HETATM    9  H   UNK     0      28.105  42.295  85.229  0.00  0.00     0.209 HD
ENDBRANCH   7   8
ENDBRANCH   5   7
BRANCH   6  10
HETATM   10  O   UNK     0      25.656  38.671  88.995  0.00  0.00    -0.358 OA
BRANCH  10  11
HETATM   11  C   UNK     0      25.268  37.547  88.218  0.00  0.00     0.175 C 
BRANCH  11  12
HETATM   12  C   UNK     0      26.011  36.306  88.700  0.00  0.00     0.065 C 
BRANCH  12  13
HETATM   13  C   UNK     0      25.221  35.040  88.472  0.00  0.00    -0.056 A 
HETATM   14  C   UNK     0      24.813  34.716  87.189  0.00  0.00     0.010 A 
HETATM   15  C   UNK     0      24.083  33.546  86.979  0.00  0.00     0.037 A 
HETATM   16  C   UNK     0      23.770  32.716  88.056  0.00  0.00     0.065 A 
HETATM   17  C   UNK     0      24.188  33.056  89.342  0.00  0.00     0.037 A 
HETATM   18  C   UNK     0      24.918  34.226  89.552  0.00  0.00     0.010 A 
BRANCH  16  19
HETATM   19  O   UNK     0      23.058  31.574  87.850  0.00  0.00    -0.361 OA
HETATM   20  H   UNK     0      22.892  31.474  86.897  0.00  0.00     0.217 HD
ENDBRANCH  16  19
ENDBRANCH  12  13
ENDBRANCH  11  12
ENDBRANCH  10  11
ENDBRANCH   6  10
BRANCH   3  21
HETATM   21  O   UNK     0      26.868  43.658  86.971  0.00  0.00    -0.390 OA
HETATM   22  H   UNK     0      26.147  44.273  87.191  0.00  0.00     0.210 HD
ENDBRANCH   3  21
BRANCH   4  23
HETATM   23  O   UNK     0      23.703  40.717  89.056  0.00  0.00    -0.388 OA
HETATM   24  H   UNK     0      23.591  39.955  89.650  0.00  0.00     0.210 HD
ENDBRANCH   4  23
BRANCH   2  25
HETATM   25  O   UNK     0      24.923  43.399  89.094  0.00  0.00    -0.390 OA
HETATM   26  H   UNK     0      25.584  44.105  88.989  0.00  0.00     0.210 HD
ENDBRANCH   2  25
TORSDOF 10
ENDMDL
MODEL 4
REMARK VINA RESULT:      -8.1     19.194     20.954
REMARK  10 active torsions:
REMARK  status: ('A' for Active; 'I' for Inactive)
REMARK    1  A    between atoms: O_2  and  C_12 
REMARK    2  A    between atoms: O_2  and  C_14 
REMARK    3  A    between atoms: O_3  and  C_8 
REMARK    4  A    between atoms: O_4  and  C_9 
REMARK    5  A    between atoms: O_5  and  C_10 
REMARK    6  A    between atoms: O_6  and  C_13 
REMARK    7  A    between atoms: O_7  and  C_21 
REMARK    8  A    between atoms: C_11  and  C_13 
REMARK    9  A    between atoms: C_14  and  C_15 
REMARK   10  A    between atoms: C_15  and  C_16 
ROOT
HETATM    1  O   UNK     0       4.971  44.156  87.901  0.00  0.00    -0.348 OA
HETATM    2  C   UNK     0       6.222  46.707  87.478  0.00  0.00     0.183 C 
HETATM    3  C   UNK     0       4.706  46.546  87.596  0.00  0.00     0.180 C 
HETATM    4  C   UNK     0       6.888  45.393  87.067  0.00  0.00     0.204 C 
HETATM    5  C   UNK     0       4.355  45.324  88.446  0.00  0.00     0.179 C 
HETATM    6  C   UNK     0       6.396  44.228  87.925  0.00  0.00     0.291 C 
ENDROOT
BRANCH   5   7
HETATM    7  C   UNK     0       2.851  45.074  88.482  0.00  0.00     0.198 C 
BRANCH   7   8
HETATM    8  O   UNK     0       2.293  45.499  87.253  0.00  0.00    -0.398 OA
HETATM    9  H   UNK     0       3.007  45.900  86.729  0.00  0.00     0.209 HD
ENDBRANCH   7   8
ENDBRANCH   5   7
BRANCH   6  10
HETATM   10  O   UNK     0       6.948  43.026  87.391  0.00  0.00    -0.358 OA
BRANCH  10  11
HETATM   11  C   UNK     0       6.451  41.883  88.071  0.00  0.00     0.175 C 
BRANCH  11  12
HETATM   12  C   UNK     0       7.032  40.619  87.448  0.00  0.00     0.065 C 
BRANCH  12  13
HETATM   13  C   UNK     0       6.549  39.365  88.136  0.00  0.00    -0.056 A 
HETATM   14  C   UNK     0       5.490  39.443  89.025  0.00  0.00     0.010 A 
HETATM   15  C   UNK     0       5.043  38.285  89.661  0.00  0.00     0.037 A 
HETATM   16  C   UNK     0       5.665  37.063  89.399  0.00  0.00     0.065 A 
HETATM   17  C   UNK     0       6.730  37.000  88.502  0.00  0.00     0.037 A 
HETATM   18  C   UNK     0       7.175  38.159  87.867  0.00  0.00     0.010 A 
BRANCH  16  19
HETATM   19  O   UNK     0       5.229  35.932  90.020  0.00  0.00    -0.361 OA
HETATM   20  H   UNK     0       4.874  36.170  90.894  0.00  0.00     0.217 HD
ENDBRANCH  16  19
ENDBRANCH  12  13
ENDBRANCH  11  12
ENDBRANCH  10  11
ENDBRANCH   6  10
BRANCH   3  21
HETATM   21  O   UNK     0       4.155  47.714  88.199  0.00  0.00    -0.390 OA
HETATM   22  H   UNK     0       3.310  47.909  87.758  0.00  0.00     0.210 HD
ENDBRANCH   3  21
BRANCH   4  23
HETATM   23  O   UNK     0       8.301  45.505  87.233  0.00  0.00    -0.388 OA
HETATM   24  H   UNK     0       8.555  44.986  88.015  0.00  0.00     0.210 HD
ENDBRANCH   4  23
BRANCH   2  25
HETATM   25  O   UNK     0       6.485  47.703  86.489  0.00  0.00    -0.390 OA
HETATM   26  H   UNK     0       7.388  48.032  86.639  0.00  0.00     0.210 HD
ENDBRANCH   2  25
TORSDOF 10
ENDMDL
MODEL 5
REMARK VINA RESULT:      -8.0     17.386     20.119
REMARK  10 active torsions:
REMARK  status: ('A' for Active; 'I' for Inactive)
REMARK    1  A    between atoms: O_2  and  C_12 
REMARK    2  A    between atoms: O_2  and  C_14 
REMARK    3  A    between atoms: O_3  and  C_8 
REMARK    4  A    between atoms: O_4  and  C_9 
REMARK    5  A    between atoms: O_5  and  C_10 
REMARK    6  A    between atoms: O_6  and  C_13 
REMARK    7  A    between atoms: O_7  and  C_21 
REMARK    8  A    between atoms: C_11  and  C_13 
REMARK    9  A    between atoms: C_14  and  C_15 
REMARK   10  A    between atoms: C_15  and  C_16 
ROOT
HETATM    1  O   UNK     0       7.154  44.214  87.270  0.00  0.00    -0.348 OA
HETATM    2  C   UNK     0       4.958  45.942  87.931  0.00  0.00     0.183 C 
HETATM    3  C   UNK     0       4.850  44.418  87.991  0.00  0.00     0.180 C 
HETATM    4  C   UNK     0       6.091  46.380  87.002  0.00  0.00     0.204 C 
HETATM    5  C   UNK     0       6.217  43.786  88.260  0.00  0.00     0.179 C 
HETATM    6  C   UNK     0       7.383  45.621  87.303  0.00  0.00     0.291 C 
ENDROOT
BRANCH   5   7
HETATM    7  C   UNK     0       6.156  42.264  88.207  0.00  0.00     0.198 C 
BRANCH   7   8
HETATM    8  O   UNK     0       5.440  41.801  89.337  0.00  0.00    -0.398 OA
HETATM    9  H   UNK     0       5.182  40.880  89.165  0.00  0.00     0.209 HD
ENDBRANCH   7   8
ENDBRANCH   5   7
BRANCH   6  10
HETATM   10  O   UNK     0       8.343  45.977  86.311  0.00  0.00    -0.358 OA
BRANCH  10  11
HETATM   11  C   UNK     0       8.704  44.857  85.516  0.00  0.00     0.175 C 
BRANCH  11  12
HETATM   12  C   UNK     0       9.240  45.331  84.171  0.00  0.00     0.065 C 
BRANCH  12  13
HETATM   13  C   UNK     0      10.194  44.338  83.551  0.00  0.00    -0.056 A 
HETATM   14  C   UNK     0      10.989  44.732  82.488  0.00  0.00     0.010 A 
HETATM   15  C   UNK     0      11.870  43.815  81.915  0.00  0.00     0.037 A 
HETATM   16  C   UNK     0      11.943  42.514  82.415  0.00  0.00     0.065 A 
HETATM   17  C   UNK     0      11.137  42.132  83.486  0.00  0.00     0.037 A 
HETATM   18  C   UNK     0      10.256  43.050  84.058  0.00  0.00     0.010 A 
BRANCH  16  19
HETATM   19  O   UNK     0      12.803  41.619  81.856  0.00  0.00    -0.361 OA
HETATM   20  H   UNK     0      12.445  40.722  81.973  0.00  0.00     0.217 HD
ENDBRANCH  16  19
ENDBRANCH  12  13
ENDBRANCH  11  12
ENDBRANCH  10  11
ENDBRANCH   6  10
BRANCH   3  21
HETATM   21  O   UNK     0       3.948  44.050  89.032  0.00  0.00    -0.390 OA
HETATM   22  H   UNK     0       3.050  44.297  88.753  0.00  0.00     0.210 HD
ENDBRANCH   3  21
BRANCH   4  23
HETATM   23  O   UNK     0       6.339  47.774  87.182  0.00  0.00    -0.388 OA
HETATM   24  H   UNK     0       5.833  48.073  87.958  0.00  0.00     0.210 HD
ENDBRANCH   4  23
BRANCH   2  25
HETATM   25  O   UNK     0       3.718  46.454  87.443  0.00  0.00    -0.390 OA
HETATM   26  H   UNK     0       3.668  46.244  86.495  0.00  0.00     0.210 HD
ENDBRANCH   2  25
TORSDOF 10
ENDMDL
MODEL 6
REMARK VINA RESULT:      -7.9     15.751     21.982
REMARK  10 active torsions:
REMARK  status: ('A' for Active; 'I' for Inactive)
REMARK    1  A    between atoms: O_2  and  C_12 
REMARK    2  A    between atoms: O_2  and  C_14 
REMARK    3  A    between atoms: O_3  and  C_8 
REMARK    4  A    between atoms: O_4  and  C_9 
REMARK    5  A    between atoms: O_5  and  C_10 
REMARK    6  A    between atoms: O_6  and  C_13 
REMARK    7  A    between atoms: O_7  and  C_21 
REMARK    8  A    between atoms: C_11  and  C_13 
REMARK    9  A    between atoms: C_14  and  C_15 
REMARK   10  A    between atoms: C_15  and  C_16 
ROOT
HETATM    1  O   UNK     0      14.762  20.215  91.773  0.00  0.00    -0.348 OA
HETATM    2  C   UNK     0      15.813  17.698  92.672  0.00  0.00     0.183 C 
HETATM    3  C   UNK     0      14.427  18.200  93.077  0.00  0.00     0.180 C 
HETATM    4  C   UNK     0      16.717  18.855  92.244  0.00  0.00     0.204 C 
HETATM    5  C   UNK     0      13.855  19.137  92.011  0.00  0.00     0.179 C 
HETATM    6  C   UNK     0      16.012  19.774  91.247  0.00  0.00     0.291 C 
ENDROOT
BRANCH   5   7
HETATM    7  C   UNK     0      12.526  19.743  92.446  0.00  0.00     0.198 C 
BRANCH   7   8
HETATM    8  O   UNK     0      12.615  20.093  93.815  0.00  0.00    -0.398 OA
HETATM    9  H   UNK     0      12.726  21.057  93.866  0.00  0.00     0.209 HD
ENDBRANCH   7   8
ENDBRANCH   5   7
BRANCH   6  10
HETATM   10  O   UNK     0      16.858  20.897  91.010  0.00  0.00    -0.358 OA
BRANCH  10  11
HETATM   11  C   UNK     0      16.122  22.111  91.024  0.00  0.00     0.175 C 
BRANCH  11  12
HETATM   12  C   UNK     0      16.966  23.219  91.644  0.00  0.00     0.065 C 
BRANCH  12  13
HETATM   13  C   UNK     0      16.711  24.561  91.003  0.00  0.00    -0.056 A 
HETATM   14  C   UNK     0      17.663  25.560  91.116  0.00  0.00     0.010 A 
HETATM   15  C   UNK     0      17.427  26.801  90.524  0.00  0.00     0.037 A 
HETATM   16  C   UNK     0      16.240  27.026  89.826  0.00  0.00     0.065 A 
HETATM   17  C   UNK     0      15.290  26.010  89.721  0.00  0.00     0.037 A 
HETATM   18  C   UNK     0      15.527  24.770  90.313  0.00  0.00     0.010 A 
BRANCH  16  19
HETATM   19  O   UNK     0      16.010  28.237  89.249  0.00  0.00    -0.361 OA
HETATM   20  H   UNK     0      15.713  28.861  89.933  0.00  0.00     0.217 HD
ENDBRANCH  16  19
ENDBRANCH  12  13
ENDBRANCH  11  12
ENDBRANCH  10  11
ENDBRANCH   6  10
BRANCH   3  21
HETATM   21  O   UNK     0      13.553  17.087  93.243  0.00  0.00    -0.390 OA
HETATM   22  H   UNK     0      12.878  17.127  92.544  0.00  0.00     0.210 HD
ENDBRANCH   3  21
BRANCH   4  23
HETATM   23  O   UNK     0      17.890  18.334  91.620  0.00  0.00    -0.388 OA
HETATM   24  H   UNK     0      18.665  18.689  92.089  0.00  0.00     0.210 HD
ENDBRANCH   4  23
BRANCH   2  25
HETATM   25  O   UNK     0      16.390  17.035  93.797  0.00  0.00    -0.390 OA
HETATM   26  H   UNK     0      16.805  16.217  93.472  0.00  0.00     0.210 HD
ENDBRANCH   2  25
TORSDOF 10
ENDMDL
MODEL 7
REMARK VINA RESULT:      -7.9     15.345     21.156
REMARK  10 active torsions:
REMARK  status: ('A' for Active; 'I' for Inactive)
REMARK    1  A    between atoms: O_2  and  C_12 
REMARK    2  A    between atoms: O_2  and  C_14 
REMARK    3  A    between atoms: O_3  and  C_8 
REMARK    4  A    between atoms: O_4  and  C_9 
REMARK    5  A    between atoms: O_5  and  C_10 
REMARK    6  A    between atoms: O_6  and  C_13 
REMARK    7  A    between atoms: O_7  and  C_21 
REMARK    8  A    between atoms: C_11  and  C_13 
REMARK    9  A    between atoms: C_14  and  C_15 
REMARK   10  A    between atoms: C_15  and  C_16 
ROOT
HETATM    1  O   UNK     0      13.172  22.016  91.510  0.00  0.00    -0.348 OA
HETATM    2  C   UNK     0      14.964  20.244  92.888  0.00  0.00     0.183 C 
HETATM    3  C   UNK     0      13.451  20.210  93.102  0.00  0.00     0.180 C 
HETATM    4  C   UNK     0      15.415  21.599  92.341  0.00  0.00     0.204 C 
HETATM    5  C   UNK     0      12.714  20.708  91.857  0.00  0.00     0.179 C 
HETATM    6  C   UNK     0      14.554  22.037  91.157  0.00  0.00     0.291 C 
ENDROOT
BRANCH   5   7
HETATM    7  C   UNK     0      11.209  20.795  92.087  0.00  0.00     0.198 C 
BRANCH   7   8
HETATM    8  O   UNK     0      10.554  20.055  91.074  0.00  0.00    -0.398 OA
HETATM    9  H   UNK     0      10.388  19.163  91.421  0.00  0.00     0.209 HD
ENDBRANCH   7   8
ENDBRANCH   5   7
BRANCH   6  10
HETATM   10  O   UNK     0      14.940  23.362  90.799  0.00  0.00    -0.358 OA
BRANCH  10  11
HETATM   11  C   UNK     0      13.812  24.155  90.459  0.00  0.00     0.175 C 
BRANCH  11  12
HETATM   12  C   UNK     0      14.166  25.633  90.578  0.00  0.00     0.065 C 
BRANCH  12  13
HETATM   13  C   UNK     0      15.381  25.999  89.761  0.00  0.00    -0.056 A 
HETATM   14  C   UNK     0      15.390  25.736  88.401  0.00  0.00     0.010 A 
HETATM   15  C   UNK     0      16.513  26.075  87.646  0.00  0.00     0.037 A 
HETATM   16  C   UNK     0      17.613  26.673  88.263  0.00  0.00     0.065 A 
HETATM   17  C   UNK     0      17.589  26.932  89.633  0.00  0.00     0.037 A 
HETATM   18  C   UNK     0      16.466  26.592  90.387  0.00  0.00     0.010 A 
BRANCH  16  19
HETATM   19  O   UNK     0      18.709  27.003  87.526  0.00  0.00    -0.361 OA
HETATM   20  H   UNK     0      18.592  26.670  86.620  0.00  0.00     0.217 HD
ENDBRANCH  16  19
ENDBRANCH  12  13
ENDBRANCH  11  12
ENDBRANCH  10  11
ENDBRANCH   6  10
BRANCH   3  21
HETATM   21  O   UNK     0      13.045  18.874  93.386  0.00  0.00    -0.390 OA
HETATM   22  H   UNK     0      12.288  18.912  93.995  0.00  0.00     0.210 HD
ENDBRANCH   3  21
BRANCH   4  23
HETATM   23  O   UNK     0      16.769  21.505  91.899  0.00  0.00    -0.388 OA
HETATM   24  H   UNK     0      17.346  21.541  92.682  0.00  0.00     0.210 HD
ENDBRANCH   4  23
BRANCH   2  25
HETATM   25  O   UNK     0      15.594  20.005  94.146  0.00  0.00    -0.390 OA
HETATM   26  H   UNK     0      16.527  20.266  94.060  0.00  0.00     0.210 HD
ENDBRANCH   2  25
TORSDOF 10
ENDMDL
MODEL 8
REMARK VINA RESULT:      -7.8     30.272     33.272
REMARK  10 active torsions:
REMARK  status: ('A' for Active; 'I' for Inactive)
REMARK    1  A    between atoms: O_2  and  C_12 
REMARK    2  A    between atoms: O_2  and  C_14 
REMARK    3  A    between atoms: O_3  and  C_8 
REMARK    4  A    between atoms: O_4  and  C_9 
REMARK    5  A    between atoms: O_5  and  C_10 
REMARK    6  A    between atoms: O_6  and  C_13 
REMARK    7  A    between atoms: O_7  and  C_21 
REMARK    8  A    between atoms: C_11  and  C_13 
REMARK    9  A    between atoms: C_14  and  C_15 
REMARK   10  A    between atoms: C_15  and  C_16 
ROOT
HETATM    1  O   UNK     0      10.614  12.101  80.975  0.00  0.00    -0.348 OA
HETATM    2  C   UNK     0      13.459  11.707  80.923  0.00  0.00     0.183 C 
HETATM    3  C   UNK     0      12.804  12.867  81.674  0.00  0.00     0.180 C 
HETATM    4  C   UNK     0      12.540  11.171  79.825  0.00  0.00     0.204 C 
HETATM    5  C   UNK     0      11.384  12.500  82.110  0.00  0.00     0.179 C 
HETATM    6  C   UNK     0      11.127  10.925  80.352  0.00  0.00     0.291 C 
ENDROOT
BRANCH   5   7
HETATM    7  C   UNK     0      10.669  13.681  82.757  0.00  0.00     0.198 C 
BRANCH   7   8
HETATM    8  O   UNK     0      10.986  13.701  84.136  0.00  0.00    -0.398 OA
HETATM    9  H   UNK     0      10.257  13.270  84.612  0.00  0.00     0.209 HD
ENDBRANCH   7   8
ENDBRANCH   5   7
BRANCH   6  10
HETATM   10  O   UNK     0      10.302  10.567  79.245  0.00  0.00    -0.358 OA
BRANCH  10  11
HETATM   11  C   UNK     0       9.003  11.128  79.366  0.00  0.00     0.175 C 
BRANCH  11  12
HETATM   12  C   UNK     0       7.973  10.014  79.516  0.00  0.00     0.065 C 
BRANCH  12  13
HETATM   13  C   UNK     0       7.206  10.114  80.813  0.00  0.00    -0.056 A 
HETATM   14  C   UNK     0       5.825  10.214  80.779  0.00  0.00     0.010 A 
HETATM   15  C   UNK     0       5.116  10.306  81.977  0.00  0.00     0.037 A 
HETATM   16  C   UNK     0       5.800  10.296  83.193  0.00  0.00     0.065 A 
HETATM   17  C   UNK     0       7.190  10.194  83.212  0.00  0.00     0.037 A 
HETATM   18  C   UNK     0       7.898  10.103  82.013  0.00  0.00     0.010 A 
BRANCH  16  19
HETATM   19  O   UNK     0       5.108  10.386  84.362  0.00  0.00    -0.361 OA
HETATM   20  H   UNK     0       5.484   9.756  85.000  0.00  0.00     0.217 HD
ENDBRANCH  16  19
ENDBRANCH  12  13
ENDBRANCH  11  12
ENDBRANCH  10  11
ENDBRANCH   6  10
BRANCH   3  21
HETATM   21  O   UNK     0      13.583  13.182  82.825  0.00  0.00    -0.390 OA
HETATM   22  H   UNK     0      13.362  12.542  83.523  0.00  0.00     0.210 HD
ENDBRANCH   3  21
BRANCH   4  23
HETATM   23  O   UNK     0      13.058   9.933  79.337  0.00  0.00    -0.388 OA
HETATM   24  H   UNK     0      13.008   9.948  78.365  0.00  0.00     0.210 HD
ENDBRANCH   4  23
BRANCH   2  25
HETATM   25  O   UNK     0      14.670  12.186  80.339  0.00  0.00    -0.390 OA
HETATM   26  H   UNK     0      14.918  11.567  79.631  0.00  0.00     0.210 HD
ENDBRANCH   2  25
TORSDOF 10
ENDMDL
MODEL 9
REMARK VINA RESULT:      -7.8     15.864     22.253
REMARK  10 active torsions:
REMARK  status: ('A' for Active; 'I' for Inactive)
REMARK    1  A    between atoms: O_2  and  C_12 
REMARK    2  A    between atoms: O_2  and  C_14 
REMARK    3  A    between atoms: O_3  and  C_8 
REMARK    4  A    between atoms: O_4  and  C_9 
REMARK    5  A    between atoms: O_5  and  C_10 
REMARK    6  A    between atoms: O_6  and  C_13 
REMARK    7  A    between atoms: O_7  and  C_21 
REMARK    8  A    between atoms: C_11  and  C_13 
REMARK    9  A    between atoms: C_14  and  C_15 
REMARK   10  A    between atoms: C_15  and  C_16 
ROOT
HETATM    1  O   UNK     0      15.147  19.955  91.930  0.00  0.00    -0.348 OA
HETATM    2  C   UNK     0      12.400  19.381  91.317  0.00  0.00     0.183 C 
HETATM    3  C   UNK     0      13.525  18.377  91.062  0.00  0.00     0.180 C 
HETATM    4  C   UNK     0      12.940  20.810  91.388  0.00  0.00     0.204 C 
HETATM    5  C   UNK     0      14.688  18.606  92.029  0.00  0.00     0.179 C 
HETATM    6  C   UNK     0      14.152  20.902  92.314  0.00  0.00     0.291 C 
ENDROOT
BRANCH   5   7
HETATM    7  C   UNK     0      15.870  17.695  91.718  0.00  0.00     0.198 C 
BRANCH   7   8
HETATM    8  O   UNK     0      15.516  16.365  92.051  0.00  0.00    -0.398 OA
HETATM    9  H   UNK     0      14.583  16.369  92.326  0.00  0.00     0.209 HD
ENDBRANCH   7   8
ENDBRANCH   5   7
BRANCH   6  10
HETATM   10  O   UNK     0      14.681  22.223  92.215  0.00  0.00    -0.358 OA
BRANCH  10  11
HETATM   11  C   UNK     0      15.346  22.422  90.977  0.00  0.00     0.175 C 
BRANCH  11  12
HETATM   12  C   UNK     0      16.504  23.395  91.164  0.00  0.00     0.065 C 
BRANCH  12  13
HETATM   13  C   UNK     0      16.400  24.593  90.252  0.00  0.00    -0.056 A 
HETATM   14  C   UNK     0      17.163  25.718  90.518  0.00  0.00     0.010 A 
HETATM   15  C   UNK     0      17.067  26.825  89.675  0.00  0.00     0.037 A 
HETATM   16  C   UNK     0      16.207  26.792  88.576  0.00  0.00     0.065 A 
HETATM   17  C   UNK     0      15.446  25.653  88.320  0.00  0.00     0.037 A 
HETATM   18  C   UNK     0      15.543  24.546  89.164  0.00  0.00     0.010 A 
BRANCH  16  19
HETATM   19  O   UNK     0      16.114  27.873  87.754  0.00  0.00    -0.361 OA
HETATM   20  H   UNK     0      15.927  27.566  86.850  0.00  0.00     0.217 HD
ENDBRANCH  16  19
ENDBRANCH  12  13
ENDBRANCH  11  12
ENDBRANCH  10  11
ENDBRANCH   6  10
BRANCH   3  21
HETATM   21  O   UNK     0      13.024  17.054  91.232  0.00  0.00    -0.390 OA
HETATM   22  H   UNK     0      12.101  17.040  90.925  0.00  0.00     0.210 HD
ENDBRANCH   3  21
BRANCH   4  23
HETATM   23  O   UNK     0      11.924  21.675  91.895  0.00  0.00    -0.388 OA
HETATM   24  H   UNK     0      11.059  21.286  91.676  0.00  0.00     0.210 HD
ENDBRANCH   4  23
BRANCH   2  25
HETATM   25  O   UNK     0      11.465  19.278  90.244  0.00  0.00    -0.390 OA
HETATM   26  H   UNK     0      11.594  18.410  89.826  0.00  0.00     0.210 HD
ENDBRANCH   2  25
TORSDOF 10
ENDMDL
