REMARK VINA RESULT:      -8.0      5.493      7.759
REMARK  11 active torsions:
REMARK  status: ('A' for Active; 'I' for Inactive)
REMARK    1  A    between atoms: O_2  and  C_16 
REMARK    2  A    between atoms: O_2  and  C_18 
REMARK    3  A    between atoms: O_3  and  C_12 
REMARK    4  A    between atoms: O_4  and  C_13 
REMARK    5  A    between atoms: O_5  and  C_14 
REMARK    6  A    between atoms: O_6  and  C_17 
REMARK    7  A    between atoms: O_8  and  C_23 
REMARK    8  A    between atoms: O_10  and  C_30 
REMARK    9  A    between atoms: O_11  and  C_32 
REMARK   10  A    between atoms: C_15  and  C_17 
REMARK   11  A    between atoms: C_25  and  C_27 
ROOT
HETATM    1  O   UNK     0     185.390 185.499 172.791  0.00  0.00    -0.348 OA
HETATM    2  C   UNK     0     184.288 184.418 175.213  0.00  0.00     0.183 C 
HETATM    3  C   UNK     0     185.785 184.673 175.035  0.00  0.00     0.180 C 
HETATM    4  C   UNK     0     183.587 184.275 173.862  0.00  0.00     0.205 C 
HETATM    5  C   UNK     0     186.028 185.804 174.033  0.00  0.00     0.179 C 
HETATM    6  C   UNK     0     183.972 185.409 172.912  0.00  0.00     0.298 C 
ENDROOT
BRANCH   5   7
HETATM    7  C   UNK     0     187.515 185.998 173.751  0.00  0.00     0.198 C 
BRANCH   7   8
HETATM    8  O   UNK     0     187.836 187.363 173.946  0.00  0.00    -0.398 OA
HETATM    9  H   UNK     0     188.129 187.722 173.091  0.00  0.00     0.209 HD
ENDBRANCH   7   8
ENDBRANCH   5   7
BRANCH   6  10
HETATM   10  O   UNK     0     183.396 185.130 171.637  0.00  0.00    -0.318 OA
BRANCH  10  11
HETATM   11  C   UNK     0     183.021 186.205 170.888  0.00  0.00     0.077 A 
HETATM   12  C   UNK     0     181.673 186.405 170.583  0.00  0.00     0.075 A 
HETATM   13  C   UNK     0     181.292 187.505 169.817  0.00  0.00     0.095 A 
HETATM   14  O   UNK     0     179.953 187.649 169.549  0.00  0.00    -0.309 OA
HETATM   15  C   UNK     0     182.255 188.402 169.355  0.00  0.00     0.081 A 
HETATM   16  C   UNK     0     179.544 188.737 168.794  0.00  0.00     0.090 A 
HETATM   17  C   UNK     0     180.375 189.663 168.290  0.00  0.00     0.094 A 
HETATM   18  C   UNK     0     181.825 189.553 168.547  0.00  0.00     0.190 A 
HETATM   19  O   UNK     0     182.616 190.375 168.108  0.00  0.00    -0.287 OA
HETATM   20  C   UNK     0     183.605 188.205 169.658  0.00  0.00     0.085 A 
HETATM   21  C   UNK     0     183.983 187.103 170.426  0.00  0.00     0.074 A 
BRANCH  16  22
HETATM   22  C   UNK     0     178.086 188.792 168.563  0.00  0.00     0.001 A 
HETATM   23  C   UNK     0     177.449 187.766 167.860  0.00  0.00     0.053 A 
HETATM   24  C   UNK     0     176.072 187.818 167.643  0.00  0.00     0.099 A 
HETATM   25  C   UNK     0     175.329 188.894 168.125  0.00  0.00     0.098 A 
HETATM   26  C   UNK     0     175.962 189.919 168.828  0.00  0.00     0.040 A 
HETATM   27  C   UNK     0     177.338 189.869 169.046  0.00  0.00     0.017 A 
BRANCH  24  28
HETATM   28  O   UNK     0     175.464 186.811 166.953  0.00  0.00    -0.358 OA
HETATM   29  H   UNK     0     174.624 186.601 167.396  0.00  0.00     0.217 HD
ENDBRANCH  24  28
BRANCH  25  30
HETATM   30  O   UNK     0     173.984 188.955 167.920  0.00  0.00    -0.358 OA
HETATM   31  H   UNK     0     173.526 188.664 168.728  0.00  0.00     0.217 HD
ENDBRANCH  25  30
ENDBRANCH  16  22
BRANCH  20  32
HETATM   32  O   UNK     0     184.582 189.052 169.231  0.00  0.00    -0.360 OA
HETATM   33  H   UNK     0     185.448 188.617 169.261  0.00  0.00     0.217 HD
ENDBRANCH  20  32
ENDBRANCH  10  11
ENDBRANCH   6  10
BRANCH   3  34
HETATM   34  O   UNK     0     186.355 185.028 176.293  0.00  0.00    -0.390 OA
HETATM   35  H   UNK     0     185.628 185.144 176.929  0.00  0.00     0.210 HD
ENDBRANCH   3  34
BRANCH   4  36
HETATM   36  O   UNK     0     182.173 184.314 174.055  0.00  0.00    -0.388 OA
HETATM   37  H   UNK     0     181.997 184.766 174.898  0.00  0.00     0.210 HD
ENDBRANCH   4  36
BRANCH   2  38
HETATM   38  O   UNK     0     184.130 183.211 175.961  0.00  0.00    -0.390 OA
HETATM   39  H   UNK     0     183.182 183.110 176.153  0.00  0.00     0.210 HD
ENDBRANCH   2  38
TORSDOF 11
